30
Energy: -173275.491276 eV PBE+vdW (tier 2 basis)
C    0.123964  -1.160116  1.814129
C    -0.459926  0.140212  1.354448
O    0.175236  0.973774  0.695757
H    -0.578818  -1.801499  2.356483
H    0.985349  -0.943157  2.461014
H    0.515993  -1.699853  0.942503
N    -1.774961  0.390012  1.692175
C    -2.466488  1.657530  1.493601
C    -2.669564  2.155352  0.044182
O    -3.752754  2.837572  -0.228981
H    -2.311344  -0.365570  2.105776
H    -3.494424  1.437194  1.833412
C    -1.860969  2.818356  2.356916
C    -2.246272  2.822347  3.843418
C    -3.509336  3.558984  4.272794
O    -4.448043  3.975001  3.497316
N    -3.665734  3.788138  5.562723
H    -2.060784  3.806278  1.897893
H    -0.769637  2.730760  2.273608
H    -1.418603  3.258926  4.421272
H    -2.335729  1.787844  4.216258
H    -2.965217  3.516543  6.247609
H    -4.503527  4.259037  5.902265
N    -1.769360  1.930701  -0.867066
C    -1.831936  2.349993  -2.266877
H    -0.891679  1.491613  -0.487039
H    -1.892801  1.458515  -2.903819
H    -0.910534  2.891557  -2.510804
H    -2.703677  2.985255  -2.438196
Cd    -4.555679  3.734121  1.443481
