30
Energy: -173275.460189 eV PBE+vdW (tier 2 basis)
C    -0.851793  1.467145  0.087378
C    -0.603004  0.661217  1.314558
O    0.607147  0.272896  1.521647
H    -1.904702  1.743581  -0.032158
H    -0.525267  0.889739  -0.789471
H    -0.231930  2.373892  0.117871
N    -1.623607  0.368905  2.124989
C    -1.618812  -0.485110  3.325645
C    -3.103465  -0.982132  3.526546
O    -3.824111  -0.324396  4.265465
H    -2.522414  0.783738  1.879661
H    -0.992091  -1.374300  3.116319
C    -1.203329  0.296725  4.599162
C    -0.945228  -0.546423  5.859952
C    0.453894  -1.073127  6.128279
O    1.415175  -1.118563  5.272640
N    0.712541  -1.537504  7.334926
H    -2.067527  0.942087  4.820959
H    -0.382687  1.015776  4.406422
H    -1.624770  -1.414991  5.881149
H    -1.236203  0.050478  6.736298
H    0.017215  -1.525419  8.076699
H    1.632039  -1.919772  7.552199
N    -3.485934  -2.075248  2.839287
C    -2.697410  -2.908492  1.933331
H    -4.461607  -2.329446  2.986564
H    -3.371103  -3.633098  1.466884
H    -1.922735  -3.479493  2.465110
H    -2.243583  -2.321322  1.123765
Cd    1.263426  -0.451842  3.333039
