30
Energy: -173275.720226 eV PBE+vdW (tier 2 basis)
C    -0.909983  0.856131  0.279054
C    -0.908405  0.358404  1.673631
O    -0.514778  1.094518  2.629293
H    -1.351669  1.858333  0.224036
H    -1.386623  0.166639  -0.424119
H    0.146358  0.965233  -0.024528
N    -1.302479  -0.926240  1.969103
C    -2.573177  -1.556769  1.606646
C    -3.731599  -0.555550  1.837066
O    -3.660480  0.338930  2.729698
H    -0.870802  -1.288233  2.819053
H    -2.564583  -1.845813  0.544810
C    -2.759201  -2.869724  2.426123
C    -2.321702  -2.943407  3.916353
C    -3.082937  -2.171790  4.983077
O    -2.771565  -0.995902  5.362656
N    -4.080764  -2.785488  5.603014
H    -2.174511  -3.646546  1.915210
H    -3.810520  -3.173247  2.334390
H    -1.257285  -2.691494  4.046487
H    -2.370529  -4.010382  4.176506
H    -4.305771  -3.761106  5.433362
H    -4.579144  -2.309229  6.353448
N    -4.800178  -0.691561  1.064702
C    -6.019119  0.117929  1.156705
H    -4.767990  -1.394150  0.328996
H    -5.965063  0.747904  2.047109
H    -6.890440  -0.543646  1.219548
H    -6.112678  0.749813  0.265028
Cd    -1.982717  0.590858  4.183764
