30
Energy: -173275.165868 eV PBE+vdW (tier 2 basis)
C    -0.985809  0.812963  0.010378
C    -0.661494  0.523481  1.441225
O    0.566920  0.269081  1.706573
H    -0.476323  1.740118  -0.288437
H    -2.060443  0.915736  -0.172289
H    -0.578010  0.010313  -0.618236
N    -1.659034  0.550980  2.328556
C    -1.747496  0.122747  3.746505
C    -1.104101  1.113593  4.735397
O    0.154662  1.170726  4.976302
H    -2.592400  0.619683  1.918463
H    -2.828990  0.160164  3.926247
C    -1.351767  -1.345777  4.004967
C    -2.005859  -2.364910  3.056635
C    -3.521876  -2.171291  2.872641
O    -3.982132  -1.049821  2.607755
N    -4.287548  -3.266403  2.974997
H    -1.609937  -1.569793  5.050392
H    -0.251910  -1.505090  3.941618
H    -1.774234  -3.374654  3.418044
H    -1.569083  -2.288925  2.049271
H    -3.908307  -4.186979  3.162117
H    -5.283973  -3.190235  2.786935
N    -1.920107  1.910838  5.396418
C    -1.510408  2.904447  6.394568
H    -2.918380  1.808470  5.224272
H    -1.550414  2.464430  7.399525
H    -2.200950  3.751807  6.343758
H    -0.491161  3.238535  6.184788
Cd    1.488949  0.242859  3.607935
