30
Energy: -173275.087238 eV PBE+vdW (tier 2 basis)
C    0.323907  0.613918  -0.060533
C    -0.101914  0.773604  1.360811
O    0.197334  1.877059  1.990660
H    -0.113707  1.436822  -0.644372
H    0.017476  -0.343177  -0.492669
H    1.414272  0.721212  -0.142912
N    -0.812477  -0.187084  1.920386
C    -1.448830  -0.264394  3.231448
C    -0.686674  0.329472  4.412342
O    0.597329  0.267658  4.500227
H    -1.010601  -1.091944  1.318897
H    -2.415121  0.263372  3.157368
C    -1.733767  -1.762155  3.571992
C    -2.753198  -2.488428  2.670583
C    -2.198294  -3.013846  1.351280
O    -1.323837  -2.382065  0.711876
N    -2.695421  -4.159673  0.886091
H    -2.122417  -1.796476  4.597873
H    -0.775528  -2.300640  3.589284
H    -3.602900  -1.829938  2.425681
H    -3.177458  -3.321990  3.246053
H    -3.399729  -4.692364  1.383411
H    -2.383034  -4.507999  -0.016775
N    -1.373230  0.813750  5.437228
C    -2.824513  0.926786  5.613042
H    -0.795471  1.082934  6.235288
H    -3.012348  1.612243  6.444184
H    -3.273395  -0.045401  5.853844
H    -3.294602  1.338499  4.712015
Cd    1.719563  1.734355  3.425780
