30
Energy: -173275.325459 eV PBE+vdW (tier 2 basis)
C    -0.139191  0.986536  0.036162
C    -0.061339  0.594022  1.471074
O    1.118245  0.393827  1.948362
H    0.297962  0.183272  -0.574719
H    0.472674  1.883087  -0.130835
H    -1.165972  1.173040  -0.296327
N    -1.188965  0.461566  2.176333
C    -1.304967  -0.050501  3.548981
C    -2.565599  -0.888386  3.928143
O    -2.344225  -1.760833  4.765040
H    -2.049521  0.663552  1.672804
H    -0.558928  -0.861770  3.638153
C    -1.074226  1.065080  4.612820
C    -0.991261  0.611962  6.078997
C    0.150735  -0.290587  6.506502
O    1.294563  -0.375756  5.913331
N    0.006377  -0.978328  7.618540
H    -1.902061  1.785111  4.542553
H    -0.195458  1.683452  4.340427
H    -1.929870  0.127961  6.377086
H    -0.897704  1.517851  6.702455
H    -0.855381  -0.952322  8.157291
H    0.771661  -1.551358  7.972031
N    -3.788315  -0.615622  3.429389
C    -4.238385  0.445450  2.532419
H    -4.498299  -1.264754  3.766807
H    -5.316797  0.576511  2.667139
H    -4.080728  0.193666  1.470955
H    -3.777841  1.412294  2.776241
Cd    1.584439  0.021546  3.920932
