30
Energy: -173276.60935 eV PBE+vdW (tier 2 basis)
C    0.925881  2.318759  1.457193
C    0.495469  0.996003  2.006027
O    1.336550  0.048680  1.994286
H    1.247508  2.180507  0.415805
H    1.805021  2.664663  2.017690
H    0.145387  3.085711  1.495225
N    -0.769594  0.903134  2.473312
C    -1.509431  -0.257670  3.015243
C    -0.948636  -0.664060  4.397818
O    0.112158  -1.343971  4.524043
H    -1.303201  1.765823  2.414782
H    -2.524421  0.122579  3.187276
C    -1.624531  -1.405151  1.964021
C    -1.959467  -2.824873  2.488138
C    -0.981064  -3.900616  2.035924
O    0.283864  -3.744840  2.046553
N    -1.467513  -5.066166  1.643280
H    -0.720094  -1.430929  1.337525
H    -2.402007  -1.093595  1.255601
H    -2.977416  -3.107173  2.196797
H    -1.943884  -2.866186  3.589723
H    -0.832065  -5.819809  1.385666
H    -2.464839  -5.247785  1.591595
N    -1.634751  -0.262925  5.459889
C    -1.243806  -0.504615  6.851635
H    -2.480690  0.280478  5.307465
H    -0.421303  -1.222771  6.874906
H    -2.103284  -0.901624  7.402989
H    -0.922882  0.436738  7.315160
Cd    1.212041  -1.956317  2.736434
