30
Energy: -173275.249847 eV PBE+vdW (tier 2 basis)
C    0.250204  1.069829  0.343275
C    0.507341  0.359877  1.621523
O    1.728374  0.334110  2.065709
H    0.659975  2.087654  0.431570
H    -0.813980  1.130292  0.098315
H    0.804468  0.588679  -0.474861
N    -0.436433  -0.242245  2.336736
C    -1.759125  -0.788959  2.057565
C    -2.296432  -1.027569  3.505799
O    -1.447730  -1.143884  4.411643
H    -0.301424  -0.438605  3.368899
H    -2.394335  -0.072065  1.519966
C    -1.683858  -2.125318  1.258101
C    -0.437864  -3.025728  1.463250
C    -0.103136  -3.564625  2.843378
O    0.946409  -3.224125  3.503522
N    -0.879782  -4.487212  3.379414
H    -1.704748  -1.892743  0.184671
H    -2.602683  -2.694506  1.456456
H    0.461694  -2.522789  1.079665
H    -0.567856  -3.898058  0.803469
H    -1.661912  -4.891882  2.873405
H    -0.654213  -4.874145  4.294911
N    -3.614363  -1.122330  3.663648
C    -4.272172  -1.353301  4.953096
H    -4.211372  -0.943831  2.860269
H    -4.907002  -0.495205  5.203342
H    -3.505204  -1.473024  5.722070
H    -4.892685  -2.255582  4.901631
Cd    1.961029  -1.423655  3.194685
