30
Energy: -173275.268555 eV PBE+vdW (tier 2 basis)
C    0.310572  -0.179902  0.887436
C    -0.654631  -0.818344  1.839427
O    -0.639084  -2.025126  2.114026
H    0.332806  -0.760496  -0.042626
H    1.317221  -0.243419  1.324706
H    0.087418  0.868999  0.663869
N    -1.602687  0.001853  2.414266
C    -2.431961  -0.363819  3.560671
C    -3.556962  -1.403958  3.245823
O    -4.705540  -1.413720  3.864882
H    -1.670168  0.956387  2.076422
H    -1.774805  -0.909932  4.268048
C    -2.934997  0.950903  4.218613
C    -2.133047  1.478025  5.417838
C    -2.350424  0.865039  6.795163
O    -3.359118  0.152748  7.146045
N    -1.460132  1.143786  7.729085
H    -4.018909  0.922826  4.437627
H    -2.917095  1.741532  3.455157
H    -2.370675  2.547838  5.546496
H    -1.056996  1.444845  5.191645
H    -0.650575  1.730643  7.545893
H    -1.600075  0.814391  8.683543
N    -3.281411  -2.328866  2.369527
C    -4.152347  -3.435389  1.977711
H    -2.276382  -2.338140  2.053176
H    -4.519391  -3.262282  0.957634
H    -5.001171  -3.519709  2.659879
H    -3.561149  -4.358086  1.983095
Cd    -4.689284  -0.774627  5.832926
