30
Energy: -173275.505139 eV PBE+vdW (tier 2 basis)
C    0.695220  0.749365  3.575623
C    0.174138  -0.533230  3.010225
O    0.923937  -1.568562  3.217562
H    1.636619  1.006621  3.070361
H    0.934807  0.601905  4.637277
H    -0.021915  1.568522  3.463317
N    -0.983359  -0.508500  2.359604
C    -1.830669  -1.641591  1.965126
C    -1.409477  -2.249881  0.603125
O    -0.577198  -3.232166  0.546556
H    -1.564072  0.421730  2.433700
H    -1.707167  -2.464714  2.697165
C    -3.320699  -1.225663  2.000718
C    -3.803329  -0.559283  3.306162
C    -3.585243  0.952454  3.311935
O    -2.578408  1.459680  2.763907
N    -4.498174  1.707542  3.923730
H    -3.913004  -2.131901  1.818795
H    -3.538658  -0.532205  1.174102
H    -3.288861  -0.976792  4.186918
H    -4.866797  -0.790516  3.446121
H    -5.333089  1.321516  4.349289
H    -4.362212  2.714373  3.967860
N    -1.909535  -1.772787  -0.514498
C    -1.576083  -2.244530  -1.863704
H    -2.613869  -1.041965  -0.439292
H    -2.280429  -3.028512  -2.170846
H    -0.560223  -2.647647  -1.872573
H    -1.652065  -1.398784  -2.553725
Cd    0.714982  -3.388510  2.213333
