30
Energy: -173275.899139 eV PBE+vdW (tier 2 basis)
C    -1.461587  -2.585121  0.438712
C    -1.204233  -1.585716  1.516711
O    -0.049978  -1.070382  1.608528
H    -2.494608  -2.948467  0.425687
H    -0.776197  -3.433806  0.568953
H    -1.222079  -2.130526  -0.532244
N    -2.225793  -1.267007  2.352055
C    -2.074312  -0.243492  3.375782
C    -1.460156  -0.796127  4.678660
O    -0.204665  -0.665058  4.855148
H    -3.114130  -1.744496  2.220742
H    -1.278386  0.364979  2.959780
C    -3.180351  0.828398  3.494809
C    -2.735870  2.114087  2.745513
C    -1.452069  2.780894  3.246835
O    -0.291362  2.260187  3.177341
N    -1.564494  4.006327  3.743706
H    -3.371817  1.057927  4.551541
H    -4.132648  0.485184  3.068908
H    -3.554864  2.842754  2.774526
H    -2.571630  1.877143  1.682194
H    -2.452595  4.496646  3.778601
H    -0.731720  4.510836  4.042076
N    -2.228948  -1.399443  5.567762
C    -1.762813  -1.997496  6.824317
H    -3.226675  -1.451357  5.374828
H    -2.070220  -3.048988  6.860259
H    -2.206004  -1.462456  7.672723
H    -0.674134  -1.927583  6.871850
Cd    0.761342  0.312155  3.133697
