30
Energy: -173275.632062 eV PBE+vdW (tier 2 basis)
C    -0.347713  -0.223703  -0.449562
C    0.258525  0.480262  0.704421
O    1.437132  0.946810  0.636438
H    0.329453  -1.048722  -0.725991
H    -0.379306  0.441095  -1.324352
H    -1.336166  -0.638275  -0.233128
N    -0.428617  0.636203  1.883812
C    -1.770635  1.198014  2.042779
C    -1.903384  2.468936  1.175089
O    -0.890081  3.173247  0.883875
H    0.185312  0.755331  2.689220
H    -2.526661  0.467895  1.721709
C    -2.039901  1.496910  3.549198
C    -0.903371  2.051206  4.454251
C    -0.379056  3.465645  4.255560
O    0.614905  3.753355  3.512703
N    -0.943175  4.441762  4.952693
H    -2.344720  0.549413  4.012962
H    -2.912787  2.159644  3.611890
H    -0.023997  1.388108  4.463569
H    -1.293901  1.980258  5.479403
H    -0.583805  5.392071  4.873957
H    -1.658078  4.265410  5.652001
N    -3.104387  2.823204  0.734829
C    -4.383288  2.119302  0.896805
H    -3.113760  3.687057  0.191872
H    -5.140371  2.668137  0.330398
H    -4.700702  2.087784  1.946001
H    -4.331799  1.100763  0.492281
Cd    1.183331  2.877877  1.655318
