30
Energy: -173275.407222 eV PBE+vdW (tier 2 basis)
C    -0.091637  -0.407839  0.181029
C    0.102765  0.290355  1.488413
O    1.263592  0.848319  1.643958
H    0.653028  -1.209019  0.082599
H    0.104502  0.308245  -0.629785
H    -1.102210  -0.813500  0.075330
N    -0.900896  0.294689  2.358307
C    -1.117580  1.184434  3.510773
C    -0.570674  0.595747  4.833529
O    0.693655  0.581212  5.079626
H    -1.840962  -0.135904  1.989998
H    -0.516085  2.103812  3.367983
C    -2.586971  1.685950  3.529742
C    -3.780812  0.696508  3.547397
C    -4.103879  0.035621  2.209012
O    -3.198366  -0.443392  1.492452
N    -5.388290  -0.047258  1.857891
H    -2.695974  2.339693  2.653083
H    -2.681205  2.353297  4.398574
H    -4.653621  1.249164  3.918649
H    -3.646974  -0.146526  4.245984
H    -6.139433  0.336362  2.419379
H    -5.636248  -0.530622  0.997982
N    -1.378277  0.131115  5.761026
C    -0.932179  -0.414225  7.051008
H    -2.376673  0.157711  5.577167
H    -0.323369  0.326996  7.581163
H    -0.337987  -1.321787  6.891773
H    -1.817131  -0.655155  7.644684
Cd    2.009891  1.208994  3.553271
