30
Energy: -173275.340407 eV PBE+vdW (tier 2 basis)
C    -1.668793  -1.286031  0.446624
C    -1.514747  -0.324339  1.580180
O    -1.670328  0.924234  1.276439
H    -2.650954  -1.135813  -0.021937
H    -1.569367  -2.325035  0.777049
H    -0.913496  -1.065178  -0.319924
N    -1.237295  -0.807683  2.785877
C    -1.264563  -0.057698  4.038289
C    0.012620  0.791295  4.248626
O    -0.069411  2.078635  4.151413
H    -1.293560  -1.896943  2.950500
H    -2.082763  0.689576  3.986596
C    -1.602283  -0.955648  5.256799
C    -2.798594  -1.911470  5.066728
C    -2.409724  -3.223888  4.391730
O    -1.573481  -3.248222  3.455602
N    -2.992357  -4.341019  4.825908
H    -1.820869  -0.275556  6.091039
H    -0.727456  -1.540455  5.560246
H    -3.596434  -1.448418  4.463223
H    -3.246081  -2.107145  6.049399
H    -3.656446  -4.350656  5.591530
H    -2.778081  -5.224165  4.369232
N    1.192050  0.276019  4.529994
C    1.617383  -1.119189  4.688199
H    1.924556  0.979774  4.652499
H    2.628100  -1.203452  4.273764
H    0.960271  -1.799896  4.141882
H    1.654387  -1.392276  5.750729
Cd    -1.347867  2.582975  2.528497
