30
Energy: -173276.013602 eV PBE+vdW (tier 2 basis)
C    -0.862039  0.164977  0.076157
C    -1.143573  0.096918  1.539633
O    -1.019139  1.147586  2.237940
H    -1.520506  0.918966  -0.376752
H    -1.003490  -0.793655  -0.434078
H    0.168926  0.512629  -0.074175
N    -1.529655  -1.094800  2.065471
C    -1.903706  -1.184171  3.467281
C    -0.674477  -1.386387  4.385264
O    -0.177948  -0.381367  4.989574
H    -1.597991  -1.896591  1.444035
H    -2.253127  -0.171880  3.661504
C    -3.162598  -1.958342  3.873852
C    -3.642283  -1.425673  5.255107
C    -4.056341  0.045913  5.318582
O    -3.271632  1.035143  5.141618
N    -5.324864  0.301417  5.611550
H    -3.008925  -3.043462  3.950554
H    -3.937469  -1.797366  3.111318
H    -2.847286  -1.557684  6.006835
H    -4.479726  -2.047735  5.592228
H    -6.000021  -0.435196  5.789468
H    -5.637647  1.265911  5.707613
N    -0.156327  -2.595633  4.513104
C    1.035078  -2.927148  5.303580
H    -0.606657  -3.361186  4.017064
H    0.767554  -3.649901  6.083368
H    1.425676  -2.016228  5.761865
H    1.794806  -3.368806  4.647960
Cd    -1.222310  1.460930  4.429714
