30
Energy: -173275.273667 eV PBE+vdW (tier 2 basis)
C    0.048781  0.652755  -0.006016
C    -0.067927  0.258698  1.429390
O    1.000824  0.320700  2.138078
H    0.774681  -0.020663  -0.486914
H    0.464756  1.665940  -0.079227
H    -0.899809  0.596041  -0.550245
N    -1.261343  -0.147619  1.884941
C    -1.664774  -0.951752  3.068777
C    -1.889498  -0.148795  4.364396
O    -1.102811  0.780732  4.812009
H    -2.003641  -0.067727  1.193374
H    -2.664985  -1.306716  2.791454
C    -0.809143  -2.231460  3.257821
C    -1.395954  -3.265548  4.248481
C    -2.845073  -3.658501  3.968401
O    -3.757417  -2.800581  3.971560
N    -3.104806  -4.946202  3.724746
H    0.215728  -1.998152  3.580409
H    -0.712718  -2.690396  2.263452
H    -1.368771  -2.876832  5.277767
H    -0.738644  -4.144095  4.238391
H    -2.387275  -5.661692  3.733846
H    -4.068168  -5.237744  3.576750
N    -2.963400  -0.473163  5.037311
C    -3.366805  0.090763  6.323122
H    -3.496252  -1.299493  4.643414
H    -4.068677  0.919401  6.158231
H    -2.497240  0.463040  6.872387
H    -3.877160  -0.689630  6.896354
Cd    0.877894  0.919484  4.155660
