30
Energy: -173275.064462 eV PBE+vdW (tier 2 basis)
C    -0.717227  0.151935  0.219301
C    -0.424009  0.037873  1.681059
O    0.791253  -0.215090  2.000543
H    -1.784013  0.275937  0.006226
H    -0.337581  -0.741742  -0.293437
H    -0.164116  1.010489  -0.187414
N    -1.433944  0.208035  2.538753
C    -1.539152  -0.020094  3.998540
C    -0.832473  1.057167  4.839033
O    0.410411  0.998929  5.164017
H    -2.364920  0.226554  2.114918
H    -2.613039  0.108010  4.171855
C    -1.238124  -1.462403  4.452685
C    -1.974244  -2.547579  3.646392
C    -3.471006  -2.266683  3.422853
O    -3.847546  -1.163524  2.995548
N    -4.317544  -3.275005  3.673354
H    -1.498770  -1.528451  5.519097
H    -0.153687  -1.710568  4.407929
H    -1.819409  -3.513788  4.142503
H    -1.535101  -2.642403  2.641570
H    -4.008998  -4.185573  3.992815
H    -5.305105  -3.152814  3.463965
N    -1.539630  2.068090  5.306197
C    -2.975534  2.342612  5.145775
H    -1.007908  2.725704  5.880516
H    -3.276628  2.277604  4.095005
H    -3.155203  3.365048  5.489982
H    -3.577617  1.659370  5.757959
Cd    1.689516  -0.142437  3.914341
