30
Energy: -173275.433592 eV PBE+vdW (tier 2 basis)
C    0.575092  -1.043288  0.000030
C    0.320987  -1.062538  1.467540
O    1.294026  -1.451720  2.214677
H    0.814297  -2.063814  -0.332578
H    1.459383  -0.425332  -0.206544
H    -0.278293  -0.666257  -0.573614
N    -0.877207  -0.690527  1.931848
C    -1.362677  -0.796235  3.316437
C    -2.903159  -0.978193  3.468292
O    -3.265101  -1.688638  4.399140
H    -1.570630  -0.489189  1.214116
H    -1.029744  -1.777114  3.708161
C    -0.886363  0.385330  4.213674
C    -1.206720  0.258833  5.711420
C    -0.496015  -0.803034  6.531740
O    0.602682  -1.393181  6.201501
N    -0.996196  -1.098850  7.712723
H    -1.372071  1.303833  3.853616
H    0.187835  0.609178  4.053600
H    -2.287002  0.118011  5.851900
H    -0.955021  1.219378  6.191757
H    -1.847396  -0.664217  8.059668
H    -0.522280  -1.767137  8.319225
N    -3.714945  -0.331332  2.605718
C    -5.177008  -0.443540  2.691574
H    -3.350309  0.402961  2.006513
H    -5.601394  -0.330959  1.689281
H    -5.593881  0.325747  3.354249
H    -5.428382  -1.430603  3.089666
Cd    1.284031  -1.548767  4.271392
