30
Energy: -173275.431722 eV PBE+vdW (tier 2 basis)
C    0.234537  -0.696691  0.075818
C    0.202480  -0.387659  1.534125
O    1.356744  -0.361397  2.126184
H    -0.762480  -0.675821  -0.375899
H    0.673128  -1.696274  -0.060322
H    0.895786  0.013322  -0.438024
N    -0.966315  -0.168423  2.119088
C    -1.382357  -0.165891  3.526755
C    -2.683475  -1.068551  3.480178
O    -3.290775  -1.089542  2.412169
H    -1.822536  -0.348951  1.554126
H    -0.625640  -0.652369  4.168373
C    -1.838262  1.223661  4.042860
C    -0.811427  2.376916  4.218347
C    0.013532  2.319617  5.483610
O    1.067123  1.583668  5.604319
N    -0.350491  3.030588  6.531639
H    -2.374267  1.074258  4.990605
H    -2.593858  1.583259  3.330399
H    -1.371654  3.321660  4.203088
H    -0.129459  2.442488  3.352136
H    -1.148382  3.659708  6.505446
H    0.199102  2.997612  7.390428
N    -3.068236  -1.697257  4.600054
C    -2.347658  -1.818857  5.864212
H    -3.933232  -2.225875  4.495766
H    -2.983369  -2.366312  6.565928
H    -2.137963  -0.839769  6.316876
H    -1.413984  -2.388416  5.752736
Cd    1.627109  0.435468  3.983528
