30
Energy: -173275.774977 eV PBE+vdW (tier 2 basis)
C    0.216136  -0.409616  1.713841
C    -0.673556  0.572866  2.380437
O    -0.204572  1.624488  2.907597
H    0.634247  0.030079  0.795335
H    -0.276088  -1.361059  1.493912
H    1.077635  -0.586476  2.375388
N    -2.033136  0.372965  2.437835
C    -2.896090  0.039562  1.302105
C    -2.577674  0.977124  0.117508
O    -2.147604  2.161408  0.316019
H    -2.487092  0.873078  3.202470
H    -2.731472  -1.005753  1.008513
C    -4.387818  0.182616  1.703808
C    -5.009537  1.605765  1.810384
C    -4.740952  2.405838  3.072058
O    -3.627157  2.970266  3.339499
N    -5.722962  2.528546  3.951796
H    -4.541495  -0.382804  2.634642
H    -4.971110  -0.347134  0.939703
H    -6.095173  1.480488  1.711190
H    -4.704822  2.232254  0.958677
H    -5.581780  3.079190  4.797630
H    -6.638700  2.115687  3.803746
N    -2.788408  0.570977  -1.125490
C    -3.285515  -0.719337  -1.614201
H    -2.598341  1.282975  -1.833191
H    -2.985566  -1.537916  -0.952803
H    -2.849054  -0.902719  -2.600908
H    -4.378728  -0.705711  -1.711469
Cd    -1.751619  3.090356  2.276967
