30
Energy: -173275.641332 eV PBE+vdW (tier 2 basis)
C    0.102728  -1.470994  0.587683
C    -0.107431  -0.231211  1.384935
O    0.947321  0.486149  1.618864
H    -0.829703  -2.018240  0.415167
H    0.811600  -2.119741  1.122376
H    0.568644  -1.212820  -0.372829
N    -1.322870  0.068220  1.818738
C    -1.774804  1.146106  2.699185
C    -3.140913  0.594979  3.251621
O    -3.803905  -0.092132  2.482292
H    -2.121482  -0.538386  1.567601
H    -1.065259  1.270611  3.541326
C    -2.034463  2.463381  1.898529
C    -2.263801  3.747421  2.710401
C    -1.058428  4.565226  3.148288
O    0.168129  4.182343  3.097387
N    -1.283487  5.771454  3.632769
H    -2.935935  2.278277  1.296012
H    -1.260115  2.621303  1.121618
H    -2.854791  3.527820  3.615273
H    -2.901435  4.420064  2.117796
H    -2.219523  6.164111  3.690185
H    -0.506347  6.350679  3.948450
N    -3.498280  0.967828  4.491514
C    -4.758399  0.524341  5.102500
H    -2.798873  1.374549  5.104250
H    -5.077458  1.266916  5.840037
H    -4.631977  -0.448735  5.594074
H    -5.517417  0.430948  4.320712
Cd    0.847470  2.379906  2.376933
