30
Energy: -173275.375402 eV PBE+vdW (tier 2 basis)
C    0.824255  -0.324896  0.225058
C    0.629739  -0.215097  1.700976
O    1.664427  -0.356961  2.440830
H    -0.106905  -0.217531  -0.341461
H    1.299491  -1.285217  -0.013244
H    1.526230  0.462113  -0.089182
N    -0.601945  0.041561  2.169003
C    -1.010274  0.542200  3.500701
C    -1.421794  -0.605524  4.450144
O    -0.520074  -1.445563  4.877849
H    -1.326850  0.084918  1.455742
H    -0.105371  0.976252  3.963453
C    -1.978901  1.735132  3.331004
C    -3.249352  1.559760  2.456981
C    -4.534465  1.546313  3.280234
O    -4.613034  0.837169  4.305056
N    -5.557973  2.290738  2.861581
H    -1.376019  2.544582  2.900038
H    -2.255585  2.077351  4.337472
H    -3.261965  0.604975  1.903592
H    -3.284467  2.348121  1.696173
H    -5.504718  2.887451  2.044485
H    -6.434021  2.265367  3.378075
N    -2.647942  -0.741793  4.857383
C    -3.076644  -1.780860  5.798708
H    -3.427857  -0.042213  4.556168
H    -4.107265  -1.561138  6.088804
H    -2.431525  -1.788383  6.684949
H    -3.034262  -2.768758  5.322700
Cd    1.498174  -1.173135  4.391697
