30
Energy: -173275.039069 eV PBE+vdW (tier 2 basis)
C    0.239598  0.432251  -0.030472
C    0.030405  0.231228  1.435472
O    1.051896  0.365923  2.190097
H    -0.676107  0.315736  -0.619529
H    0.986769  -0.295044  -0.379323
H    0.664827  1.430367  -0.200218
N    -1.200998  -0.084375  1.863710
C    -1.695850  -0.545628  3.181669
C    -1.892529  0.621673  4.167708
O    -0.924373  1.105276  4.864295
H    -1.897569  -0.140231  1.124188
H    -2.696117  -0.965107  2.974544
C    -0.940681  -1.750879  3.774170
C    -1.773369  -2.556101  4.781569
C    -3.047997  -3.164243  4.162751
O    -3.771115  -2.489636  3.415317
N    -3.331043  -4.429015  4.501620
H    0.012597  -1.474134  4.292345
H    -0.619610  -2.389929  2.939908
H    -2.100137  -1.923431  5.622097
H    -1.142355  -3.343569  5.212067
H    -2.748729  -4.976741  5.123842
H    -4.192810  -4.848441  4.161817
N    -3.089466  1.145969  4.340029
C    -4.371343  0.798287  3.707819
H    -3.108050  1.929887  4.996746
H    -4.486866  1.339182  2.759827
H    -5.169721  1.112980  4.386608
H    -4.454463  -0.281975  3.550588
Cd    1.064621  0.594538  4.298605
