18
Energy: -167520.933533 eV PBE+vdW (tier 2 basis)
N    4.409776  1.659142  -0.438885
C    4.268531  1.703950  0.978302
C    5.104874  0.609093  1.694883
O    6.064132  0.038002  1.322171
H    1.534652  1.392092  -0.855250
H    5.172183  2.211848  -0.826263
H    4.734100  2.633281  1.352286
C    2.769470  1.819031  1.411468
C    1.880414  0.662615  1.017014
O    1.604862  -0.309692  1.816186
N    1.367102  0.634547  -0.194930
H    2.400065  2.737997  0.939173
H    2.694051  1.980822  2.496993
H    4.365424  0.743495  -0.881905
H    0.754761  -0.129489  -0.484193
O    4.635356  0.341489  3.102615
H    5.423748  -0.055221  3.543262
Cd    2.661499  -0.589001  3.625071
