18
Energy: -167522.152566 eV PBE+vdW (tier 2 basis)
N    -0.047515  -0.109619  -0.246099
C    0.237115  0.275152  1.194257
C    1.691422  -0.060514  1.516112
O    2.101004  -1.187828  1.092039
H    0.411016  -1.018212  -0.446285
H    -1.055877  -0.189901  -0.448309
H    0.024578  1.342889  1.313697
C    -0.620285  -0.612499  2.148369
C    -0.138321  -0.744227  3.612014
O    0.906440  -1.371395  3.953168
N    -0.944867  -0.259486  4.544548
H    -0.623255  -1.644339  1.762709
H    -1.654181  -0.244280  2.136338
H    -1.831449  0.188453  4.331966
H    -0.709247  -0.389372  5.528227
O    2.248204  0.639407  2.404521
H    0.343314  0.585053  -0.902398
Cd    2.994903  -1.345281  3.202126
