18
Energy: -167520.906736 eV PBE+vdW (tier 2 basis)
N    0.014959  0.210282  -0.131692
C    -0.032342  -0.259353  1.221565
C    1.300354  -0.050475  2.030982
O    1.574221  -0.767553  2.965572
H    0.703449  -0.227540  -0.747323
H    0.002818  1.224301  -0.252381
H    -0.764336  0.358849  1.769425
C    -0.436026  -1.752197  1.335050
C    -1.797157  -2.108996  0.785734
O    -2.491840  -3.109385  1.207026
N    -2.306819  -1.386128  -0.185727
H    -0.393338  -2.023461  2.400516
H    0.307005  -2.387286  0.822391
H    -1.744519  -0.597163  -0.549416
H    -3.212535  -1.613660  -0.596624
O    1.992776  0.981955  1.575600
H    2.795057  1.130766  2.124496
Cd    -2.208729  -4.680956  2.612807
