18
Energy: -167521.636747 eV PBE+vdW (tier 2 basis)
N    0.559062  0.606887  0.805278
C    -0.528729  -0.239850  1.222829
C    -0.009733  -1.040349  2.430770
O    0.505517  -2.190168  2.431437
H    0.712247  1.458869  1.340292
H    -3.576157  -0.552043  -0.569105
H    -1.336302  0.401027  1.604277
C    -1.034133  -1.023104  -0.019479
C    -2.239484  -1.924321  0.157469
O    -2.145378  -3.123766  0.604745
N    -3.434893  -1.476047  -0.168445
H    -0.219827  -1.629752  -0.453660
H    -1.246883  -0.251014  -0.770166
H    1.422947  0.161939  0.502446
H    -4.254076  -2.076464  -0.066587
O    -0.014114  -0.318207  3.521183
H    0.445698  -0.763878  4.268029
Cd    -0.283762  -3.871758  1.310686
