18
Energy: -167521.907628 eV PBE+vdW (tier 2 basis)
N    0.687028  -1.798830  -2.712313
C    1.313010  -2.596236  -1.660112
C    2.847824  -2.494423  -1.957472
O    3.777658  -3.042864  -1.294956
H    0.120744  -1.020231  -2.375402
H    0.159985  -2.328797  -3.407022
H    1.165042  -2.086189  -0.693899
C    0.794228  -4.073512  -1.565582
C    0.499449  -4.572784  -0.161588
O    1.392404  -4.656751  0.758093
N    -0.724831  -4.954551  0.139354
H    1.511767  -4.778799  -2.017133
H    -0.115137  -4.155629  -2.172230
H    -1.489283  -4.920944  -0.530171
H    -0.929739  -5.325208  1.068617
O    3.129385  -1.758740  -2.956501
H    2.159299  -1.451786  -3.260919
Cd    3.430168  -4.204725  0.432234
