18
Energy: -167522.139836 eV PBE+vdW (tier 2 basis)
N    2.275930  -5.491036  -0.916808
C    1.749619  -5.323714  0.498174
C    2.542301  -6.265272  1.405196
O    2.354350  -6.121235  2.648481
H    2.573951  -6.479367  -1.034770
H    1.590722  -5.234834  -1.641663
H    1.868652  -4.271445  0.779869
C    0.257927  -5.723520  0.661301
C    -0.154434  -7.213615  0.739020
O    0.337831  -8.078048  1.518258
N    -1.183198  -7.560352  -0.027491
H    -0.337644  -5.215505  -0.109882
H    -0.055181  -5.283271  1.621385
H    -1.677398  -6.901037  -0.621200
H    -1.577779  -8.496611  0.060392
O    3.067134  -7.275015  0.848689
H    3.114248  -4.908426  -1.068305
Cd    2.193969  -8.342696  2.728356
