18
Energy: -167522.791172 eV PBE+vdW (tier 2 basis)
N    -1.261800  -0.467431  0.667038
C    -0.154126  -0.068528  1.584159
C    1.139547  0.109849  0.762825
O    1.371516  -0.492974  -0.297290
H    -1.584144  0.333592  0.111936
H    -2.074263  -0.795752  1.199277
H    -0.371622  0.912135  2.034128
C    0.033801  -1.062913  2.759353
C    0.425269  -2.513340  2.465352
O    0.327191  -3.078431  1.328893
N    0.858057  -3.224850  3.492534
H    -0.908674  -1.089093  3.332032
H    0.773671  -0.625983  3.445478
H    0.958213  -2.839294  4.427942
H    1.082777  -4.211179  3.363070
O    1.965167  0.955349  1.316018
H    2.798587  1.051268  0.799769
Cd    -0.186168  -2.104423  -0.524515
