18
Energy: -167522.47702 eV PBE+vdW (tier 2 basis)
N    1.544320  -0.665918  0.390370
C    0.603384  -0.583827  1.544758
C    0.915472  -1.738728  2.532385
O    1.380083  -2.822539  2.152012
H    2.483385  -0.350885  0.659900
H    1.240006  -0.052116  -0.372574
H    0.764393  0.367598  2.077394
C    -0.884246  -0.593185  1.094869
C    -1.451314  -1.812164  0.357577
O    -0.753534  -2.679731  -0.255875
N    -2.769315  -1.915835  0.324504
H    -1.038871  0.278820  0.436722
H    -1.506977  -0.395563  1.978990
H    -3.390111  -1.249989  0.776923
H    -3.199549  -2.675661  -0.202972
O    0.650450  -1.592522  3.803210
H    0.367983  -0.693443  4.067650
Cd    1.380496  -2.917127  -0.075234
