18
Energy: -167520.845012 eV PBE+vdW (tier 2 basis)
N    0.955229  -0.331098  0.331897
C    0.099052  -0.486988  1.464508
C    0.054555  0.869435  2.243157
O    -0.506987  1.855519  1.921055
H    0.616673  0.270347  -0.417080
H    1.956903  -0.241760  0.491983
H    -0.933809  -0.590504  1.098851
C    0.504194  -1.758987  2.257351
C    -0.449886  -2.208396  3.343079
O    -0.374573  -1.805098  4.562127
N    -1.409006  -3.060541  3.040801
H    1.511289  -1.645704  2.685073
H    0.587340  -2.552018  1.501673
H    -1.512153  -3.453449  2.108154
H    -2.055867  -3.382864  3.761758
O    0.975047  0.963608  3.424407
H    1.093798  1.934162  3.557233
Cd    0.893200  -0.280663  5.288974
