18
Energy: -167521.688481 eV PBE+vdW (tier 2 basis)
N    1.221144  -0.377441  0.536026
C    0.168049  -0.024886  1.465492
C    0.777552  0.602143  2.730207
O    1.269199  0.011668  3.737325
H    1.580905  0.408937  -0.003429
H    1.994672  -0.930104  0.902770
H    -0.404385  0.792438  1.009765
C    -0.859931  -1.186586  1.691705
C    -0.322875  -2.590968  1.523101
O    0.465283  -3.157919  2.376572
N    -0.672746  -3.294299  0.470195
H    -1.666293  -1.030107  0.965122
H    -1.348205  -1.115250  2.678435
H    -1.269480  -2.913601  -0.259990
H    -0.335389  -4.250950  0.354470
O    0.856763  1.899976  2.652238
H    1.341895  2.298090  3.411572
Cd    1.162843  -2.097141  4.040427
