18
Energy: -167522.018949 eV PBE+vdW (tier 2 basis)
N    0.554955  -0.854001  -0.390149
C    0.036668  -0.270655  0.908666
C    1.326269  0.175582  1.651043
O    2.410482  -0.190069  1.245356
H    0.594049  -0.112490  -1.101136
H    1.559984  -1.075147  -0.181668
H    -0.577781  0.609415  0.675894
C    -0.751097  -1.254107  1.815029
C    -2.134905  -1.673338  1.349903
O    -2.330576  -2.339791  0.266093
N    -3.180337  -1.386730  2.096307
H    -0.823016  -0.779127  2.801927
H    -0.163527  -2.176427  1.969840
H    -3.100996  -0.881664  2.975695
H    -4.110334  -1.702969  1.816438
O    1.058377  0.929549  2.702465
H    1.888263  1.203818  3.152299
Cd    -0.720622  -2.506576  -1.088958
