18
Energy: -167520.949666 eV PBE+vdW (tier 2 basis)
N    -0.012723  0.961418  0.567411
C    0.244288  0.267395  1.745940
C    1.772469  0.196219  1.970396
O    2.590801  0.074183  1.116524
H    0.572917  1.745995  0.290754
H    -0.927994  0.916732  0.126633
H    -0.198711  0.865624  2.673696
C    -0.439570  -1.125129  1.731681
C    -0.457779  -1.972538  2.997354
O    -0.435729  -1.504243  4.186906
N    -0.571730  -3.277437  2.842308
H    0.020524  -1.701018  0.916308
H    -1.496343  -0.971523  1.453373
H    -0.617756  -3.717628  1.926006
H    -0.666357  -3.880482  3.660242
O    2.095694  0.281438  3.328628
H    3.071762  0.214379  3.436472
Cd    0.178239  0.475616  4.700366
