18
Energy: -167521.002599 eV PBE+vdW (tier 2 basis)
N    -0.642393  0.336752  0.545518
C    0.108765  0.028770  1.708046
C    1.492141  0.731352  1.781228
O    2.126042  1.328500  0.995129
H    -1.114088  1.239319  0.544207
H    -0.192387  0.153538  -0.351173
H    -0.447265  0.414567  2.577699
C    0.305750  -1.533830  1.855359
C    -0.470721  -2.095512  3.019820
O    -0.116333  -1.890537  4.245293
N    -1.556998  -2.804361  2.807002
H    1.362379  -1.810935  1.989432
H    -0.012482  -1.992580  0.912651
H    -1.902328  -2.990193  1.867821
H    -2.083760  -3.191896  3.591410
O    2.072137  0.613077  3.185330
H    2.909360  1.133007  3.174642
Cd    1.511079  -0.701232  4.853175
