18
Energy: -167522.223399 eV PBE+vdW (tier 2 basis)
N    0.253183  -0.018612  -0.102689
C    0.180368  -0.229572  1.331737
C    1.413884  0.287732  2.163682
O    2.275557  1.015650  1.595482
H    -0.945429  -0.974429  -0.465539
H    0.142146  0.958933  -0.379469
H    -0.648909  0.383751  1.723276
C    -0.106102  -1.718632  1.642173
C    -1.331193  -2.222130  0.901060
O    -1.639818  -1.740545  -0.251658
N    -2.075157  -3.178418  1.403719
H    -0.220097  -1.868188  2.722109
H    0.740136  -2.347664  1.316771
H    -1.885658  -3.593237  2.311594
H    -2.864565  -3.543131  0.868480
O    1.456203  -0.018558  3.395167
H    1.107981  -0.380977  -0.533308
Cd    3.318302  1.221904  3.586886
