18
Energy: -167522.018096 eV PBE+vdW (tier 2 basis)
N    0.657215  -1.851812  -2.941131
C    1.286492  -2.537676  -1.749082
C    2.829390  -2.422514  -2.079228
O    3.728068  -2.857194  -1.247113
H    1.539708  -1.595167  -3.510597
H    0.135910  -0.999873  -2.699083
H    1.065814  -1.919805  -0.867771
C    0.758361  -3.990460  -1.552610
C    0.456051  -4.383921  -0.109618
O    1.306341  -4.281980  0.837284
N    -0.735174  -4.877020  0.173042
H    1.488992  -4.719781  -1.939877
H    -0.149105  -4.141290  -2.151297
H    -1.469123  -4.984703  -0.521562
H    -0.936866  -5.196750  1.121539
O    3.115808  -1.899902  -3.148208
H    0.050444  -2.452649  -3.512054
Cd    3.357675  -3.741503  0.590368
