18
Energy: -167522.114591 eV PBE+vdW (tier 2 basis)
N    -0.101123  0.304293  0.021668
C    0.005945  0.043055  1.496602
C    1.353189  -0.663810  1.777034
O    2.295609  -0.515168  0.935835
H    -0.801274  1.026262  -0.188662
H    0.798185  0.575503  -0.395992
H    0.082554  0.995682  2.044815
C    -1.226007  -0.743661  1.965602
C    -1.489194  -1.979234  1.096400
O    -1.007902  -2.032017  -0.062455
N    -2.247932  -2.947831  1.595520
H    -2.110758  -0.089244  1.899246
H    -1.108139  -1.007969  3.023701
H    -2.638863  -2.912202  2.531551
H    -2.498931  -3.738269  1.004010
O    1.484963  -1.309875  2.859903
H    -0.455159  -0.697681  -0.341169
Cd    3.629840  -1.680836  2.323392
