18
Energy: -167520.811874 eV PBE+vdW (tier 2 basis)
N    3.816193  1.529810  -0.335045
C    4.278155  1.427701  1.085484
C    5.833048  1.375921  1.091584
O    6.450084  1.262737  0.058198
H    3.892587  2.488704  -0.696935
H    4.389325  0.930104  -0.948912
H    3.963308  2.342346  1.606935
C    3.703330  0.185495  1.782267
C    2.153805  0.069878  1.668605
O    1.714520  -0.564428  2.746068
N    1.577400  0.527203  0.630207
H    3.993681  0.210790  2.837636
H    4.105449  -0.747930  1.356077
H    2.779996  1.211732  -0.307126
H    0.564784  0.406494  0.531747
O    6.304285  1.468417  2.325744
H    7.286607  1.444445  2.317054
Cd    -0.212559  -1.227420  3.138411
