18
Energy: -167522.154168 eV PBE+vdW (tier 2 basis)
N    -1.250381  0.040982  0.671414
C    -0.245928  0.193674  1.784480
C    1.177315  0.432561  1.260142
O    2.067809  0.883011  1.905362
H    -1.346384  0.922843  0.153118
H    -2.180509  -0.162199  1.057346
H    -0.490490  1.100108  2.360359
C    -0.280987  -0.982227  2.793520
C    0.250290  -2.345803  2.361413
O    0.255851  -2.772794  1.155249
N    0.693212  -3.148102  3.310186
H    -1.321792  -1.128840  3.129786
H    0.269094  -0.649783  3.684762
H    0.737115  -2.870329  4.287716
H    0.996982  -4.093419  3.075100
O    1.335936  0.025075  -0.079028
H    2.265696  0.196922  -0.352886
Cd    -0.303829  -1.604678  -0.540040
