18
Energy: -167520.752155 eV PBE+vdW (tier 2 basis)
N    -0.306762  0.416039  -0.091982
C    0.012106  0.169446  1.352017
C    1.405601  -0.504921  1.351870
O    2.069580  -0.557302  0.339348
H    0.593384  0.447064  -0.611557
H    -0.850579  1.271249  -0.254004
H    0.149914  1.137546  1.861411
C    -1.100095  -0.582657  2.084975
C    -1.535313  -1.904220  1.395029
O    -1.912959  -2.761644  2.340792
N    -1.499400  -1.963063  0.126943
H    -2.016336  0.026051  2.148452
H    -0.779241  -0.776898  3.114138
H    -0.847308  -0.454337  -0.412080
H    -1.800000  -2.814583  -0.357801
O    1.740105  -0.942011  2.559543
H    2.661853  -1.280215  2.546603
Cd    -2.836546  -4.583542  2.045302
