24
Energy: -17146.4381862 eV PBE+vdW (tier 2 basis)
N    2.573967  -2.100889  2.047911
C    1.320337  -2.019451  1.313442
C    0.700630  -0.628110  1.113400
O    -0.237745  -0.396736  0.377848
H    2.442885  -1.764613  3.003366
H    3.280274  -1.500607  1.623718
H    1.496934  -2.389402  0.290876
C    0.255182  -2.959389  1.943887
C    -0.106738  -2.607388  3.365754
C    0.581279  -3.171138  4.448449
C    -1.126926  -1.685105  3.649448
C    0.275658  -2.822939  5.764130
C    -1.443920  -1.327539  4.956260
C    -0.738067  -1.895301  6.021729
O    -1.089520  -1.512480  7.290999
H    0.671885  -3.974395  1.901358
H    -0.637313  -2.934759  1.305230
H    1.369905  -3.900940  4.259825
H    -1.691765  -1.241688  2.827973
H    0.822553  -3.279796  6.592089
H    -2.241372  -0.616365  5.167991
H    -0.529769  -1.987343  7.925644
O    1.307769  0.341491  1.851910
H    0.816876  1.163880  1.657763
