24
Energy: -17146.5427187 eV PBE+vdW (tier 2 basis)
N    0.883102  -2.313037  -0.162659
C    0.485310  -1.222172  0.745232
C    1.738690  -0.683524  1.477207
O    2.892042  -1.140168  0.954464
H    0.748625  -3.221901  0.283639
H    0.315119  -2.317743  -1.008085
H    0.143235  -0.383897  0.116952
C    -0.636749  -1.566409  1.745606
C    -1.945424  -1.877766  1.066817
C    -2.782212  -0.848526  0.614373
C    -2.348133  -3.197876  0.821770
C    -3.970656  -1.122275  -0.059337
C    -3.532878  -3.491018  0.149730
C    -4.349563  -2.448667  -0.296765
O    -5.506112  -2.784186  -0.951088
H    -0.737793  -0.716986  2.434241
H    -0.310596  -2.423940  2.355879
H    -2.505118  0.191234  0.798151
H    -1.728579  -4.022489  1.179757
H    -4.610392  -0.302959  -0.394806
H    -3.841121  -4.520350  -0.028526
H    -5.977935  -1.970801  -1.190791
O    1.687626  0.092035  2.405538
H    2.586511  -1.751580  0.224698
