24
Energy: -17146.4257111 eV PBE+vdW (tier 2 basis)
N    -0.316410  -1.023119  1.074844
C    0.739299  -0.325842  1.795701
C    1.758140  0.339848  0.869944
O    2.019818  -0.025143  -0.257937
H    -0.984282  -0.355479  0.690194
H    0.093014  -1.510330  0.274017
H    0.288146  0.455395  2.423495
C    1.505378  -1.304682  2.735441
C    0.678211  -1.760147  3.908286
C    -0.190708  -2.853719  3.814416
C    0.732715  -1.069288  5.127292
C    -0.975472  -3.246798  4.897264
C    -0.045336  -1.447406  6.218070
C    -0.905869  -2.543047  6.103714
O    -1.651024  -2.883375  7.204941
H    2.415318  -0.805564  3.097671
H    1.830044  -2.163188  2.127993
H    -0.264041  -3.400880  2.875256
H    1.404413  -0.214516  5.228530
H    -1.645847  -4.104286  4.803514
H    0.007382  -0.909246  7.163601
H    -2.196362  -3.654688  6.983172
O    2.384911  1.391755  1.468816
H    3.043560  1.718744  0.824763
