24
Energy: -17146.5807105 eV PBE+vdW (tier 2 basis)
N    0.809686  0.151340  0.253872
C    0.449866  -0.213094  1.634718
C    1.567799  -1.108413  2.228889
O    2.664342  -1.163916  1.456023
H    0.320841  -0.453962  -0.410708
H    0.563489  1.114738  0.036857
H    0.477553  0.702244  2.246615
C    -0.946199  -0.859588  1.805893
C    -1.194638  -2.001916  0.852055
C    -1.899935  -1.800079  -0.341721
C    -0.693738  -3.290591  1.105356
C    -2.098837  -2.835619  -1.256658
C    -0.883895  -4.331965  0.203959
C    -1.586854  -4.107400  -0.985306
O    -1.746244  -5.169752  -1.835588
H    -1.706893  -0.080379  1.653829
H    -1.024464  -1.197659  2.847783
H    -2.322736  -0.816531  -0.556811
H    -0.145737  -3.480118  2.028613
H    -2.660025  -2.654682  -2.176033
H    -0.496750  -5.329112  0.409215
H    -2.253854  -4.878881  -2.609803
O    1.471819  -1.673045  3.297157
H    2.407403  -0.609621  0.661792
