24
Energy: -17146.3898131 eV PBE+vdW (tier 2 basis)
N    2.756287  -1.747018  1.982300
C    1.462493  -1.906369  1.332805
C    0.730089  -0.579340  1.181692
O    -0.200512  -0.400793  0.421685
H    3.215591  -2.653484  2.071980
H    2.646155  -1.367793  2.923544
H    1.639506  -2.250120  0.302332
C    0.474287  -2.941690  1.978021
C    0.056377  -2.603024  3.383299
C    0.818997  -3.009135  4.488999
C    -1.085982  -1.828811  3.630435
C    0.470716  -2.654132  5.789855
C    -1.449563  -1.466116  4.925710
C    -0.668174  -1.875101  6.011691
O    -0.974265  -1.552933  7.309015
H    0.983244  -3.916987  1.956175
H    -0.404522  -3.021032  1.322726
H    1.701627  -3.631063  4.331019
H    -1.706174  -1.503942  2.793690
H    1.065504  -2.979436  6.642370
H    -2.348002  -0.867870  5.093719
H    -1.786144  -1.021516  7.314809
O    1.181491  0.380653  2.028650
H    0.609976  1.158054  1.875478
