24
Energy: -17146.370141 eV PBE+vdW (tier 2 basis)
N    0.451650  0.248484  -0.181099
C    0.248315  -0.228904  1.182809
C    0.734456  0.701447  2.295216
O    0.145656  0.922956  3.332796
H    -0.112396  1.078094  -0.362542
H    1.427067  0.513113  -0.324331
H    -0.831422  -0.341229  1.351133
C    0.910302  -1.621459  1.381155
C    0.202858  -2.721845  0.634462
C    0.514205  -3.027591  -0.697722
C    -0.819517  -3.452568  1.251641
C    -0.163122  -4.025661  -1.392164
C    -1.509269  -4.454477  0.570450
C    -1.181075  -4.743713  -0.757776
O    -1.817277  -5.719733  -1.482974
H    0.917612  -1.850461  2.456725
H    1.962096  -1.548333  1.064619
H    1.298886  -2.466995  -1.205223
H    -1.083765  -3.238191  2.288896
H    0.084988  -4.259972  -2.426558
H    -2.299452  -5.015802  1.074211
H    -2.492878  -6.132378  -0.921949
O    1.952568  1.254327  2.011494
H    2.185516  1.797893  2.788729
