24
Energy: -17146.4254758 eV PBE+vdW (tier 2 basis)
N    -0.720996  0.468857  0.296664
C    -0.277684  0.193049  1.675534
C    1.163808  0.716533  1.842431
O    1.828641  0.815934  0.668826
H    -1.433940  -0.195372  -0.004415
H    -1.117917  1.404403  0.211865
H    -0.890126  0.689825  2.443907
C    -0.322725  -1.338282  1.917213
C    0.017072  -1.779259  3.316954
C    1.305748  -2.215669  3.650158
C    -0.948172  -1.749561  4.329849
C    1.628133  -2.607809  4.945095
C    -0.642650  -2.137103  5.632687
C    0.651505  -2.567465  5.944106
O    1.016210  -2.964995  7.204455
H    0.347847  -1.823286  1.191581
H    -1.346375  -1.666375  1.670760
H    2.080477  -2.238055  2.882694
H    -1.963355  -1.419023  4.101037
H    2.633279  -2.941268  5.198640
H    -1.411581  -2.108799  6.407850
H    0.251472  -2.871799  7.794344
O    1.665754  0.978979  2.910196
H    1.130575  0.624541  -0.015432
