24
Energy: -17146.4685538 eV PBE+vdW (tier 2 basis)
N    1.662760  0.244984  1.021403
C    0.211512  0.310283  1.018853
C    -0.434654  -0.193286  2.316548
O    0.141517  -0.745066  3.228518
H    2.034402  0.747013  1.828238
H    1.959026  -0.726394  1.139901
H    -0.088643  1.366526  0.921467
C    -0.369381  -0.431233  -0.217521
C    -0.053586  -1.906289  -0.253075
C    -0.890696  -2.843337  0.367267
C    1.103711  -2.384619  -0.886714
C    -0.583750  -4.202530  0.367860
C    1.425364  -3.739224  -0.894795
C    0.580536  -4.655096  -0.261286
O    0.937951  -5.978436  -0.296574
H    0.055841  0.063816  -1.100721
H    -1.455545  -0.273512  -0.238912
H    -1.806527  -2.507681  0.856142
H    1.767079  -1.677689  -1.387015
H    -1.253433  -4.914390  0.855615
H    2.324311  -4.102177  -1.391360
H    0.269834  -6.494412  0.181917
O    -1.775988  0.069609  2.348378
H    -2.093641  -0.271859  3.206866
