24
Energy: -17146.3121993 eV PBE+vdW (tier 2 basis)
N    -0.586961  1.123059  0.594094
C    -0.284040  0.617448  1.922423
C    1.229990  0.724790  2.154347
O    2.034089  0.846864  1.258345
H    0.258669  1.069693  0.021219
H    -1.317866  0.575807  0.143119
H    -0.773563  1.255019  2.683103
C    -0.775358  -0.845600  2.163221
C    -0.651749  -1.331466  3.585270
C    -1.469317  -0.810820  4.603862
C    0.305693  -2.289114  3.945657
C    -1.337786  -1.222065  5.927212
C    0.446130  -2.715746  5.264728
C    -0.375252  -2.180720  6.262800
O    -0.287398  -2.553377  7.576396
H    -0.227524  -1.511889  1.481287
H    -1.832786  -0.867597  1.854824
H    -2.235042  -0.073190  4.356209
H    0.962493  -2.704191  3.180219
H    -1.977721  -0.816864  6.709777
H    1.200367  -3.463264  5.519129
H    0.415544  -3.216051  7.670008
O    1.644807  0.673231  3.445022
H    0.884581  0.469044  4.024727
