24
Energy: -17146.4085338 eV PBE+vdW (tier 2 basis)
N    -0.936569  0.616098  0.666208
C    0.081015  -0.014092  1.529339
C    1.477807  0.296695  0.937605
O    1.470219  1.342161  0.088925
H    -1.236984  -0.023847  -0.070930
H    -1.765931  0.875046  1.198018
H    0.058390  0.529178  2.487637
C    -0.110339  -1.527860  1.828145
C    0.110075  -1.910441  3.273381
C    1.397986  -1.979353  3.828408
C    -0.979303  -2.181545  4.108992
C    1.590282  -2.304980  5.167154
C    -0.801672  -2.509382  5.453765
C    0.488564  -2.571307  5.987184
O    0.735496  -2.889049  7.298665
H    0.559815  -2.105905  1.176131
H    -1.141131  -1.792252  1.551813
H    2.258760  -1.761662  3.195997
H    -1.992525  -2.146063  3.703648
H    2.591671  -2.359130  5.592547
H    -1.667204  -2.722519  6.085156
H    -0.110840  -3.051405  7.744578
O    2.484891  -0.312079  1.223341
H    0.502526  1.575691  0.015293
