24
Energy: -17146.3871187 eV PBE+vdW (tier 2 basis)
N    1.052054  0.225077  0.285078
C    0.416930  -0.080441  1.559745
C    1.242401  -1.053149  2.391944
O    1.098851  -1.214466  3.587103
H    0.470627  0.871877  -0.248174
H    1.161328  -0.619840  -0.277122
H    0.385470  0.844834  2.154679
C    -1.058204  -0.614927  1.499048
C    -1.211864  -1.922346  0.770328
C    -1.120984  -3.146510  1.452207
C    -1.402851  -1.964046  -0.616945
C    -1.207083  -4.362792  0.782671
C    -1.489866  -3.174969  -1.304198
C    -1.388160  -4.380626  -0.604172
O    -1.468491  -5.604730  -1.217103
H    -1.655315  0.168056  1.007938
H    -1.426842  -0.702877  2.530769
H    -0.981900  -3.146164  2.534437
H    -1.499517  -1.031549  -1.175273
H    -1.142039  -5.307716  1.320583
H    -1.645474  -3.181234  -2.385353
H    -1.597933  -5.469076  -2.169162
O    2.122553  -1.775281  1.652622
H    2.548310  -2.394105  2.277352
