24
Energy: -17146.4041375 eV PBE+vdW (tier 2 basis)
N    1.316640  1.149328  0.516193
C    0.345985  0.721512  1.531373
C    0.846307  -0.478141  2.337977
O    1.220176  -0.444444  3.491014
H    2.205309  1.397836  0.952274
H    1.506230  0.387967  -0.137893
H    0.247296  1.535145  2.262723
C    -1.023552  0.465979  0.874314
C    -2.105592  0.096427  1.859188
C    -2.493917  -1.234541  2.048639
C    -2.735759  1.077989  2.638921
C    -3.472295  -1.579690  2.980889
C    -3.712810  0.752026  3.573637
C    -4.083899  -0.585107  3.749186
O    -5.052701  -0.856502  4.681173
H    -0.914476  -0.328021  0.121016
H    -1.284632  1.386783  0.333185
H    -2.022080  -2.019516  1.456274
H    -2.459176  2.126009  2.509118
H    -3.761873  -2.625153  3.108927
H    -4.199842  1.520359  4.172621
H    -5.206039  -1.814436  4.700707
O    0.899273  -1.621102  1.585227
H    1.275428  -2.304706  2.172315
