24
Energy: -17146.4685404 eV PBE+vdW (tier 2 basis)
N    -0.641354  0.622199  0.251746
C    -0.038681  0.158506  1.490146
C    1.471451  -0.094494  1.386877
O    2.125709  -0.070348  0.367374
H    -0.160947  1.460110  -0.077489
H    -0.499117  -0.080549  -0.477247
H    -0.162872  0.945152  2.252321
C    -0.780586  -1.097917  2.025398
C    -0.713650  -2.291085  1.104133
C    0.338426  -3.216394  1.186845
C    -1.688634  -2.500295  0.119767
C    0.426664  -4.301673  0.320941
C    -1.614628  -3.582482  -0.756697
C    -0.552398  -4.486441  -0.660137
O    -0.422996  -5.571480  -1.488566
H    -1.826312  -0.797193  2.173565
H    -0.365881  -1.353825  3.009050
H    1.104902  -3.089048  1.952905
H    -2.524499  -1.804166  0.038108
H    1.244839  -5.016834  0.394644
H    -2.388764  -3.727032  -1.513717
H    -1.164636  -5.575756  -2.114302
O    2.027491  -0.342168  2.610651
H    2.980790  -0.480254  2.447160
