24
Energy: -17146.5595278 eV PBE+vdW (tier 2 basis)
N    0.716897  -2.030777  -0.305554
C    0.408682  -0.966956  0.664063
C    1.689631  -0.589313  1.435831
O    2.673153  -1.501546  1.308149
H    -0.099670  -2.624886  -0.461439
H    0.976074  -1.639815  -1.210827
H    0.039873  -0.044589  0.187533
C    -0.648007  -1.445706  1.688212
C    -1.964483  -1.804176  1.047300
C    -2.846175  -0.809410  0.601787
C    -2.332659  -3.141746  0.841907
C    -4.045013  -1.133938  -0.027518
C    -3.527919  -3.484395  0.212215
C    -4.389485  -2.476543  -0.228028
O    -5.553600  -2.859194  -0.839734
H    -0.772228  -0.642055  2.426138
H    -0.244730  -2.316957  2.226565
H    -2.595929  0.241809  0.755249
H    -1.676372  -3.938159  1.198510
H    -4.720346  -0.342033  -0.358962
H    -3.808676  -4.526085  0.063185
H    -6.057172  -2.065784  -1.081999
O    1.785411  0.407733  2.115862
H    2.288113  -2.167002  0.669486
