24
Energy: -17146.3424632 eV PBE+vdW (tier 2 basis)
N    -0.678060  0.894514  0.425927
C    -0.285846  0.540953  1.782604
C    1.225096  0.727408  2.054153
O    2.041843  0.918744  1.183078
H    -0.472463  1.880359  0.257497
H    -0.083774  0.387824  -0.234904
H    -0.826756  1.211955  2.471170
C    -0.738723  -0.913662  2.084856
C    -0.626852  -1.336247  3.529469
C    -1.462298  -0.778699  4.513910
C    0.318625  -2.284485  3.942500
C    -1.358738  -1.144051  5.852705
C    0.432687  -2.664641  5.278719
C    -0.406004  -2.092977  6.240919
O    -0.345136  -2.418634  7.568422
H    -0.158270  -1.600165  1.450137
H    -1.782236  -0.974772  1.744870
H    -2.220330  -0.048021  4.225384
H    0.987223  -2.729846  3.204821
H    -2.012807  -0.710199  6.607741
H    1.179808  -3.404312  5.573774
H    0.353437  -3.079602  7.699388
O    1.614236  0.683848  3.358391
H    0.863665  0.390819  3.913490
