24
Energy: -17146.421194 eV PBE+vdW (tier 2 basis)
N    0.893910  -1.909915  1.587044
C    0.293613  -0.599572  1.381983
C    1.014806  0.516597  2.138759
O    1.657179  0.368113  3.157978
H    1.155222  -2.007244  2.571123
H    1.758781  -1.992522  1.053301
H    0.322093  -0.357094  0.310315
C    -1.199467  -0.600731  1.827624
C    -2.086688  -1.402604  0.912418
C    -2.763713  -0.779149  -0.142569
C    -2.239364  -2.788618  1.060814
C    -3.566993  -1.505378  -1.021109
C    -3.038427  -3.528190  0.193956
C    -3.706090  -2.886571  -0.853514
O    -4.484454  -3.659031  -1.678871
H    -1.555823  0.438322  1.868184
H    -1.239296  -0.993949  2.854906
H    -2.666693  0.299287  -0.281913
H    -1.712712  -3.299429  1.866130
H    -4.090629  -0.996393  -1.833551
H    -3.155250  -4.604285  0.315918
H    -4.885991  -3.086697  -2.351652
O    0.828913  1.734820  1.555248
H    1.282072  2.383232  2.129478
