24
Energy: -17146.4115801 eV PBE+vdW (tier 2 basis)
N    1.667207  0.162227  1.075124
C    0.214794  0.192813  1.034898
C    -0.308853  -0.392088  2.336009
O    0.309241  -1.122845  3.078438
H    2.060562  0.274286  0.142098
H    1.985862  -0.732199  1.451005
H    -0.124552  1.240731  0.993482
C    -0.465841  -0.533482  -0.180261
C    -0.220764  -2.016657  -0.243810
C    -1.099290  -2.920082  0.368640
C    0.914676  -2.542958  -0.877728
C    -0.854251  -4.291435  0.360228
C    1.176689  -3.910126  -0.894553
C    0.290687  -4.791339  -0.268618
O    0.589051  -6.128913  -0.312275
H    -0.078964  -0.044557  -1.087298
H    -1.544326  -0.322942  -0.144319
H    -1.997725  -2.545592  0.861893
H    1.608251  -1.868698  -1.382487
H    -1.555961  -4.975687  0.842282
H    2.059212  -4.309643  -1.392361
H    -0.101264  -6.617690  0.163231
O    -1.603627  -0.028735  2.566222
H    -1.859815  -0.477387  3.395159
