24
Energy: -17146.4055003 eV PBE+vdW (tier 2 basis)
N    -0.390450  0.220870  -0.017350
C    -0.281219  0.121888  1.443318
C    1.053911  0.659441  1.961923
O    1.205281  1.698367  2.568797
H    0.356232  -0.312113  -0.466604
H    -0.289525  1.190530  -0.319434
H    -1.042270  0.782617  1.880268
C    -0.552673  -1.326025  1.893562
C    -0.523603  -1.506868  3.391575
C    0.596185  -2.046668  4.038910
C    -1.607229  -1.109684  4.185466
C    0.643117  -2.186369  5.423568
C    -1.577235  -1.240983  5.572111
C    -0.447172  -1.779399  6.196970
O    -0.355995  -1.936066  7.556422
H    0.186839  -1.989876  1.422242
H    -1.535446  -1.599911  1.483579
H    1.453252  -2.364373  3.443647
H    -2.498239  -0.691673  3.713364
H    1.516186  -2.609389  5.918729
H    -2.435481  -0.927357  6.170588
H    -1.173522  -1.607827  7.963119
O    2.106379  -0.139112  1.603272
H    2.905151  0.311003  1.939231
