24
Energy: -17146.416508 eV PBE+vdW (tier 2 basis)
N    -0.265824  0.326302  0.172460
C    -0.279867  0.309766  1.628235
C    1.119418  0.631937  2.131694
O    2.028243  1.051367  1.445584
H    0.403804  1.018296  -0.163452
H    -1.187609  0.544191  -0.199652
H    -0.920044  1.101106  2.075446
C    -0.803679  -1.048593  2.164006
C    -2.231277  -1.307100  1.752270
C    -2.537100  -2.015770  0.581093
C    -3.298647  -0.810845  2.511916
C    -3.853594  -2.223893  0.177505
C    -4.622370  -1.009938  2.122401
C    -4.903690  -1.718965  0.949760
O    -6.183223  -1.952961  0.513463
H    -0.720680  -1.052603  3.258481
H    -0.147318  -1.838244  1.772590
H    -1.722966  -2.406912  -0.029640
H    -3.094891  -0.261421  3.433087
H    -4.083336  -2.778908  -0.731199
H    -5.438569  -0.620247  2.735042
H    -6.804698  -1.554961  1.143420
O    1.243075  0.440123  3.474239
H    2.155518  0.708892  3.695757
