24
Energy: -17146.5583829 eV PBE+vdW (tier 2 basis)
N    0.221440  -0.188197  -0.173459
C    -0.266415  0.063439  1.192429
C    0.861169  0.698994  2.031162
O    2.077828  0.571246  1.465669
H    -0.252842  -0.996101  -0.581553
H    0.031942  0.606313  -0.783697
H    -1.118884  0.760653  1.222670
C    -0.688809  -1.258858  1.876632
C    -1.808534  -1.961483  1.152093
C    -1.563325  -3.090428  0.361078
C    -3.127530  -1.483936  1.218019
C    -2.589063  -3.722414  -0.344613
C    -4.160688  -2.101276  0.522828
C    -3.892985  -3.226398  -0.266844
O    -4.947338  -3.795879  -0.929910
H    -0.975866  -1.013659  2.907845
H    0.189754  -1.919248  1.935969
H    -0.552305  -3.498549  0.305194
H    -3.352821  -0.612028  1.834784
H    -2.373537  -4.605959  -0.949250
H    -5.182897  -1.730338  0.584998
H    -4.628165  -4.566926  -1.425318
O    0.674217  1.225144  3.105278
H    1.879758  0.128759  0.591653
