24
Energy: -17146.4360233 eV PBE+vdW (tier 2 basis)
N    -0.677920  0.284135  0.117338
C    -0.179478  0.015266  1.478759
C    1.350215  0.215119  1.489210
O    1.907770  0.083297  0.264142
H    -1.540940  -0.226009  -0.069798
H    -0.871950  1.275825  -0.020180
H    -0.597419  0.688537  2.243052
C    -0.529825  -1.447249  1.859773
C    -0.186527  -1.841759  3.272288
C    1.012067  -2.496201  3.574163
C    -1.057269  -1.543732  4.329549
C    1.336998  -2.838982  4.884604
C    -0.748931  -1.878107  5.644013
C    0.457066  -2.527781  5.925506
O    0.718346  -2.837765  7.235111
H    -0.035771  -2.120490  1.142750
H    -1.615677  -1.561776  1.705353
H    1.715444  -2.731993  2.774778
H    -2.002450  -1.037779  4.122063
H    2.281053  -3.344415  5.098770
H    -1.429957  -1.645175  6.461374
H    1.588523  -3.264226  7.285859
O    1.995633  0.430364  2.488474
H    1.122999  0.005895  -0.344954
