24
Energy: -17146.3847504 eV PBE+vdW (tier 2 basis)
N    0.078339  -1.504599  2.416147
C    -0.079689  -0.253311  1.677035
C    1.130991  0.658264  1.847778
O    1.114177  1.868956  1.784423
H    -0.700170  -2.126604  2.194910
H    0.939923  -1.978877  2.149526
H    -0.139865  -0.399812  0.573888
C    -1.368874  0.471340  2.110849
C    -2.610839  -0.311771  1.765047
C    -3.150505  -0.273350  0.472147
C    -3.247172  -1.127681  2.712042
C    -4.276938  -1.020218  0.132412
C    -4.374151  -1.880758  2.389781
C    -4.893036  -1.829703  1.093267
O    -6.005324  -2.585497  0.823121
H    -1.384414  1.457021  1.628476
H    -1.315202  0.637617  3.195778
H    -2.686850  0.359917  -0.286598
H    -2.850543  -1.171685  3.727394
H    -4.683654  -0.968056  -0.880123
H    -4.864773  -2.507513  3.133384
H    -6.258371  -2.447659  -0.103428
O    2.284633  -0.048851  2.016346
H    2.997306  0.616831  2.073397
