24
Energy: -17146.4203068 eV PBE+vdW (tier 2 basis)
N    -0.471995  0.870574  0.556594
C    0.193281  0.382958  1.756797
C    1.661810  0.146178  1.436824
O    2.223177  0.512781  0.425244
H    -1.284406  1.435507  0.794333
H    0.174982  1.431107  0.002102
H    0.209579  1.122452  2.586536
C    -0.505872  -0.890218  2.301571
C    -1.931252  -0.620690  2.713548
C    -2.229532  -0.119398  3.989772
C    -2.996339  -0.823963  1.827544
C    -3.535171  0.170575  4.374901
C    -4.310897  -0.539527  2.197405
C    -4.584344  -0.040002  3.474326
O    -5.854563  0.255613  3.900318
H    0.068030  -1.270406  3.156560
H    -0.477669  -1.652239  1.510315
H    -1.420273  0.042441  4.704651
H    -2.791974  -1.205633  0.826945
H    -3.759094  0.552579  5.370112
H    -5.126672  -0.710282  1.491151
H    -6.477116  0.056250  3.183194
O    2.313235  -0.497783  2.444241
H    3.244089  -0.564346  2.156236
