24
Energy: -17146.2946803 eV PBE+vdW (tier 2 basis)
N    1.226355  0.929020  2.713987
C    -0.074246  0.259897  2.557503
C    0.158897  -1.246783  2.694377
O    -0.120942  -1.890572  3.683939
H    1.572858  0.810463  3.666780
H    1.112396  1.932468  2.564016
H    -0.794455  0.498822  3.360464
C    -0.696177  0.651506  1.204099
C    -2.050366  0.033155  0.957884
C    -3.199457  0.532885  1.589220
C    -2.199984  -1.072300  0.112900
C    -4.450114  -0.043890  1.393886
C    -3.446366  -1.662424  -0.095637
C    -4.576688  -1.150275  0.547746
O    -5.829836  -1.682989  0.384883
H    0.006986  0.381910  0.405384
H    -0.783673  1.750622  1.196773
H    -3.117277  1.399553  2.248037
H    -1.324549  -1.482051  -0.391690
H    -5.337665  0.351927  1.885678
H    -3.539631  -2.522425  -0.762669
H    -5.770151  -2.439637  -0.219658
O    0.747123  -1.798986  1.600555
H    0.871960  -2.742896  1.818544
