24
Energy: -17146.451407 eV PBE+vdW (tier 2 basis)
N    -0.085449  1.606225  0.946692
C    -0.376884  0.173349  0.897072
C    -0.390521  -0.471032  2.285849
O    0.498424  -0.363022  3.107310
H    -0.829758  2.103903  1.436926
H    0.769372  1.759450  1.486875
H    -1.368714  0.036031  0.445126
C    0.678076  -0.536705  0.016831
C    0.442985  -2.017030  -0.147662
C    -0.460309  -2.500563  -1.102186
C    1.088450  -2.951940  0.674180
C    -0.715422  -3.864165  -1.234465
C    0.844598  -4.317811  0.556589
C    -0.063069  -4.778844  -0.400926
O    -0.269255  -6.132780  -0.481334
H    1.667252  -0.360225  0.465784
H    0.667121  -0.023585  -0.954657
H    -0.974601  -1.798934  -1.761527
H    1.797351  -2.602066  1.426233
H    -1.419850  -4.219038  -1.990190
H    1.353064  -5.038240  1.196040
H    -0.914498  -6.307932  -1.184529
O    -1.525866  -1.183027  2.515701
H    -1.426494  -1.575018  3.406266
