24
Energy: -17146.4524057 eV PBE+vdW (tier 2 basis)
N    0.675876  -0.322553  0.147079
C    0.558700  -0.479846  1.597152
C    1.598598  -1.448973  2.165862
O    1.787845  -2.578533  1.759158
H    1.566945  0.113510  -0.093328
H    0.674950  -1.244481  -0.295548
H    0.711802  0.501693  2.066038
C    -0.858249  -0.989174  1.947826
C    -1.102914  -1.147094  3.427361
C    -1.450152  -0.045754  4.223515
C    -0.953099  -2.387565  4.058610
C    -1.641147  -0.168256  5.596131
C    -1.139784  -2.528329  5.433591
C    -1.483808  -1.416282  6.207577
O    -1.684514  -1.487893  7.562796
H    -1.007453  -1.952365  1.436861
H    -1.564322  -0.274001  1.503702
H    -1.579538  0.932908  3.757498
H    -0.681909  -3.262252  3.465635
H    -1.916783  0.690448  6.206913
H    -1.021709  -3.507076  5.904161
H    -1.550171  -2.405355  7.848740
O    2.313960  -0.902092  3.184700
H    2.928596  -1.598530  3.490922
