24
Energy: -17146.3713794 eV PBE+vdW (tier 2 basis)
N    1.290268  -1.373980  2.541908
C    0.865390  -0.586417  1.388610
C    0.898281  0.931603  1.571052
O    1.279677  1.730977  0.741903
H    2.280362  -1.226548  2.735326
H    0.777308  -1.087077  3.376554
H    1.553401  -0.793267  0.557666
C    -0.564681  -0.998670  0.939392
C    -0.614330  -2.371034  0.320680
C    -0.784112  -3.522419  1.098071
C    -0.454281  -2.532436  -1.063051
C    -0.797137  -4.790080  0.518278
C    -0.463420  -3.790617  -1.658285
C    -0.635527  -4.927986  -0.863842
O    -0.642232  -6.147315  -1.493477
H    -0.927696  -0.254379  0.215772
H    -1.228503  -0.940256  1.815573
H    -0.899792  -3.429620  2.177612
H    -0.321209  -1.650712  -1.692909
H    -0.932556  -5.675787  1.143237
H    -0.344230  -3.907188  -2.734652
H    -0.768218  -6.840058  -0.825864
O    0.411033  1.316105  2.789871
H    0.444204  2.292163  2.793578
