24
Energy: -17146.5401127 eV PBE+vdW (tier 2 basis)
N    -0.887069  0.784443  1.134301
C    0.315624  -0.066275  1.188318
C    0.777141  -0.391839  -0.253096
O    0.151512  0.348398  -1.187362
H    -1.733249  0.220421  1.229881
H    -0.898969  1.457705  1.898432
H    1.128100  0.543967  1.614615
C    0.180962  -1.351533  2.029899
C    -0.070840  -1.068693  3.488230
C    -1.357339  -1.139513  4.034093
C    0.976440  -0.678681  4.338003
C    -1.599549  -0.831914  5.373917
C    0.754271  -0.367453  5.675181
C    -0.541452  -0.441448  6.199240
O    -0.706350  -0.127000  7.522922
H    1.099955  -1.936399  1.890003
H    -0.639072  -1.958320  1.613397
H    -2.191991  -1.457724  3.406452
H    1.993889  -0.625454  3.945766
H    -2.611832  -0.903014  5.777801
H    1.573883  -0.073699  6.329649
H    -1.642480  -0.231703  7.756065
O    1.632855  -1.208419  -0.511429
H    -0.485199  0.902662  -0.651447
