28
Energy: -38236.1997151 eV PBE+vdW (tier 2 basis)
C    -0.279163  1.717119  2.032635
C    -0.086056  0.279338  2.467878
O    0.796945  -0.078728  3.226200
H    -1.300246  2.078384  2.220537
H    -0.073837  1.829559  0.957909
H    0.427373  2.337869  2.588965
N    -0.991317  -0.663456  1.970831
C    -1.980249  -0.463421  0.924415
C    -3.245346  0.231362  1.470784
O    -3.919156  1.026981  0.747900
H    -0.701468  -1.619193  2.167920
H    -1.598952  0.222177  0.154468
C    -2.221326  -1.842790  0.243206
C    -3.482585  -2.058072  -0.611423
C    -3.872108  -0.878582  -1.467696
O    -5.112206  -0.572226  -1.574984
O    -2.973388  -0.083852  -1.923876
H    -2.240165  -2.610067  1.032107
H    -1.322896  -2.028958  -0.359096
H    -4.355351  -2.304268  0.005953
H    -3.316635  -2.927637  -1.265241
N    -3.564282  -0.021349  2.731810
C    -4.699995  0.534415  3.452842
H    -2.882672  -0.585657  3.239631
H    -4.361790  1.271915  4.192444
H    -5.235154  -0.269071  3.971570
H    -5.373254  1.018480  2.741070
Ca    -4.414496  1.485074  -1.350732
