28
Energy: -38235.0403074 eV PBE+vdW (tier 2 basis)
C    -0.353102  0.399008  0.116785
C    -0.666892  -0.763888  1.028477
O    -0.475067  -1.935289  0.700358
H    0.692300  0.320953  -0.205437
H    -0.514886  1.380172  0.578868
H    -0.975352  0.319870  -0.783750
N    -1.176141  -0.439653  2.265482
C    -1.598458  -1.478627  3.198506
C    -3.070814  -1.907317  2.935751
O    -3.988885  -1.541218  3.668890
H    -1.531406  0.501030  2.406715
H    -0.944695  -2.338996  2.992137
C    -1.446686  -1.031139  4.650052
C    0.026530  -0.742752  5.026094
C    0.086021  -0.294985  6.445602
O    0.334030  -1.135921  7.399390
O    -0.173290  0.934301  6.766273
H    -1.849073  -1.825214  5.292896
H    -2.070462  -0.143647  4.828756
H    0.427554  0.051653  4.382613
H    0.635733  -1.647891  4.912263
N    -3.205956  -2.687162  1.836590
C    -4.495693  -3.133938  1.338800
H    -2.366396  -2.858115  1.282074
H    -4.488579  -4.218977  1.175529
H    -4.752161  -2.635917  0.393181
H    -5.255182  -2.886408  2.086874
Ca    -0.023581  0.405590  8.823934
