28
Energy: -38236.3624237 eV PBE+vdW (tier 2 basis)
C    -0.503659  -0.516100  0.241998
C    -0.738121  -1.095555  1.615371
O    -0.232040  -2.142583  2.001649
H    -0.625268  -1.309373  -0.504175
H    0.537451  -0.171859  0.181731
H    -1.167420  0.321230  -0.003514
N    -1.585370  -0.366775  2.437044
C    -1.723613  -0.719403  3.845428
C    -3.221126  -0.884150  4.137202
O    -3.884634  -0.055244  4.837497
H    -1.887319  0.554381  2.136260
H    -1.256736  -1.716597  3.915548
C    -0.915080  0.244345  4.734793
C    -0.622910  -0.214424  6.185341
C    -1.851312  -0.017826  7.029299
O    -2.248518  1.182356  7.266372
O    -2.602803  -1.012615  7.329630
H    -1.375725  1.242351  4.752203
H    0.051064  0.349984  4.224056
H    0.183253  0.415007  6.583077
H    -0.301535  -1.262267  6.217119
N    -3.859359  -1.923933  3.598714
C    -3.349244  -2.972277  2.718069
H    -4.863522  -1.921503  3.765261
H    -2.277888  -3.132892  2.868652
H    -3.883155  -3.901985  2.940203
H    -3.513835  -2.705044  1.665658
Ca    -4.251175  0.399862  6.954253
