28
Energy: -38236.6551997 eV PBE+vdW (tier 2 basis)
C    -0.162586  -0.119682  -0.494844
C    -0.412087  0.330576  0.920726
O    0.183193  -0.180443  1.881741
H    -0.521430  -1.152643  -0.597483
H    0.917674  -0.132509  -0.679783
H    -0.655767  0.500822  -1.251554
N    -1.328426  1.331460  1.086199
C    -1.894268  1.779349  2.365612
C    -0.876618  2.515235  3.262140
O    -1.151582  3.684637  3.694697
H    -1.762568  1.704912  0.250378
H    -2.620735  2.556209  2.104921
C    -2.676493  0.621252  3.057033
C    -3.056609  0.798114  4.540765
C    -3.445690  2.207006  4.918694
O    -4.099298  2.940885  4.091169
O    -2.969907  2.721292  5.992767
H    -2.080370  -0.295868  2.978481
H    -3.579624  0.474590  2.450968
H    -3.901147  0.130290  4.767876
H    -2.237154  0.499011  5.204930
N    0.243286  1.896653  3.574155
C    1.278449  2.472829  4.421274
H    0.374788  0.967876  3.110447
H    2.153918  1.818887  4.389929
H    1.559146  3.471875  4.066253
H    0.930171  2.552336  5.459747
Ca    -2.795264  4.568051  4.824764
