28
Energy: -38236.5549428 eV PBE+vdW (tier 2 basis)
C    -0.444281  1.076821  0.166623
C    -0.708555  -0.373295  0.431067
O    0.168139  -1.245913  0.107209
H    0.628520  1.257176  0.291938
H    -1.005095  1.748242  0.823955
H    -0.701714  1.304245  -0.877831
N    -1.852765  -0.783250  0.970368
C    -3.138650  -0.103267  1.074589
C    -3.732749  -0.554732  2.430394
O    -3.435851  -1.669466  2.857680
H    -1.915409  -1.768045  1.246505
H    -2.982686  0.980466  1.019794
C    -4.097088  -0.580484  -0.051775
C    -3.595593  -0.384380  -1.490912
C    -2.424267  -1.266012  -1.876159
O    -1.437800  -0.755367  -2.519908
O    -2.383174  -2.492072  -1.502436
H    -4.315913  -1.644442  0.115823
H    -5.047387  -0.041861  0.067238
H    -3.326379  0.658236  -1.703234
H    -4.420020  -0.640782  -2.175250
N    -4.597594  0.279153  3.051950
C    -4.970046  1.635063  2.668108
H    -4.983409  -0.098923  3.912854
H    -5.696021  2.008698  3.396082
H    -5.448969  1.670341  1.679817
H    -4.109454  2.319090  2.677994
Ca    -0.176105  -2.393023  -1.721386
