28
Energy: -38235.0196925 eV PBE+vdW (tier 2 basis)
C    -0.034817  0.078818  0.060343
C    -0.274193  0.613181  1.454336
O    0.461684  1.482585  1.949417
H    0.144132  0.917100  -0.622111
H    -0.859093  -0.535654  -0.319190
H    0.878497  -0.531045  0.074284
N    -1.325722  0.072215  2.117043
C    -1.640110  0.288197  3.519293
C    -2.594152  -0.861908  3.904193
O    -3.231416  -1.456543  3.034733
H    -1.921842  -0.635531  1.683478
H    -0.709410  0.219474  4.105780
C    -2.312977  1.660056  3.790804
C    -1.276912  2.781290  3.943547
C    -1.670761  4.125402  3.475190
O    -1.059621  5.181889  3.925176
O    -2.559860  4.293695  2.543153
H    -2.938426  1.603413  4.692480
H    -2.987874  1.868783  2.951325
H    -0.404227  2.513896  3.288234
H    -0.869749  2.865139  4.959163
N    -2.715931  -1.155335  5.224446
C    -1.921218  -0.644875  6.332829
H    -3.368522  -1.910523  5.412119
H    -2.217724  -1.178731  7.240749
H    -2.090044  0.427127  6.509375
H    -0.845589  -0.813924  6.182216
Ca    -2.055003  6.356252  2.473098
