28
Energy: -38236.4537526 eV PBE+vdW (tier 2 basis)
C    -3.039158  -1.709135  0.603127
C    -1.751313  -1.031823  0.999154
O    -0.654627  -1.589736  0.975637
H    -2.997017  -1.942059  -0.468818
H    -3.933130  -1.105719  0.798389
H    -3.118488  -2.661978  1.139058
N    -1.841461  0.275907  1.405077
C    -0.640749  1.029485  1.707297
C    0.262933  0.230542  2.658028
O    -0.142607  -0.183092  3.787149
H    -2.735499  0.752704  1.422062
H    -0.056024  1.174516  0.781056
C    -1.055566  2.423871  2.247207
C    0.017802  3.243611  2.994281
C    0.192167  2.702561  4.398235
O    1.315929  2.226123  4.784498
O    -0.852284  2.560283  5.132230
H    -1.909732  2.299688  2.927000
H    -1.408660  3.002018  1.382676
H    -0.337686  4.280868  3.067690
H    0.985025  3.255519  2.477957
N    1.533183  0.101748  2.292141
C    2.540827  -0.575397  3.091789
H    1.766925  0.351753  1.337520
H    2.150716  -1.530901  3.463718
H    3.414615  -0.772253  2.464847
H    2.855518  0.059942  3.931956
Ca    0.058359  0.677952  5.775040
