28
Energy: -38234.9841424 eV PBE+vdW (tier 2 basis)
C    -0.314025  -0.638722  0.272627
C    -0.268153  -0.693604  1.783347
O    0.626064  -1.263695  2.402289
H    -0.343738  -1.664299  -0.116119
H    0.613855  -0.181797  -0.092324
H    -1.169952  -0.080614  -0.125673
N    -1.310262  -0.070809  2.433747
C    -1.385363  -0.035904  3.884542
C    -2.791723  -0.458948  4.358838
O    -3.545889  0.347442  4.915117
H    -2.026008  0.402316  1.893586
H    -0.638518  -0.776458  4.215287
C    -0.996643  1.344330  4.433586
C    -0.917901  1.354316  5.959344
C    -0.630684  2.674867  6.581820
O    -0.308392  2.745265  7.838141
O    -0.729893  3.781672  5.917493
H    -1.732682  2.087708  4.101177
H    -0.025167  1.612183  3.996109
H    -0.190347  0.632564  6.360775
H    -1.899636  1.048955  6.369396
N    -3.158972  -1.747871  4.142176
C    -2.420458  -2.810214  3.473912
H    -4.112981  -1.945459  4.431925
H    -2.745185  -3.774286  3.880468
H    -1.343077  -2.717189  3.649815
H    -2.591939  -2.812632  2.387274
Ca    -0.288481  4.860542  7.700169
