28
Energy: -38236.2223509 eV PBE+vdW (tier 2 basis)
C    0.545941  0.025950  0.208954
C    -0.177777  0.924982  1.171516
O    -0.086768  2.190692  1.045327
H    0.239678  -1.023512  0.274273
H    1.623521  0.073085  0.428087
H    0.385023  0.382632  -0.815146
N    -0.871170  0.340376  2.145213
C    -1.701862  0.879624  3.245335
C    -3.121238  1.330875  2.787692
O    -4.094267  0.956430  3.426413
H    -0.891553  -0.673247  2.090683
H    -1.901310  -0.001102  3.866712
C    -1.091077  1.966180  4.153464
C    0.358275  1.735968  4.653471
C    1.317658  2.425824  3.718406
O    2.112151  1.763869  2.960357
O    1.201970  3.698821  3.564634
H    -1.768232  2.007138  5.016503
H    -1.148598  2.952908  3.678479
H    0.610860  0.673295  4.744262
H    0.460942  2.200321  5.643313
N    -3.165632  2.152914  1.706742
C    -4.417150  2.700395  1.201429
H    -2.292027  2.478517  1.304658
H    -4.452844  2.619757  0.108430
H    -4.540567  3.753721  1.489725
H    -5.239920  2.123433  1.634340
Ca    1.736800  3.380352  1.491513
