28
Energy: -38236.2109955 eV PBE+vdW (tier 2 basis)
C    -0.377833  0.860397  -0.000451
C    0.276380  0.005795  1.037643
O    1.544004  -0.143038  1.040563
H    0.353786  1.581084  -0.376976
H    -1.258161  1.389348  0.380626
H    -0.698705  0.231224  -0.844408
N    -0.450652  -0.627519  1.965281
C    -1.857767  -1.037085  1.846634
C    -2.701191  -1.101141  3.144386
O    -3.916165  -1.087894  2.979636
H    0.115700  -1.182908  2.606644
H    -2.380260  -0.270879  1.263200
C    -1.969092  -2.374097  1.063113
C    -1.068712  -3.525450  1.563568
C    0.398197  -3.268972  1.295176
O    0.806483  -3.114318  0.090713
O    1.220566  -3.106529  2.275682
H    -1.738490  -2.182672  0.005855
H    -3.019916  -2.685211  1.112773
H    -1.350414  -4.433019  1.011054
H    -1.215007  -3.727239  2.632082
N    -2.155443  -1.203116  4.389320
C    -0.777560  -1.295460  4.854929
H    -2.880616  -1.225298  5.101767
H    -0.801641  -1.508790  5.928078
H    -0.223552  -0.354802  4.721643
H    -0.228440  -2.125432  4.385157
Ca    2.589287  -2.062341  0.864079
