28
Energy: -38235.0628875 eV PBE+vdW (tier 2 basis)
C    0.241969  0.430406  0.366399
C    -0.047684  0.393567  1.848958
O    0.746882  0.832930  2.688911
H    0.581941  1.435158  0.090842
H    -0.617909  0.151108  -0.253278
H    1.067971  -0.261821  0.155522
N    -1.247825  -0.150293  2.209115
C    -1.555290  -0.490841  3.586206
C    -2.420183  -1.766872  3.539669
O    -3.124715  -2.004345  2.559579
H    -1.852622  -0.603704  1.524357
H    -0.599350  -0.677873  4.101614
C    -2.311506  0.626209  4.343757
C    -1.617757  1.987045  4.202890
C    -1.829575  2.956717  5.305305
O    -1.663007  4.227622  5.092592
O    -2.128605  2.580302  6.510725
H    -2.378346  0.346390  5.403949
H    -3.340342  0.691508  3.960631
H    -1.863442  2.490920  3.259208
H    -0.516947  1.834806  4.137971
N    -2.369187  -2.545047  4.649541
C    -3.142667  -3.769142  4.793039
H    -1.688100  -2.316174  5.364156
H    -3.712250  -3.759731  5.730962
H    -2.491844  -4.653740  4.777199
H    -3.836578  -3.826969  3.948999
Ca    -2.020498  4.613672  7.142123
