28
Energy: -38236.469522 eV PBE+vdW (tier 2 basis)
C    0.183954  -1.956493  0.239246
C    0.063477  -1.070800  1.457394
O    0.956671  -0.319387  1.843774
H    1.173116  -2.427581  0.228460
H    0.118886  -1.325641  -0.657658
H    -0.598413  -2.722920  0.173368
N    -1.127981  -1.130683  2.138596
C    -1.374536  -0.190340  3.215110
C    -0.355045  -0.424088  4.344408
O    0.039940  -1.582944  4.658717
H    -1.874131  -1.765100  1.874371
H    -1.158086  0.816252  2.821437
C    -2.870310  -0.194233  3.653994
C    -3.348265  -1.124048  4.790030
C    -2.783956  -2.523644  4.735381
O    -2.331729  -3.060516  5.803989
O    -2.577980  -3.089961  3.599612
H    -3.451675  -0.386188  2.741815
H    -3.126589  0.829492  3.955848
H    -3.098251  -0.714801  5.776372
H    -4.446424  -1.181245  4.748400
N    0.065928  0.646491  5.006523
C    1.035545  0.601432  6.095617
H    -0.194431  1.554718  4.635807
H    0.773473  -0.200333  6.793473
H    2.047089  0.423556  5.707000
H    1.015050  1.558569  6.623981
Ca    -0.637325  -3.654564  4.532935
