28
Energy: -38234.7949955 eV PBE+vdW (tier 2 basis)
C    0.180229  -1.016878  2.481304
C    -0.500863  0.330791  2.360392
O    0.039306  1.367222  2.722527
H    0.801424  -1.185996  1.589844
H    0.851783  -0.975105  3.344293
H    -0.506234  -1.863888  2.590409
N    -1.782601  0.382281  1.822795
C    -2.559050  -0.652544  1.150403
C    -3.046160  -1.812566  2.069407
O    -3.300468  -2.916640  1.593691
H    -2.118000  1.339169  1.750008
H    -3.487443  -0.150004  0.833082
C    -1.903315  -1.246302  -0.109874
C    -1.522587  -0.153329  -1.130087
C    -0.873274  -0.775780  -2.318692
O    0.318707  -1.279099  -2.230858
O    -1.493231  -0.866680  -3.451492
H    -2.616143  -1.957099  -0.545805
H    -1.010679  -1.822625  0.163707
H    -0.806067  0.545611  -0.672463
H    -2.406541  0.404630  -1.463228
N    -3.207588  -1.474338  3.370358
C    -3.707516  -2.399789  4.372704
H    -2.929739  -0.539208  3.648897
H    -4.608574  -2.000180  4.855633
H    -2.948574  -2.594869  5.142288
H    -3.956862  -3.339127  3.869421
Ca    0.173654  -1.928188  -4.252675
