28
Energy: -38234.6410634 eV PBE+vdW (tier 2 basis)
C    -0.069986  -0.083336  0.265096
C    -0.191006  -0.148638  1.771361
O    0.784418  -0.252866  2.504836
H    0.971883  0.142419  0.023474
H    -0.323311  -1.059321  -0.172778
H    -0.729393  0.657365  -0.201691
N    -1.456344  -0.120302  2.341695
C    -2.776757  0.002507  1.736411
C    -3.026569  -0.961728  0.543323
O    -3.361425  -0.527970  -0.557117
H    -1.412789  -0.250652  3.348384
H    -3.485410  -0.292671  2.527635
C    -3.128969  1.435271  1.293756
C    -2.922106  2.454949  2.431410
C    -3.139216  3.840057  1.926514
O    -2.304969  4.373216  1.088872
O    -4.174596  4.532315  2.281225
H    -4.171408  1.446697  0.949416
H    -2.513091  1.709988  0.429021
H    -1.883107  2.381792  2.788897
H    -3.606306  2.272701  3.269432
N    -2.873276  -2.292224  0.780248
C    -2.524163  -2.976479  2.017362
H    -3.040949  -2.862076  -0.043861
H    -2.829357  -4.024354  1.928651
H    -3.061896  -2.552583  2.875645
H    -1.446064  -2.943842  2.227265
Ca    -3.532445  6.104585  0.989028
