28
Energy: -38234.5090447 eV PBE+vdW (tier 2 basis)
C    0.061365  0.225586  0.127673
C    0.008794  0.234063  1.635398
O    0.920579  0.695467  2.328946
H    -0.248446  1.217760  -0.230580
H    -0.597593  -0.524862  -0.325211
H    1.092326  0.058800  -0.199619
N    -1.123270  -0.295094  2.200891
C    -1.469927  -0.024497  3.601055
C    -1.391703  1.516159  3.845572
O    -2.124652  2.203421  3.140984
H    -1.899303  -0.476389  1.574293
H    -2.557883  -0.168595  3.653641
C    -0.875908  -1.046771  4.596495
C    0.549032  -1.518678  4.294985
C    1.291476  -2.127634  5.426193
O    2.321178  -2.885454  5.194357
O    0.976570  -1.900429  6.664327
H    -1.534275  -1.928122  4.591530
H    -0.943034  -0.633948  5.610489
H    1.166656  -0.668718  3.939278
H    0.584043  -2.226715  3.455831
N    -0.676700  2.083864  4.865976
C    0.576955  1.659483  5.475760
H    -0.839223  3.088121  4.868655
H    0.434819  0.848204  6.202322
H    0.985642  2.515772  6.022459
H    1.310474  1.357832  4.715461
Ca    2.628519  -3.100530  7.278644
