28
Energy: -38235.6583971 eV PBE+vdW (tier 2 basis)
C    0.216010  0.270868  0.388021
C    -0.017297  0.385515  1.877304
O    0.903426  0.618393  2.647567
H    -0.009783  1.230700  -0.097523
H    -0.379078  -0.503785  -0.107454
H    1.279528  0.064841  0.237761
N    -1.295818  0.252942  2.416495
C    -2.617304  -0.110605  1.925466
C    -3.048369  -1.551556  2.266587
O    -4.294389  -1.769590  2.441345
H    -1.254195  0.427674  3.418644
H    -3.311955  0.461014  2.559611
C    -2.962888  0.333900  0.463007
C    -3.056259  -0.729566  -0.651390
C    -4.328033  -1.534245  -0.497801
O    -4.279265  -2.802562  -0.329226
O    -5.439910  -0.907470  -0.351977
H    -2.228985  1.095749  0.184348
H    -3.930965  0.846171  0.492386
H    -3.096672  -0.201948  -1.615252
H    -2.202501  -1.416258  -0.684080
N    -2.201503  -2.561229  2.444452
C    -0.752344  -2.674442  2.253789
H    -2.673258  -3.416168  2.730585
H    -0.453759  -2.324666  1.261585
H    -0.196853  -2.124671  3.020495
H    -0.500104  -3.736320  2.326664
Ca    -5.914890  -2.439548  1.125684
