28
Energy: -38236.4635368 eV PBE+vdW (tier 2 basis)
C    -0.434213  0.605978  0.656013
C    -0.111312  0.377472  2.095229
O    1.044925  -0.051123  2.428787
H    0.492689  0.722862  0.088902
H    -1.083596  1.472071  0.492999
H    -0.978761  -0.275465  0.286285
N    -1.007461  0.595991  3.063407
C    -2.218065  1.427872  3.043407
C    -3.228935  0.881783  1.990067
O    -3.198964  -0.302291  1.677313
H    -0.683091  0.320987  3.988061
H    -2.703328  1.227978  4.011821
C    -1.854442  2.930884  2.994189
C    -0.885651  3.391948  4.107543
C    0.510597  2.820045  3.975002
O    1.190703  3.040996  2.910285
O    0.980391  2.057729  4.895905
H    -2.773830  3.521287  3.115699
H    -1.430700  3.193064  2.014615
H    -0.796327  4.486307  4.046871
H    -1.274659  3.141891  5.102605
N    -4.127194  1.778118  1.512051
C    -5.206966  1.398606  0.609624
H    -4.090366  2.737893  1.832098
H    -6.184094  1.536907  1.090259
H    -5.170491  1.998244  -0.308376
H    -5.079544  0.341961  0.357419
Ca    2.450221  1.284357  3.423954
