28
Energy: -38236.6712058 eV PBE+vdW (tier 2 basis)
C    -1.801404  -0.338791  -0.938808
C    -0.961024  -0.043923  0.278405
O    0.263959  -0.036531  0.282424
H    -1.327449  -1.138391  -1.517502
H    -1.822812  0.557377  -1.574706
H    -2.834359  -0.618773  -0.699633
N    -1.656244  0.221282  1.453738
C    -0.924329  0.798353  2.571964
C    0.004339  -0.235148  3.223563
O    1.022270  0.137700  3.879316
H    -2.655354  0.392140  1.402263
H    -0.240485  1.569191  2.181718
C    -1.886659  1.431015  3.621479
C    -1.582334  2.912750  3.949499
C    -0.165288  3.005235  4.457117
O    0.774044  3.320690  3.640031
O    0.115480  2.572933  5.630314
H    -1.869716  0.850494  4.553421
H    -2.916159  1.370449  3.242623
H    -2.279160  3.253471  4.725083
H    -1.694724  3.541785  3.058567
N    -0.326759  -1.511852  3.114266
C    0.450291  -2.623230  3.643106
H    -1.116921  -1.703127  2.501115
H    1.221322  -2.935053  2.925373
H    0.932763  -2.321183  4.577264
H    -0.219607  -3.465962  3.839383
Ca    2.010321  1.877097  4.745616
