28
Energy: -38236.5183412 eV PBE+vdW (tier 2 basis)
C    -0.334974  -0.892926  0.525756
C    -0.250560  -0.002303  1.727245
O    0.812327  0.105900  2.382092
H    -1.321224  -0.887805  0.049394
H    -0.081426  -1.918650  0.822060
H    0.419363  -0.570671  -0.203508
N    -1.371770  0.690806  2.079734
C    -1.283062  1.600417  3.217109
C    -1.510585  0.823638  4.529807
O    -0.497471  0.341277  5.098148
H    -2.219297  0.578632  1.533714
H    -0.209824  1.765034  3.193404
C    -1.752792  3.055224  3.053113
C    -0.963087  4.000174  4.023908
C    0.430330  3.441133  4.318442
O    1.227850  3.196833  3.342192
O    0.681877  2.995361  5.483745
H    -2.829072  3.205325  3.192960
H    -1.515301  3.330308  2.016707
H    -1.490243  4.115517  4.977156
H    -0.882242  4.988655  3.554659
N    -2.732650  0.616628  5.026847
C    -4.020553  1.045851  4.495631
H    -2.738878  0.090267  5.898898
H    -4.337042  2.004685  4.927901
H    -3.983553  1.139460  3.406257
H    -4.771884  0.287399  4.739645
Ca    1.551933  1.176510  4.387460
