28
Energy: -38236.7342379 eV PBE+vdW (tier 2 basis)
C    0.105955  1.238886  0.546579
C    -0.086230  1.014918  2.016569
O    0.929512  0.943692  2.779400
H    -0.833610  1.225171  -0.014604
H    0.775250  0.463335  0.152991
H    0.600105  2.207416  0.392611
N    -1.332829  0.905212  2.467060
C    -1.757557  0.508327  3.806703
C    -2.836750  -0.574585  3.553154
O    -3.421014  -0.581584  2.466483
H    -2.095999  0.784008  1.788929
H    -0.885180  0.108503  4.334895
C    -2.396580  1.654368  4.634709
C    -1.608399  2.969958  4.712113
C    -0.140859  2.793719  5.012708
O    0.259243  1.807353  5.732950
O    0.712963  3.550147  4.427809
H    -2.562000  1.263062  5.646600
H    -3.388861  1.877439  4.217332
H    -2.048071  3.600819  5.500277
H    -1.683650  3.546964  3.782638
N    -3.123541  -1.447480  4.543531
C    -2.552553  -1.547864  5.878463
H    -3.890992  -2.074805  4.313542
H    -2.420324  -2.604303  6.139905
H    -3.198863  -1.079645  6.634985
H    -1.569323  -1.068097  5.919337
Ca    2.040157  1.809067  4.420330
