28
Energy: -38235.0515859 eV PBE+vdW (tier 2 basis)
C    -0.434126  0.221680  -0.219320
C    -0.108747  0.094819  1.251247
O    1.058322  0.059316  1.661777
H    0.060952  1.117024  -0.614502
H    -1.506845  0.277148  -0.437500
H    -0.008715  -0.642066  -0.745916
N    -1.179370  0.034992  2.096706
C    -1.148370  -0.202043  3.541584
C    -0.545524  0.905868  4.439547
O    -0.996263  1.034173  5.587347
H    -2.099014  0.135273  1.684554
H    -2.202168  -0.235574  3.847897
C    -0.492868  -1.559947  3.904160
C    -0.807343  -1.957741  5.351773
C    0.225121  -2.762239  6.051459
O    1.479054  -2.697490  5.727998
O    -0.103160  -3.511143  7.060831
H    0.590007  -1.489275  3.747988
H    -0.871431  -2.324449  3.211852
H    -0.898267  -1.027382  5.959370
H    -1.774711  -2.464588  5.463085
N    0.471107  1.629531  3.934684
C    1.141283  2.659458  4.709531
H    0.894824  1.285969  3.065292
H    1.520948  3.433531  4.033686
H    0.426951  3.104299  5.409696
H    1.984094  2.252723  5.289417
Ca    1.945966  -3.959616  7.374000
