28
Energy: -38236.6666504 eV PBE+vdW (tier 2 basis)
C    -1.312296  0.827978  -1.837879
C    -0.898225  -0.245371  -0.880837
O    -0.414677  -1.338020  -1.332073
H    -2.279625  0.550848  -2.281174
H    -0.576770  0.874887  -2.648578
H    -1.409973  1.813798  -1.372907
N    -1.050182  -0.093711  0.430958
C    -1.909008  0.831503  1.163210
C    -1.484191  0.633549  2.640626
O    -0.861525  -0.385543  2.950638
H    -0.681138  -0.816406  1.071105
H    -1.717007  1.865367  0.844849
C    -3.413254  0.502328  0.954340
C    -3.819064  -0.949594  1.281168
C    -3.249195  -1.966917  0.313469
O    -2.514400  -2.922961  0.747683
O    -3.447039  -1.827272  -0.949094
H    -3.683557  0.728266  -0.086098
H    -4.006830  1.182258  1.579404
H    -4.914876  -1.015148  1.211830
H    -3.528813  -1.238352  2.298263
N    -1.843741  1.570947  3.544255
C    -2.553428  2.826171  3.341894
H    -1.573832  1.332338  4.495382
H    -2.189087  3.560959  4.068038
H    -3.639268  2.715782  3.477030
H    -2.361651  3.231779  2.342505
Ca    -1.672350  -3.125464  -1.282007
