28
Energy: -38236.9027231 eV PBE+vdW (tier 2 basis)
C    0.084959  1.274235  0.911971
C    -0.150865  0.315103  2.036730
O    0.545725  0.361513  3.084981
H    -0.620439  1.158254  0.083193
H    1.098645  1.086876  0.529520
H    0.067056  2.305030  1.284064
N    -1.106229  -0.651838  1.914613
C    -2.482690  -0.373567  1.495046
C    -2.923741  0.989361  2.083476
O    -2.322311  1.493070  3.062883
H    -1.088266  -1.314137  2.705430
H    -2.551326  -0.330980  0.397285
C    -3.404950  -1.528460  1.999058
C    -3.938040  -1.461440  3.453669
C    -2.899443  -1.076305  4.497142
O    -1.713349  -1.574252  4.412195
O    -3.143221  -0.147628  5.325247
H    -2.846369  -2.460713  1.839475
H    -4.276175  -1.581172  1.333294
H    -4.341379  -2.452658  3.707644
H    -4.769533  -0.751649  3.540133
N    -3.982044  1.578164  1.528871
C    -4.567761  2.817700  2.036839
H    -4.403094  1.142328  0.715077
H    -4.765656  2.726994  3.110899
H    -5.507283  3.001548  1.509101
H    -3.889582  3.664158  1.871141
Ca    -1.028639  0.559465  4.781023
