28
Energy: -38234.7358793 eV PBE+vdW (tier 2 basis)
C    -0.450129  -0.853660  -0.006069
C    -0.756130  0.170259  1.071446
O    -0.297759  1.304520  1.050924
H    0.267990  -0.404416  -0.696498
H    -1.352661  -1.127291  -0.571057
H    -0.019461  -1.776888  0.405970
N    -1.601696  -0.215774  2.094497
C    -2.176246  -1.526611  2.350362
C    -3.628770  -1.350482  2.860626
O    -3.935470  -1.648359  4.019366
H    -1.730548  0.503056  2.803505
H    -2.211468  -2.068036  1.392649
C    -1.333380  -2.322385  3.361976
C    -1.848480  -3.742328  3.593344
C    -1.215343  -4.472800  4.727233
O    -1.399865  -5.750412  4.863346
O    -0.516308  -3.859706  5.626827
H    -1.333437  -1.777467  4.314183
H    -0.296832  -2.341717  2.997131
H    -1.788027  -4.386199  2.703170
H    -2.921421  -3.692375  3.859806
N    -4.537399  -0.847691  1.986773
C    -4.338138  -0.417924  0.609531
H    -5.454452  -0.704353  2.399973
H    -5.320215  -0.301292  0.140497
H    -3.787552  -1.172371  0.032493
H    -3.800458  0.537616  0.543336
Ca    -0.358302  -5.684161  6.714394
