28
Energy: -38234.9856884 eV PBE+vdW (tier 2 basis)
C    -0.083749  0.024796  -0.023887
C    -0.492152  0.487829  1.357242
O    -0.461833  1.681321  1.682603
H    -0.011864  -1.064214  -0.127312
H    0.881256  0.477805  -0.279024
H    -0.818026  0.400459  -0.748879
N    -0.903091  -0.493017  2.215555
C    -1.403407  -0.306381  3.583429
C    -2.835222  0.289647  3.707234
O    -3.635854  -0.242452  4.472431
H    -1.003747  -1.425662  1.832415
H    -1.517339  -1.318982  3.991243
C    -0.445657  0.484086  4.496812
C    0.956879  -0.114648  4.543267
C    1.943314  0.654261  5.360629
O    3.115157  0.154608  5.606934
O    1.669646  1.826897  5.830314
H    -0.893243  0.482836  5.500361
H    -0.389519  1.525732  4.162649
H    1.392305  -0.176674  3.529901
H    0.970309  -1.152117  4.914457
N    -3.075947  1.399917  2.969148
C    -4.354903  2.088547  2.993709
H    -2.297044  1.794825  2.438286
H    -4.719100  2.258343  1.972526
H    -4.277148  3.057984  3.506367
H    -5.071317  1.462236  3.534439
Ca    3.620232  1.919557  6.682775
