28
Energy: -38236.6446423 eV PBE+vdW (tier 2 basis)
C    -1.181956  -0.818134  -0.805049
C    -0.386790  -0.983480  0.453007
O    0.890454  -1.003621  0.397463
H    -2.175826  -0.391718  -0.638287
H    -1.291838  -1.797853  -1.291922
H    -0.617590  -0.170345  -1.483936
N    -0.980138  -1.141538  1.632571
C    -2.345310  -1.542548  1.955598
C    -2.723562  -0.734716  3.221044
O    -1.839502  -0.452766  4.027683
H    -0.381134  -1.121258  2.463645
H    -3.001909  -1.316454  1.105561
C    -2.397745  -3.054534  2.307459
C    -1.881882  -4.017470  1.226823
C    -0.388134  -3.948822  0.979656
O    0.428713  -3.828100  1.961019
O    0.049661  -3.940394  -0.227356
H    -3.443704  -3.303845  2.534013
H    -1.828367  -3.209044  3.234785
H    -2.098586  -5.045719  1.557681
H    -2.395692  -3.884170  0.266125
N    -4.034549  -0.442334  3.366607
C    -4.570387  0.238488  4.538771
H    -4.675731  -0.699191  2.624513
H    -3.743458  0.413930  5.232944
H    -5.015089  1.201815  4.258986
H    -5.331033  -0.380543  5.030693
Ca    1.880084  -2.948636  0.529903
