28
Energy: -38236.5349803 eV PBE+vdW (tier 2 basis)
C    -0.425205  0.327609  0.863094
C    -0.197444  -0.669132  1.953915
O    0.984598  -0.948970  2.337526
H    0.387783  1.060211  0.879489
H    -1.389806  0.839217  0.944107
H    -0.387305  -0.191380  -0.107309
N    -1.234185  -1.298558  2.525208
C    -2.563261  -1.544846  1.940736
C    -3.744666  -0.852593  2.665568
O    -4.882082  -1.090367  2.280563
H    -0.959361  -1.979651  3.235781
H    -2.565020  -1.137458  0.920257
C    -2.801893  -3.065545  1.875476
C    -1.892268  -3.826250  0.892031
C    -0.416412  -3.733001  1.206795
O    0.015058  -4.016857  2.387159
O    0.400889  -3.300169  0.316924
H    -3.848559  -3.202493  1.577378
H    -2.704904  -3.490566  2.886596
H    -2.166449  -4.891643  0.928879
H    -2.045847  -3.483866  -0.138766
N    -3.422982  -0.005174  3.674767
C    -4.428374  0.731132  4.428187
H    -2.445116  0.124820  3.905075
H    -5.411275  0.447855  4.039438
H    -4.376780  0.478983  5.494946
H    -4.292882  1.813590  4.307424
Ca    1.876749  -2.913899  1.912757
