28
Energy: -38236.3855288 eV PBE+vdW (tier 2 basis)
C    -0.491270  0.060619  0.017282
C    -0.321697  0.137662  1.505762
O    0.837223  0.224759  2.005314
H    0.044817  -0.822234  -0.355220
H    -0.030269  0.942799  -0.444872
H    -1.538404  -0.001079  -0.297207
N    -1.422865  0.107575  2.263648
C    -1.442838  0.063074  3.733834
C    -2.471892  -0.978262  4.234370
O    -2.077073  -1.912899  4.918789
H    -2.303950  0.000695  1.770744
H    -0.488704  -0.386415  4.029511
C    -1.576899  1.459403  4.410738
C    -0.597811  1.646096  5.593106
C    0.809960  1.531946  5.066457
O    1.477459  0.452621  5.259350
O    1.263787  2.439427  4.278498
H    -1.384383  2.240276  3.662743
H    -2.596537  1.616142  4.783125
H    -0.762763  0.888921  6.368589
H    -0.750084  2.643789  6.024191
N    -3.785689  -0.847038  3.873841
C    -4.508563  0.289994  3.318948
H    -4.357014  -1.593432  4.264922
H    -5.083600  0.821098  4.092244
H    -5.206853  -0.049928  2.543093
H    -3.828396  1.018776  2.865983
Ca    2.445557  0.850821  3.330572
