28
Energy: -38234.949493 eV PBE+vdW (tier 2 basis)
C    -0.139972  -0.302549  0.261465
C    -0.172651  -0.505932  1.759995
O    0.789659  -0.925097  2.397528
H    0.766373  0.253545  -0.003333
H    -1.017989  0.222741  -0.133403
H    -0.069768  -1.285138  -0.223747
N    -1.366639  -0.198965  2.375713
C    -1.590728  -0.464068  3.788673
C    -2.946615  -1.181038  3.975515
O    -3.910535  -0.595604  4.468710
H    -2.150627  0.110401  1.811289
H    -0.762189  -1.122272  4.091653
C    -1.558556  0.800105  4.656983
C    -0.184611  1.507973  4.584871
C    -0.208798  2.703393  5.471333
O    0.179747  2.625818  6.705740
O    -0.673104  3.838271  5.048371
H    -1.777297  0.507837  5.693303
H    -2.359665  1.481982  4.341875
H    0.013744  1.833663  3.555795
H    0.614204  0.831043  4.911081
N    -3.017643  -2.473873  3.557232
C    -1.999110  -3.279175  2.899698
H    -3.947374  -2.873140  3.653199
H    -2.189319  -4.335957  3.116462
H    -0.997617  -3.037877  3.273172
H    -2.000622  -3.141676  1.807707
Ca    -0.410265  4.647483  6.997667
