28
Energy: -38235.9841451 eV PBE+vdW (tier 2 basis)
C    0.460221  0.252490  -0.099587
C    0.210832  -0.304617  1.284719
O    1.034332  -0.987091  1.874327
H    0.250056  1.326228  -0.180287
H    -0.145264  -0.283209  -0.845174
H    1.514252  0.079751  -0.332628
N    -1.020818  -0.083185  1.897260
C    -2.154536  0.776584  1.574809
C    -2.562881  0.683141  0.095226
O    -2.644896  1.682439  -0.677867
H    -1.048865  -0.516614  2.817840
H    -3.016628  0.292509  2.071584
C    -2.105915  2.175627  2.238916
C    -0.898504  3.105422  1.990676
C    -1.044047  3.801884  0.665132
O    -2.084567  4.525219  0.456827
O    -0.253355  3.530210  -0.308623
H    -2.137856  1.968164  3.317738
H    -3.033834  2.717546  2.007798
H    0.056118  2.569963  2.041592
H    -0.900192  3.867735  2.781708
N    -2.908803  -0.518125  -0.377064
C    -2.944800  -1.805913  0.312491
H    -3.180781  -0.512706  -1.357146
H    -3.562867  -2.487380  -0.279424
H    -3.399310  -1.707267  1.305196
H    -1.940331  -2.231591  0.423683
Ca    -2.078654  3.624379  -1.525103
