28
Energy: -38236.7590544 eV PBE+vdW (tier 2 basis)
C    -1.651020  0.488926  -1.508883
C    -1.268434  -0.087253  -0.181975
O    -0.488494  -1.097544  -0.135366
H    -0.769513  0.480339  -2.159605
H    -2.050310  1.505748  -1.444531
H    -2.410781  -0.159173  -1.969009
N    -1.747456  0.417974  0.950675
C    -2.919087  1.259308  1.169499
C    -2.822621  1.642204  2.671163
O    -2.102691  0.979340  3.419980
H    -1.400918  0.051605  1.852581
H    -2.864835  2.167100  0.550711
C    -4.237822  0.501985  0.854380
C    -4.424179  -0.832873  1.604671
C    -3.453781  -1.910484  1.165196
O    -3.371729  -2.226839  -0.078121
O    -2.668615  -2.453632  2.020342
H    -4.295399  0.321211  -0.227672
H    -5.079345  1.164002  1.101406
H    -5.437727  -1.201225  1.388223
H    -4.336203  -0.708275  2.690398
N    -3.591708  2.678776  3.060874
C    -3.663215  3.143554  4.440941
H    -4.109083  3.192259  2.355868
H    -4.704888  3.165559  4.783585
H    -3.231082  4.147882  4.536396
H    -3.091441  2.448882  5.062601
Ca    -1.350122  -3.046692  0.352674
