28
Energy: -38236.318379 eV PBE+vdW (tier 2 basis)
C    -0.433753  0.165369  2.128234
C    -1.540829  0.111965  3.129138
O    -1.401886  0.693551  4.257214
H    0.465316  0.537062  2.625795
H    -0.702945  0.850206  1.311321
H    -0.234086  -0.813542  1.679048
N    -2.700950  -0.523849  2.898866
C    -3.422432  -0.881932  1.656560
C    -2.507043  -1.126612  0.435277
O    -2.349167  -0.268597  -0.427822
H    -3.335953  -0.439729  3.693967
H    -3.927891  -1.832724  1.883008
C    -4.540318  0.149315  1.369204
C    -4.130631  1.625862  1.245789
C    -3.641730  2.254548  2.528592
O    -2.604225  3.010713  2.507288
O    -4.212909  1.987621  3.652014
H    -5.299448  0.050109  2.158713
H    -5.022016  -0.158166  0.431522
H    -5.022399  2.196522  0.939792
H    -3.374270  1.770960  0.468400
N    -1.913302  -2.349457  0.365330
C    -2.057004  -3.481199  1.273748
H    -1.385217  -2.490692  -0.492048
H    -1.882166  -3.186569  2.316488
H    -1.301301  -4.228864  1.013567
H    -3.044374  -3.959749  1.193860
Ca    -2.349679  2.629815  4.656496
