28
Energy: -38234.8995787 eV PBE+vdW (tier 2 basis)
C    -1.196977  -1.352471  1.951000
C    -0.204213  -0.221572  1.550716
O    0.991851  -0.408663  1.690173
H    -0.591560  -2.242037  2.153151
H    -1.708063  -1.014501  2.872329
H    -1.902189  -1.536303  1.119293
N    -0.749117  0.928273  1.076661
C    -2.146396  1.259735  0.862629
C    -2.159698  2.334420  -0.250108
O    -1.229930  3.129615  -0.339168
H    -0.098405  1.669427  0.800976
H    -2.685822  0.368808  0.509646
C    -2.838047  1.822785  2.141558
C    -4.336345  1.450188  2.281032
C    -4.438913  -0.032287  2.472173
O    -4.627132  -0.817658  1.463597
O    -4.185035  -0.551430  3.625086
H    -2.744172  2.916732  2.157400
H    -2.297246  1.458825  3.025664
H    -4.909929  1.755696  1.397690
H    -4.747820  1.954229  3.164069
N    -3.269480  2.350373  -1.029210
C    -3.472734  3.331405  -2.088091
H    -3.928289  1.584363  -0.947739
H    -4.478416  3.762920  -2.019295
H    -3.341019  2.878558  -3.079816
H    -2.728251  4.122963  -1.961692
Ca    -3.758638  -2.417131  2.643951
