28
Energy: -38234.6383763 eV PBE+vdW (tier 2 basis)
C    0.807733  0.090809  1.172517
C    0.045161  -1.116446  1.693269
O    0.605491  -2.157731  2.006411
H    0.383449  0.490703  0.241541
H    1.840044  -0.222664  0.997450
H    0.814033  0.901747  1.915763
N    -1.323243  -0.992306  1.824872
C    -2.164922  0.132188  1.449265
C    -3.263699  0.343399  2.520002
O    -4.459188  0.239179  2.234965
H    -1.780721  -1.848180  2.132214
H    -1.529013  1.029324  1.436502
C    -2.778916  -0.083738  0.052289
C    -3.659549  1.043058  -0.490494
C    -2.988308  2.296890  -0.926986
O    -1.734241  2.536213  -0.694357
O    -3.667328  3.200697  -1.565695
H    -3.403210  -0.985908  0.095462
H    -1.955986  -0.300009  -0.643206
H    -4.414841  1.322042  0.267433
H    -4.260159  0.701468  -1.347606
N    -2.859040  0.650545  3.781850
C    -1.508533  0.782097  4.309715
H    -3.630558  0.709915  4.440599
H    -1.562835  1.316590  5.263956
H    -0.875559  1.374361  3.636354
H    -1.023702  -0.189261  4.477311
Ca    -1.934529  4.402605  -1.724645
