28
Energy: -38234.8548371 eV PBE+vdW (tier 2 basis)
C    -0.044614  -0.238542  0.829520
C    0.115942  -0.115326  2.331584
O    1.074799  -0.575209  2.936386
H    0.867851  -0.690284  0.432662
H    -0.205069  0.735195  0.347029
H    -0.895280  -0.884588  0.568173
N    -0.869587  0.573595  3.025880
C    -2.161567  1.032366  2.554409
C    -2.370556  2.573263  2.616281
O    -3.498897  3.043184  2.487373
H    -0.704684  0.577354  4.031462
H    -2.232386  0.784606  1.485157
C    -3.324597  0.349092  3.291028
C    -3.367566  -1.167330  3.016563
C    -4.487293  -1.808629  3.764071
O    -4.491836  -1.826487  5.060582
O    -5.493854  -2.333432  3.142038
H    -4.251990  0.836637  2.963624
H    -3.225976  0.527080  4.372497
H    -2.425298  -1.628648  3.353760
H    -3.499554  -1.373155  1.947387
N    -1.240282  3.299172  2.779727
C    -1.229142  4.752122  2.792760
H    -0.367552  2.789283  2.869325
H    -0.650983  5.148046  1.947300
H    -0.795972  5.130075  3.727808
H    -2.264580  5.097135  2.709612
Ca    -6.394903  -2.779744  5.022863
