28
Energy: -38236.5558238 eV PBE+vdW (tier 2 basis)
C    -0.111486  -1.078702  -0.675392
C    -0.408371  0.137012  0.169125
O    -1.012193  1.118987  -0.257773
H    0.368382  -0.758416  -1.607530
H    -1.063015  -1.553146  -0.948520
H    0.518838  -1.820842  -0.171508
N    0.018771  0.072238  1.477994
C    -0.234222  1.185482  2.370126
C    0.844509  2.268065  2.199772
O    2.079577  2.035888  2.406034
H    0.661840  -0.659323  1.775458
H    -1.168123  1.628876  2.007286
C    -0.469376  0.775344  3.855602
C    0.199112  -0.521189  4.378343
C    1.691893  -0.448166  4.212852
O    2.387687  0.284500  4.995972
O    2.234486  -0.972043  3.166559
H    -1.551012  0.642235  3.983090
H    -0.179802  1.612893  4.505406
H    -0.190350  -1.399991  3.851363
H    -0.046630  -0.617165  5.443166
N    0.477328  3.482238  1.807175
C    -0.858352  3.950554  1.422229
H    1.246726  4.142615  1.713475
H    -1.295504  3.266333  0.683965
H    -0.745713  4.939441  0.969137
H    -1.513692  4.045120  2.296909
Ca    3.611691  0.754163  3.232686
