28
Energy: -38236.4905727 eV PBE+vdW (tier 2 basis)
C    -1.098407  1.474474  0.097523
C    -1.424641  0.987883  1.476212
O    -2.149061  1.654679  2.249169
H    -0.433378  0.801621  -0.454561
H    -0.635275  2.466583  0.166800
H    -2.035494  1.592501  -0.462095
N    -0.909607  -0.217564  1.860298
C    -1.275006  -0.718513  3.179329
C    -0.413992  -0.072395  4.283961
O    -0.909028  0.893911  4.918170
H    -0.318307  -0.739093  1.222251
H    -2.213034  -0.188940  3.276849
C    -1.703220  -2.193981  3.369023
C    -3.257441  -2.317977  3.539906
C    -3.795090  -1.038923  4.178370
O    -4.404594  -0.192671  3.431647
O    -3.407231  -0.710112  5.346955
H    -1.217514  -2.586598  4.270315
H    -1.374584  -2.820957  2.529169
H    -3.478051  -3.186630  4.171568
H    -3.748005  -2.455788  2.570376
N    0.825459  -0.498324  4.538601
C    1.571236  -1.562095  3.881928
H    1.298657  0.015045  5.280713
H    0.954292  -2.051989  3.124334
H    2.467863  -1.156230  3.395998
H    1.876854  -2.320631  4.613418
Ca    -3.127551  1.397296  4.434565
