28
Energy: -38235.9997152 eV PBE+vdW (tier 2 basis)
C    -0.422086  0.032610  -0.069886
C    0.127621  0.250479  1.298637
O    1.373265  0.058905  1.528998
H    -0.282035  -1.031704  -0.308657
H    0.157529  0.601415  -0.806064
H    -1.484449  0.273476  -0.155436
N    -0.640376  0.602169  2.330748
C    -1.945205  1.263191  2.519419
C    -2.615568  2.074942  1.377500
O    -3.829818  1.923828  1.280577
H    -0.147923  0.520262  3.224808
H    -2.702288  0.488225  2.699156
C    -1.821436  2.076353  3.839338
C    -0.672059  3.106462  3.952191
C    0.727308  2.532721  3.825169
O    1.561835  3.044989  3.000565
O    1.056750  1.470787  4.481902
H    -1.730682  1.353409  4.663626
H    -2.775071  2.596617  3.992878
H    -0.777416  3.925621  3.232943
H    -0.738518  3.555461  4.955666
N    -1.958940  2.950975  0.564523
C    -0.578020  3.390796  0.469381
H    -2.613968  3.391998  -0.078565
H    -0.509541  4.477836  0.614398
H    -0.161438  3.154539  -0.520587
H    0.049028  2.928013  1.231130
Ca    2.665836  1.114612  2.971380
