28
Energy: -38236.707377 eV PBE+vdW (tier 2 basis)
C    -3.018532  -1.280553  1.602284
C    -1.653121  -0.702866  1.338158
O    -0.886407  -1.166338  0.485233
H    -3.638945  -1.123686  0.709868
H    -3.524694  -0.830631  2.464086
H    -2.930719  -2.363342  1.748165
N    -1.302618  0.394734  2.084577
C    -0.031184  1.068795  1.852491
C    1.089160  0.295906  2.589994
O    1.572411  0.618488  3.719900
H    -1.831127  0.633328  2.919760
H    0.182203  0.901778  0.786856
C    -0.092906  2.600645  2.047941
C    -1.020639  3.181172  3.145399
C    -0.556260  2.708680  4.492534
O    0.424001  3.300745  5.065716
O    -1.004720  1.596042  4.960277
H    -0.434056  3.024644  1.094710
H    0.927984  2.975200  2.205360
H    -2.064002  2.888389  2.975631
H    -0.957152  4.274484  3.096953
N    1.494204  -0.790628  1.946305
C    2.471150  -1.736294  2.465537
H    0.921907  -1.046751  1.124634
H    2.843920  -2.343689  1.636027
H    3.308277  -1.197618  2.921632
H    2.022290  -2.402256  3.216512
Ca    1.065574  1.315622  5.708461
