28
Energy: -38236.2726102 eV PBE+vdW (tier 2 basis)
C    -0.220000  -0.763885  0.595702
C    -0.183619  0.025638  1.888162
O    0.824792  0.586327  2.279364
H    0.746474  -1.266666  0.484435
H    -0.316565  -0.065189  -0.246536
H    -1.026436  -1.502158  0.522991
N    -1.338098  0.077488  2.684168
C    -2.717764  -0.252038  2.341433
C    -3.009353  -1.757544  2.527889
O    -4.144125  -2.256345  2.264103
H    -1.207238  0.708049  3.471987
H    -3.334164  0.212997  3.129385
C    -3.206528  0.335008  0.978183
C    -4.486723  1.203476  1.058948
C    -5.635130  0.312022  1.438523
O    -6.147783  -0.459110  0.549789
O    -5.945289  0.166384  2.676839
H    -3.360657  -0.460417  0.237574
H    -2.404495  0.976074  0.597017
H    -4.368153  2.007302  1.795770
H    -4.672573  1.643437  0.071822
N    -2.031213  -2.497065  3.029215
C    -2.127635  -3.919247  3.323536
H    -1.178697  -1.984703  3.256069
H    -1.127427  -4.359882  3.274217
H    -2.540125  -4.087041  4.327829
H    -2.773479  -4.405558  2.585650
Ca    -6.306522  -1.937798  2.144640
