28
Energy: -38236.387283 eV PBE+vdW (tier 2 basis)
C    0.994173  0.565913  1.108844
C    0.055101  0.694903  2.259087
O    0.513407  1.014600  3.410769
H    0.545587  0.061933  0.250731
H    1.862221  -0.010057  1.453245
H    1.353210  1.569810  0.838497
N    -1.271983  0.523060  2.156182
C    -2.185543  0.631300  1.003739
C    -2.136511  -0.611694  0.081873
O    -1.107749  -1.262191  -0.071741
H    -1.737531  0.627243  3.055299
H    -3.179880  0.668338  1.470513
C    -1.989912  1.948283  0.217792
C    -2.297574  3.228345  1.028938
C    -1.349437  3.456291  2.186493
O    -1.759993  3.312901  3.394806
O    -0.115094  3.719052  1.951481
H    -2.662868  1.929476  -0.649985
H    -0.972967  1.993804  -0.192528
H    -3.324219  3.206323  1.415831
H    -2.204079  4.087990  0.350704
N    -3.292583  -0.913965  -0.566482
C    -4.615733  -0.323998  -0.408402
H    -3.202514  -1.717681  -1.181922
H    -4.641938  0.734139  -0.704345
H    -5.308705  -0.861664  -1.062319
H    -4.992741  -0.419615  0.620247
Ca    0.362143  3.096014  4.025607
