28
Energy: -38234.5858224 eV PBE+vdW (tier 2 basis)
C    -0.132654  -1.380290  1.664559
C    -0.674863  -0.114821  2.293896
O    -0.018698  0.556150  3.080696
H    -0.413603  -2.242841  2.286209
H    -0.492303  -1.578729  0.648893
H    0.958608  -1.310301  1.663093
N    -1.976483  0.268658  2.009853
C    -2.954334  -0.284030  1.080034
C    -3.134459  -1.816388  1.207802
O    -3.060659  -2.554664  0.220628
H    -2.229230  1.123785  2.496913
H    -3.919303  0.155825  1.380839
C    -2.659075  0.153468  -0.371347
C    -3.673114  -0.251786  -1.444556
C    -4.994911  0.425816  -1.449319
O    -5.427207  1.126496  -0.445442
O    -5.771903  0.311562  -2.484022
H    -1.693605  -0.273434  -0.671622
H    -2.525825  1.244235  -0.359066
H    -3.870760  -1.337784  -1.355711
H    -3.255278  -0.131068  -2.454936
N    -3.416753  -2.319515  2.438791
C    -3.554803  -1.636576  3.718017
H    -3.490703  -3.333050  2.437889
H    -4.122351  -0.703685  3.612575
H    -4.115021  -2.290098  4.395546
H    -2.585692  -1.401474  4.178883
Ca    -7.227254  1.515382  -1.535339
