28
Energy: -38236.9209588 eV PBE+vdW (tier 2 basis)
C    -0.968893  0.208565  0.356046
C    -0.438116  0.628607  1.694476
O    0.465269  1.491819  1.784815
H    -0.197704  -0.413737  -0.120161
H    -1.116605  1.095555  -0.269769
H    -1.901179  -0.364453  0.408530
N    -0.978493  0.022403  2.777108
C    -0.591191  0.158714  4.190797
C    0.045820  1.543894  4.451339
O    1.285381  1.727754  4.476175
H    -1.690798  -0.675422  2.587614
H    -1.543067  0.168736  4.739315
C    0.223651  -1.035088  4.793333
C    1.050144  -1.945729  3.858025
C    2.145485  -1.155651  3.174486
O    3.061376  -0.618806  3.881251
O    2.007391  -0.849420  1.939164
H    0.892076  -0.622832  5.561051
H    -0.497363  -1.676600  5.316873
H    1.496962  -2.727945  4.485793
H    0.421562  -2.430807  3.101964
N    -0.790038  2.555319  4.715958
C    -2.250860  2.549659  4.741426
H    -0.320106  3.436919  4.908768
H    -2.665854  2.163193  3.802787
H    -2.591100  3.582268  4.860308
H    -2.640001  1.966783  5.587226
Ca    2.572252  1.215302  2.671301
