28
Energy: -38234.69112 eV PBE+vdW (tier 2 basis)
C    -0.139378  1.146853  0.105533
C    -0.010024  0.203582  1.287789
O    1.076687  -0.138147  1.735358
H    0.870641  1.383789  -0.237942
H    -0.642487  2.082826  0.383417
H    -0.701746  0.703165  -0.726935
N    -1.172842  -0.273996  1.866385
C    -2.558761  -0.033866  1.499064
C    -3.360856  0.307373  2.785922
O    -4.054555  -0.546630  3.335729
H    -1.000907  -0.884287  2.663522
H    -2.582606  0.820253  0.809400
C    -3.223217  -1.256838  0.839808
C    -2.466033  -1.750978  -0.411115
C    -3.026316  -3.063597  -0.841526
O    -2.720850  -4.149191  -0.202581
O    -3.862796  -3.148225  -1.826716
H    -4.259234  -0.999175  0.578488
H    -3.276328  -2.054372  1.592480
H    -1.407010  -1.899558  -0.154579
H    -2.552426  -1.039125  -1.241128
N    -3.230550  1.565769  3.282500
C    -2.388732  2.650068  2.800292
H    -3.722806  1.701603  4.160749
H    -2.627199  3.550850  3.374118
H    -2.586420  2.877064  1.743588
H    -1.318097  2.435757  2.928148
Ca    -4.058687  -5.239160  -1.441324
