28
Energy: -38234.67324 eV PBE+vdW (tier 2 basis)
C    -0.079779  1.186384  -0.540651
C    0.218517  0.367483  0.697757
O    1.361827  0.067996  1.019346
H    -1.036867  0.960246  -1.023759
H    -0.084075  2.250919  -0.264951
H    0.738078  1.030362  -1.249898
N    -0.831815  -0.021268  1.513369
C    -2.274429  0.097078  1.331754
C    -2.777074  -0.481665  -0.018640
O    -3.464727  0.201879  -0.786178
H    -0.504163  -0.531708  2.328134
H    -2.713711  -0.538291  2.119446
C    -2.776666  1.537608  1.541554
C    -4.298178  1.628580  1.656899
C    -4.855648  3.008566  1.670340
O    -6.082551  3.212654  2.042750
O    -4.164618  4.027204  1.269386
H    -2.443688  2.160988  0.703695
H    -2.296487  1.925002  2.450557
H    -4.744428  1.152280  0.762301
H    -4.708849  1.091002  2.524422
N    -2.447610  -1.762917  -0.316414
C    -1.684871  -2.731053  0.461316
H    -2.791596  -2.057754  -1.225880
H    -0.601790  -2.560599  0.397478
H    -1.982894  -2.719037  1.517687
H    -1.905313  -3.730600  0.072349
Ca    -5.881663  5.261820  1.523399
