28
Energy: -38234.2272876 eV PBE+vdW (tier 2 basis)
C    -0.114335  0.103712  -0.026704
C    -0.007842  0.207307  1.481874
O    1.069981  0.195855  2.059475
H    -0.559431  1.005848  -0.468603
H    0.896711  -0.018152  -0.423367
H    -0.721136  -0.760355  -0.328460
N    -1.176041  0.337957  2.222438
C    -2.568108  0.253794  1.782288
C    -2.867844  -1.149727  1.163635
O    -2.587230  -2.117330  1.861450
H    -1.003185  0.164331  3.208572
H    -3.146028  0.184503  2.716787
C    -3.020655  1.556482  1.088276
C    -2.766880  2.748569  2.017735
C    -2.732620  4.089323  1.372430
O    -3.041224  5.149198  2.052463
O    -2.340059  4.245531  0.146927
H    -4.089852  1.496433  0.845402
H    -2.482548  1.717338  0.148003
H    -1.756940  2.618220  2.459159
H    -3.462175  2.791602  2.866509
N    -3.454056  -1.327716  -0.059385
C    -3.770156  -0.419795  -1.152028
H    -3.611633  -2.316819  -0.234110
H    -2.912113  0.199917  -1.442470
H    -4.626818  0.232073  -0.929918
H    -4.039360  -1.028579  -2.021128
Ca    -2.473407  6.362221  0.401950
