28
Energy: -38236.6470507 eV PBE+vdW (tier 2 basis)
C    -0.217173  -0.189984  -0.806706
C    -0.141573  0.311150  0.602567
O    0.864042  0.935472  1.016785
H    -0.088842  0.659865  -1.489146
H    -1.159663  -0.698158  -1.036864
H    0.618421  -0.878464  -0.986262
N    -1.207501  0.071171  1.417161
C    -1.158202  0.583542  2.781513
C    -0.441944  -0.429558  3.694619
O    0.814032  -0.457481  3.679225
H    -1.994327  -0.466596  1.069106
H    -0.447989  1.391927  2.617765
C    -2.341588  1.391560  3.327563
C    -1.845897  2.386994  4.441005
C    -0.352830  2.678359  4.270420
O    0.058136  3.280997  3.215785
O    0.473850  2.096227  5.045841
H    -3.165589  0.777982  3.718360
H    -2.745539  1.964840  2.483169
H    -1.997938  1.961937  5.438523
H    -2.425269  3.314512  4.364392
N    -1.184501  -1.255603  4.431174
C    -0.641742  -2.264218  5.335124
H    -2.192365  -1.141130  4.394509
H    -1.013295  -3.258498  5.059831
H    0.447950  -2.247629  5.255623
H    -0.934555  -2.041371  6.368405
Ca    1.675890  1.636155  3.136512
