28
Energy: -38236.3698138 eV PBE+vdW (tier 2 basis)
C    0.489035  0.366085  0.533544
C    0.065150  0.342819  1.980878
O    0.787136  0.704808  2.909661
H    1.504281  -0.037322  0.450525
H    0.525933  1.410867  0.196622
H    -0.182676  -0.191013  -0.130048
N    -1.199806  -0.120927  2.248365
C    -1.729656  0.004814  3.595987
C    -0.779577  -0.583073  4.654409
O    -0.552248  0.089406  5.708262
H    -1.832048  -0.358136  1.491819
H    -1.758299  1.070011  3.864720
C    -3.187599  -0.522776  3.628885
C    -3.836421  -0.747203  5.009509
C    -3.478716  0.300087  6.042130
O    -3.187359  -0.072513  7.231410
O    -3.292701  1.518433  5.684616
H    -3.246716  -1.475221  3.081894
H    -3.778322  0.206944  3.058236
H    -4.929587  -0.760973  4.886837
H    -3.560291  -1.720857  5.432151
N    -0.253087  -1.801556  4.550642
C    -0.333624  -2.760648  3.454428
H    0.385058  -2.030259  5.310005
H    -0.156459  -3.760154  3.864605
H    -1.324377  -2.751771  2.994403
H    0.422942  -2.552132  2.686329
Ca    -1.578445  1.426040  7.086490
