28
Energy: -38234.6725675 eV PBE+vdW (tier 2 basis)
C    -0.128906  -0.147504  0.235678
C    -0.264278  -0.081375  1.742848
O    0.719495  -0.005847  2.470084
H    -0.952810  0.298165  -0.329787
H    0.813597  0.337934  -0.033229
H    -0.058510  -1.202470  -0.065837
N    -1.518207  -0.175845  2.327491
C    -2.877277  -0.083842  1.796835
C    -3.087244  -0.793257  0.440323
O    -3.485913  -0.172039  -0.549897
H    -1.440240  -0.163924  3.342131
H    -3.504874  -0.641814  2.512286
C    -3.439690  1.352862  1.782151
C    -2.680280  2.312949  0.870075
C    -3.230442  3.691971  0.785708
O    -4.387410  4.003959  1.276934
O    -2.559338  4.619317  0.171948
H    -3.426170  1.725880  2.816637
H    -4.491606  1.306040  1.471783
H    -2.705243  1.918317  -0.162846
H    -1.614970  2.405249  1.129892
N    -2.855676  -2.129353  0.396779
C    -2.413764  -3.020109  1.460564
H    -3.004484  -2.529427  -0.525339
H    -1.328193  -2.971727  1.624647
H    -2.681192  -4.045673  1.185770
H    -2.917106  -2.789447  2.407551
Ca    -4.152068  5.976921  0.500474
