28
Energy: -38237.0744922 eV PBE+vdW (tier 2 basis)
C    0.337151  -0.068286  0.142950
C    -0.081543  0.185280  1.564732
O    0.734779  0.658102  2.385139
H    -0.461308  -0.469416  -0.490224
H    1.177419  -0.774773  0.149527
H    0.705145  0.868811  -0.292871
N    -1.357695  -0.135337  1.882648
C    -2.014700  -0.102607  3.198237
C    -2.171203  1.347490  3.703329
O    -1.320389  2.239653  3.480043
H    -1.916450  -0.505836  1.122497
H    -3.035549  -0.449957  2.991824
C    -1.373535  -1.142807  4.196143
C    -1.215793  -0.766811  5.686593
C    -0.147951  0.308851  5.795996
O    1.018565  0.035014  5.347836
O    -0.474786  1.506250  6.087225
H    -0.372123  -1.386162  3.822714
H    -1.972558  -2.058699  4.120366
H    -0.878615  -1.670021  6.212018
H    -2.149269  -0.429062  6.151812
N    -3.279163  1.597582  4.402648
C    -3.511064  2.867785  5.085862
H    -3.949919  0.849474  4.538377
H    -3.435747  3.697883  4.374682
H    -2.767765  3.002746  5.881765
H    -4.515339  2.853243  5.517429
Ca    0.822404  1.958609  4.228703
