28
Energy: -38236.827725 eV PBE+vdW (tier 2 basis)
C    -0.020536  -0.114186  3.124588
C    -0.046790  0.969316  2.092285
O    1.019561  1.417127  1.594100
H    0.558912  -0.969817  2.759282
H    -1.016305  -0.439846  3.441499
H    0.507987  0.282895  4.003099
N    -1.238216  1.515260  1.710769
C    -2.399335  0.718928  1.302914
C    -1.909938  -0.513671  0.504569
O    -0.749407  -0.531451  0.021157
H    -1.108376  2.325239  1.085297
H    -2.959902  0.382110  2.186823
C    -3.339408  1.618253  0.439060
C    -3.031880  1.750453  -1.074563
C    -1.564088  1.987486  -1.404278
O    -0.980355  1.264512  -2.266225
O    -0.884032  2.801962  -0.672046
H    -3.336051  2.607845  0.915471
H    -4.364767  1.241068  0.537515
H    -3.620963  2.593783  -1.463664
H    -3.353425  0.859278  -1.627476
N    -2.734781  -1.547179  0.321432
C    -4.116965  -1.698970  0.765911
H    -2.350924  -2.283342  -0.268350
H    -4.274104  -1.209752  1.732643
H    -4.328481  -2.765569  0.890211
H    -4.822240  -1.284135  0.033213
Ca    0.691809  1.163402  -0.693238
