28
Energy: -38236.7994118 eV PBE+vdW (tier 2 basis)
C    0.261388  0.384463  0.678707
C    -0.092601  0.613025  2.117535
O    0.821713  0.909001  2.952396
H    1.006957  -0.418870  0.617070
H    0.725565  1.293200  0.273746
H    -0.604542  0.120029  0.063870
N    -1.364196  0.496788  2.471024
C    -1.932001  0.600660  3.811568
C    -3.167957  -0.329834  3.746975
O    -3.671780  -0.562178  2.643988
H    -2.074508  0.173669  1.797964
H    -1.188491  0.239906  4.533055
C    -2.363873  2.064193  4.158569
C    -1.891594  2.592231  5.534296
C    -0.389573  2.504683  5.588356
O    0.166289  1.460340  6.094012
O    0.315923  3.381074  4.974942
H    -3.457190  2.147362  4.104968
H    -1.964892  2.725697  3.378818
H    -2.326101  2.021272  6.361246
H    -2.202509  3.639972  5.626095
N    -3.675771  -0.823209  4.895990
C    -3.185184  -0.699722  6.260897
H    -4.524134  -1.366383  4.752402
H    -3.770197  0.030643  6.837907
H    -2.133634  -0.395866  6.274647
H    -3.257207  -1.672507  6.761706
Ca    1.804101  1.802360  4.641249
