28
Energy: -38235.1413993 eV PBE+vdW (tier 2 basis)
C    -0.174894  -0.740796  0.259688
C    -0.315118  -0.738655  1.763297
O    0.322314  -1.508852  2.488482
H    0.874947  -0.547105  0.006571
H    -0.806058  -0.000034  -0.245302
H    -0.419954  -1.741027  -0.118085
N    -1.189639  0.174178  2.287991
C    -1.391932  0.318901  3.726664
C    -2.409590  -0.727492  4.272304
O    -3.519782  -0.388759  4.700652
H    -1.783047  0.706012  1.660959
H    -0.414027  0.108428  4.188908
C    -1.836580  1.748053  4.043210
C    -1.956757  1.984378  5.548074
C    -2.581901  3.270992  5.953347
O    -2.517664  3.662403  7.189911
O    -3.248311  4.002832  5.118313
H    -2.814878  1.932657  3.577781
H    -1.114414  2.447445  3.598739
H    -1.002300  1.885654  6.085741
H    -2.624201  1.205102  5.966485
N    -1.946606  -1.993832  4.234584
C    -2.742458  -3.142915  4.628595
H    -1.028232  -2.132709  3.800113
H    -2.168185  -3.788078  5.305060
H    -3.048100  -3.734341  3.753867
H    -3.639681  -2.784475  5.142615
Ca    -3.806223  5.281658  6.729369
