28
Energy: -38236.331417 eV PBE+vdW (tier 2 basis)
C    -0.278458  0.602287  0.408099
C    -0.976071  -0.702613  0.615534
O    -0.377803  -1.804752  0.377385
H    0.786287  0.468690  0.625712
H    -0.687545  1.411645  1.021208
H    -0.365090  0.890323  -0.651139
N    -2.248304  -0.736042  1.026200
C    -3.256285  0.321918  0.862440
C    -3.627400  1.115857  2.140717
O    -3.692851  2.336652  2.043576
H    -2.623457  -1.679054  1.132114
H    -2.824778  1.095652  0.216980
C    -4.489650  -0.272977  0.151120
C    -4.233904  -0.702857  -1.309556
C    -3.159950  -1.756528  -1.476923
O    -2.161859  -1.526770  -2.247993
O    -3.207932  -2.850515  -0.798035
H    -4.885321  -1.123277  0.725743
H    -5.272326  0.496862  0.151391
H    -3.964308  0.159667  -1.930902
H    -5.168834  -1.120956  -1.712472
N    -3.897307  0.462192  3.303624
C    -3.871825  -0.959151  3.613727
H    -4.119098  1.101211  4.062386
H    -2.849664  -1.346755  3.737785
H    -4.398048  -1.554838  2.855942
H    -4.404506  -1.113102  4.557603
Ca    -1.041717  -3.137766  -1.233268
