28
Energy: -38236.0786149 eV PBE+vdW (tier 2 basis)
C    -0.209813  -0.406893  -0.035667
C    -0.258550  -0.131020  1.449470
O    0.747934  0.065676  2.125058
H    0.523109  0.263273  -0.497615
H    -1.176615  -0.297922  -0.541676
H    0.147291  -1.434811  -0.188159
N    -1.521541  -0.106714  2.002741
C    -1.842208  -0.140995  3.427349
C    -2.204643  1.211824  4.063893
O    -3.012820  1.187431  5.053876
H    -2.296028  -0.301110  1.378252
H    -2.811610  -0.656937  3.475446
C    -0.868915  -1.018400  4.291724
C    0.161851  -0.322563  5.204563
C    -0.531658  0.257917  6.412209
O    -1.298708  -0.504389  7.111246
O    -0.521192  1.520887  6.635055
H    -1.483973  -1.670397  4.923164
H    -0.333718  -1.664494  3.589148
H    0.735528  0.445726  4.677970
H    0.866757  -1.092525  5.549544
N    -1.765891  2.388638  3.634094
C    -0.753460  2.750988  2.641552
H    -2.173666  3.164841  4.150781
H    -1.187337  2.797301  1.634947
H    0.078515  2.040500  2.654232
H    -0.375496  3.742546  2.908489
Ca    -2.631112  1.208025  7.220763
