28
Energy: -38235.9891504 eV PBE+vdW (tier 2 basis)
C    -0.285984  -1.748678  -0.377264
C    0.161676  -0.851522  0.757094
O    1.339696  -0.673704  1.025160
H    0.517568  -2.462435  -0.578608
H    -0.427389  -1.136164  -1.279139
H    -1.220268  -2.291665  -0.192950
N    -0.801110  -0.178940  1.501674
C    -2.258949  -0.227569  1.434963
C    -2.753645  -1.660901  1.733162
O    -3.527197  -2.304005  0.960010
H    -0.384384  0.472407  2.161207
H    -2.606023  0.362400  2.300841
C    -2.814806  0.463362  0.167136
C    -4.226185  1.093380  0.271721
C    -5.262765  0.007598  0.206335
O    -5.443907  -0.602476  -0.910631
O    -5.800284  -0.444127  1.279860
H    -2.781848  -0.214242  -0.695597
H    -2.106162  1.273942  -0.044271
H    -4.339401  1.672719  1.196408
H    -4.361410  1.765010  -0.585245
N    -2.337153  -2.253143  2.854947
C    -1.486119  -1.734497  3.924663
H    -2.655679  -3.214050  2.953427
H    -1.649402  -2.354160  4.811722
H    -0.425528  -1.771513  3.648170
H    -1.759180  -0.703978  4.178108
Ca    -5.619837  -2.403354  0.288377
