28
Energy: -38236.3818591 eV PBE+vdW (tier 2 basis)
C    -0.069344  -0.530600  -0.223310
C    -0.335645  0.267471  1.017635
O    0.445742  1.210580  1.340846
H    0.950235  -0.933641  -0.174916
H    -0.118426  0.135990  -1.094633
H    -0.774626  -1.355908  -0.368688
N    -1.415575  -0.049772  1.743841
C    -1.783335  0.564623  3.023650
C    -1.705612  -0.409829  4.229739
O    -1.057477  -0.057338  5.207404
H    -1.982322  -0.814500  1.390778
H    -0.981233  1.270042  3.252000
C    -3.111638  1.352081  3.008283
C    -3.241566  2.410402  1.893255
C    -1.981786  3.219894  1.695620
O    -1.310979  3.616733  2.716187
O    -1.511937  3.384995  0.513935
H    -3.174956  1.833715  3.992975
H    -3.974371  0.675504  2.936572
H    -4.058467  3.098449  2.158045
H    -3.503504  1.961681  0.927924
N    -2.379968  -1.595341  4.199251
C    -3.178573  -2.197353  3.144948
H    -2.239668  -2.141432  5.045337
H    -3.868554  -2.919706  3.593918
H    -2.568457  -2.744338  2.406175
H    -3.800632  -1.454366  2.629271
Ca    0.479806  3.392662  1.459262
