28
Energy: -38236.899128 eV PBE+vdW (tier 2 basis)
C    0.272271  -0.835541  0.000643
C    0.010925  -0.116401  1.289375
O    0.934801  0.575936  1.826155
H    1.128219  -1.509805  0.133415
H    -0.590231  -1.412403  -0.347446
H    0.549161  -0.103537  -0.769358
N    -1.192355  -0.226144  1.834427
C    -1.636880  0.335568  3.103032
C    -2.760938  -0.620941  3.565318
O    -3.336437  -1.324311  2.733278
H    -1.904580  -0.851051  1.431861
H    -0.796468  0.313573  3.810712
C    -2.178204  1.792944  2.958773
C    -1.701800  2.758992  4.068686
C    -0.199991  2.849794  3.978334
O    0.528971  2.082072  4.707575
O    0.329078  3.546656  3.041434
H    -3.275693  1.777820  2.939049
H    -1.852100  2.191405  1.989324
H    -1.998899  2.413157  5.066541
H    -2.145238  3.746301  3.892141
N    -3.063703  -0.570484  4.878816
C    -4.147032  -1.340965  5.477490
H    -2.478786  -0.008040  5.486984
H    -4.684155  -1.851733  4.673336
H    -3.753027  -2.089722  6.176485
H    -4.838748  -0.678101  6.011613
Ca    1.948839  2.065959  3.004008
