28
Energy: -38236.4797117 eV PBE+vdW (tier 2 basis)
C    -0.739380  -0.412700  0.434149
C    -0.605396  -0.509129  1.933071
O    0.363465  -1.011144  2.502367
H    -0.425125  -1.360679  -0.016164
H    -0.052397  0.363620  0.070613
H    -1.753740  -0.165359  0.099508
N    -1.643163  -0.007805  2.682179
C    -1.471613  0.107213  4.119789
C    -1.039978  -1.214670  4.772849
O    -0.166542  -1.182194  5.695545
H    -2.407800  0.487227  2.237382
H    -0.615083  0.772001  4.313731
C    -2.736913  0.696712  4.814392
C    -2.443449  1.931521  5.700715
C    -1.353720  1.583078  6.686654
O    -1.599439  0.764770  7.640866
O    -0.149198  1.956794  6.444760
H    -3.227739  -0.071114  5.426887
H    -3.465471  0.992069  4.046918
H    -2.116441  2.781177  5.089974
H    -3.359058  2.206400  6.239133
N    -1.627589  -2.377098  4.496306
C    -2.661896  -2.695882  3.517581
H    -1.218221  -3.162148  4.997697
H    -3.168488  -3.608137  3.848892
H    -3.404418  -1.896727  3.453395
H    -2.230657  -2.870730  2.523120
Ca    0.477598  0.052479  7.356731
