32
Energy: -170820.541142 eV PBE+vdW (tier 2 basis)
C    0.210005  0.164145  0.079401
C    0.093356  0.392658  1.548542
O    1.040330  1.041914  2.117261
H    0.178596  1.137357  -0.432545
H    -0.589817  -0.474028  -0.311986
H    1.187107  -0.282743  -0.145528
N    -0.982499  -0.079984  2.196964
C    -1.320451  0.241063  3.582451
C    -0.450988  -0.525682  4.613540
O    0.285551  0.194509  5.405136
H    -1.702850  -0.537611  1.638121
H    -0.977366  1.283249  3.737454
C    -2.844231  0.426320  3.850873
C    -3.937688  -0.646930  3.646067
C    -3.944353  -1.307104  2.259264
C    -4.078375  -1.638580  4.805507
H    -3.098292  1.286912  3.211049
H    -2.910116  0.801406  4.883866
H    -4.850672  -0.028555  3.678581
H    -4.870698  -1.876677  2.114760
H    -3.132343  -2.037517  2.107252
H    -3.912594  -0.563216  1.447178
H    -3.234534  -2.330196  4.901029
H    -4.975584  -2.254759  4.667078
H    -4.191523  -1.114242  5.763443
N    -0.364080  -1.831914  4.747250
C    -0.962317  -2.930170  3.994716
H    0.280702  -2.113315  5.491878
H    -1.493712  -3.599973  4.681140
H    -0.154387  -3.495873  3.510861
H    -1.657142  -2.561061  3.242121
Cd    1.314527  1.591698  4.165331
