32
Energy: -170819.927574 eV PBE+vdW (tier 2 basis)
C    0.239876  1.188193  0.392000
C    -0.222114  0.282631  1.485467
O    0.709440  -0.122125  2.296037
H    0.759496  2.052851  0.825448
H    -0.590936  1.525989  -0.236944
H    0.971813  0.649743  -0.227386
N    -1.499720  -0.043348  1.558712
C    -2.221378  -1.056385  2.337555
C    -3.308341  -1.562645  1.295635
O    -3.580521  -0.784883  0.383182
H    -2.125504  0.263582  0.786244
H    -1.555853  -1.917469  2.568368
C    -2.969662  -0.488136  3.566543
C    -2.148681  0.083217  4.745701
C    -3.019329  1.001950  5.617727
C    -1.538610  -0.995576  5.678016
H    -3.649795  -1.264472  3.947688
H    -3.616154  0.316162  3.187245
H    -1.346081  0.732092  4.329633
H    -2.454988  1.410397  6.465137
H    -3.882375  0.450317  6.018692
H    -3.400535  1.844563  5.027894
H    -0.814343  -0.600905  6.408517
H    -1.154722  -1.975518  5.211473
H    -2.318759  -1.493722  6.285762
N    -3.884127  -2.756326  1.480220
C    -3.647587  -3.748086  2.523056
H    -4.616060  -2.961701  0.800204
H    -3.946069  -4.729009  2.139593
H    -4.235183  -3.544231  3.429432
H    -2.582081  -3.815251  2.776656
Cd    0.288256  -1.161636  4.023704
