32
Energy: -170820.933173 eV PBE+vdW (tier 2 basis)
C    0.053245  0.967145  0.265658
C    -0.003389  0.685940  1.729519
O    0.865666  1.266853  2.467802
H    -0.145937  2.037520  0.106740
H    -0.671341  0.379162  -0.308274
H    1.068230  0.773113  -0.104741
N    -0.955540  -0.140147  2.194689
C    -1.331364  -0.327482  3.602923
C    -0.436346  -1.379948  4.300569
O    0.490514  -0.968768  5.105721
H    -1.601867  -0.505000  1.497072
H    -1.087209  0.618665  4.121828
C    -2.857735  -0.456182  3.774651
C    -3.376882  -0.219256  5.215548
C    -3.103059  -1.382850  6.175717
C    -2.910914  1.121188  5.797460
H    -3.220316  -1.420863  3.396883
H    -3.287424  0.319814  3.121320
H    -4.469231  -0.152380  5.089875
H    -3.637960  -1.226334  7.120516
H    -2.038423  -1.475490  6.439929
H    -3.449730  -2.342969  5.770141
H    -1.843014  1.106400  6.083558
H    -3.456438  1.345465  6.722182
H    -3.082953  1.961890  5.110031
N    -0.549064  -2.679746  4.129232
C    -1.509202  -3.462737  3.346075
H    0.121906  -3.223222  4.678035
H    -2.379877  -3.729204  3.958327
H    -1.005899  -4.382358  3.029872
H    -1.829902  -2.921870  2.452884
Cd    1.256987  0.919939  4.526669
