32
Energy: -170820.661522 eV PBE+vdW (tier 2 basis)
C    0.387008  -0.118783  0.644179
C    0.212610  0.390296  2.022168
O    1.143727  0.795382  2.721516
H    1.377194  0.141243  0.258038
H    -0.408227  0.228438  -0.028856
H    0.303248  -1.221236  0.679338
N    -1.106252  0.382380  2.672741
C    -2.144471  1.367254  2.204028
C    -1.931079  2.752622  2.846470
O    -1.328423  2.913376  3.965670
H    -1.537548  -0.551539  2.578300
H    -2.066175  1.476322  1.111456
C    -3.549877  0.840446  2.581293
C    -4.151090  -0.246317  1.661647
C    -3.309714  -1.527624  1.559980
C    -5.568118  -0.566963  2.155684
H    -4.239078  1.696202  2.590558
H    -3.512783  0.485783  3.626301
H    -4.232682  0.188018  0.650124
H    -3.863447  -2.303942  1.016486
H    -3.089329  -1.958735  2.552501
H    -2.374226  -1.398669  0.990424
H    -6.060381  -1.271176  1.474040
H    -6.194879  0.332674  2.210273
H    -5.550122  -1.029288  3.153085
N    -2.447119  3.821093  2.265017
C    -3.258647  3.929871  1.049712
H    -2.317660  4.684766  2.796703
H    -2.962289  4.840895  0.518954
H    -4.323191  3.999793  1.309335
H    -3.105186  3.075047  0.385671
Cd    -0.087195  1.292949  4.596175
