32
Energy: -170820.36212 eV PBE+vdW (tier 2 basis)
C    0.152439  1.244901  -0.147667
C    0.172140  0.736929  1.243281
O    1.290538  0.424607  1.787145
H    0.829079  2.101982  -0.263307
H    -0.854676  1.476909  -0.505279
H    0.569616  0.444340  -0.784328
N    -0.965702  0.557134  1.971986
C    -2.095227  1.475070  2.161213
C    -1.638602  2.573078  3.155080
O    -0.720424  2.386510  4.046712
H    -0.932706  -0.218769  2.639416
H    -2.330938  1.954442  1.200590
C    -3.307337  0.635843  2.643069
C    -4.710253  1.286724  2.729639
C    -4.998011  2.014765  4.050113
C    -5.070138  2.118841  1.492973
H    -3.054796  0.187137  3.618938
H    -3.360739  -0.189643  1.916266
H    -5.383248  0.414366  2.717096
H    -6.065320  2.259570  4.115016
H    -4.455602  2.962890  4.162182
H    -4.758067  1.386179  4.918115
H    -6.133350  2.386710  1.510489
H    -4.887985  1.575455  0.555112
H    -4.526497  3.079456  1.429925
N    -2.249006  3.735329  3.102059
C    -2.024390  4.872912  3.997484
H    -3.033529  3.807200  2.451214
H    -2.179039  5.796319  3.430722
H    -1.006465  4.838381  4.392700
H    -2.738165  4.837384  4.832064
Cd    0.978099  1.127899  3.812790
