32
Energy: -170820.749332 eV PBE+vdW (tier 2 basis)
C    -2.021512  -1.255573  -0.194390
C    -0.928285  -0.545769  0.505218
O    0.266688  -0.811988  0.356231
H    -2.813629  -0.570408  -0.524736
H    -2.492323  -1.944652  0.531844
H    -1.630096  -1.847054  -1.027523
N    -1.222135  0.503853  1.488622
C    -1.708853  1.835796  0.986983
C    -0.532724  2.727135  0.523634
O    0.654532  2.620336  0.984227
H    -1.931103  0.170872  2.163048
H    -2.370702  1.677485  0.119970
C    -2.489624  2.542060  2.118497
C    -3.905404  1.992647  2.426757
C    -4.855446  2.124905  1.232402
C    -3.931520  0.571698  3.013620
H    -2.591408  3.599338  1.835276
H    -1.864027  2.534634  3.026664
H    -4.270966  2.666264  3.218046
H    -5.879548  1.862541  1.524963
H    -4.590329  1.447371  0.403931
H    -4.884588  3.150951  0.841218
H    -4.915632  0.359741  3.450908
H    -3.203132  0.429869  3.828721
H    -3.797549  -0.212879  2.246850
N    -0.820080  3.682642  -0.338683
C    0.123414  4.704170  -0.811143
H    -1.786197  3.762560  -0.651505
H    -0.174108  5.008581  -1.818854
H    1.134286  4.288271  -0.830547
H    0.101297  5.576617  -0.145344
Cd    1.096344  0.717395  1.862082
