32
Energy: -170820.263518 eV PBE+vdW (tier 2 basis)
C    0.318046  0.068736  0.206567
C    0.143980  0.291643  1.660601
O    1.178420  0.358510  2.418104
H    1.002215  0.810014  -0.227054
H    -0.629974  0.029810  -0.337283
H    0.820812  -0.908101  0.092384
N    -1.081063  0.400319  2.240074
C    -2.226630  1.230137  1.832064
C    -1.839274  2.697008  2.116623
O    -1.082886  3.020174  3.122215
H    -1.125881  0.087727  3.213993
H    -2.400950  1.099303  0.756438
C    -3.456525  0.722502  2.628885
C    -4.831436  1.380302  2.383724
C    -5.931389  0.352617  2.693262
C    -5.042848  2.650063  3.219701
H    -3.217604  0.779921  3.706191
H    -3.517831  -0.346581  2.373320
H    -4.913250  1.626106  1.311566
H    -5.876038  0.014976  3.738092
H    -5.860041  -0.529622  2.043829
H    -6.923300  0.796133  2.544786
H    -5.081683  2.403028  4.290293
H    -5.998981  3.123610  2.965274
H    -4.260387  3.410893  3.092498
N    -2.277814  3.688849  1.368594
C    -3.232878  3.693271  0.257901
H    -1.960654  4.611187  1.679442
H    -2.855727  4.375580  -0.512266
H    -4.208710  4.052979  0.608516
H    -3.351001  2.695080  -0.169320
Cd    0.635079  1.953801  3.775766
