32
Energy: -170820.272325 eV PBE+vdW (tier 2 basis)
C    -1.385341  1.039797  3.139547
C    -2.092453  0.338330  4.239578
O    -1.644025  0.472595  5.434624
H    -2.077781  1.679624  2.576803
H    -0.966931  0.308423  2.429004
H    -0.563985  1.632294  3.553166
N    -3.205581  -0.434551  4.066859
C    -3.511863  -1.482514  3.071160
C    -2.735976  -2.767075  3.483227
O    -2.219885  -2.953879  4.656546
H    -3.823841  -0.430815  4.880333
H    -4.572669  -1.722749  3.256916
C    -3.392302  -1.049945  1.585263
C    -4.612058  -1.387998  0.691613
C    -4.420972  -0.713665  -0.672501
C    -4.887618  -2.886347  0.523953
H    -2.465335  -1.443646  1.139044
H    -3.298379  0.041516  1.571937
H    -5.494486  -0.934976  1.176752
H    -3.551674  -1.124560  -1.206340
H    -4.278315  0.370699  -0.575461
H    -5.301028  -0.873838  -1.306839
H    -5.742702  -3.043172  -0.145681
H    -5.156093  -3.397422  1.462667
H    -4.040587  -3.405828  0.038780
N    -2.650788  -3.747391  2.616508
C    -2.027705  -5.051476  2.875773
H    -3.131570  -3.622148  1.721462
H    -2.628708  -5.625658  3.591974
H    -1.019137  -4.912814  3.279292
H    -1.972118  -5.594595  1.929053
Cd    -1.820473  -1.543856  6.183080
