32
Energy: -170820.737459 eV PBE+vdW (tier 2 basis)
C    -2.369676  -1.722646  0.676414
C    -1.149040  -1.081125  1.211576
O    -0.025227  -1.239216  0.729467
H    -2.181152  -2.150119  -0.312895
H    -3.223370  -1.031761  0.656962
H    -2.650967  -2.541031  1.365420
N    -1.203519  -0.244422  2.418129
C    -1.822199  1.123387  2.319369
C    -0.834671  2.138317  1.697557
O    0.433767  2.040831  1.818837
H    -1.713513  -0.736652  3.170443
H    -2.713854  1.074994  1.672322
C    -2.225024  1.594814  3.736471
C    -3.530663  1.004392  4.318390
C    -3.544330  -0.527954  4.430253
C    -3.781379  1.648758  5.688446
H    -2.333268  2.688253  3.703008
H    -1.378058  1.402848  4.418537
H    -4.353213  1.302427  3.645765
H    -4.431220  -0.859965  4.985277
H    -2.678330  -0.911806  4.998127
H    -3.615908  -1.042604  3.456879
H    -4.747715  1.323068  6.092263
H    -3.801943  2.744530  5.626347
H    -3.006032  1.363634  6.414037
N    -1.362170  3.183599  1.090609
C    -0.604552  4.320462  0.551974
H    -2.378263  3.245089  1.052475
H    -1.132288  4.702697  -0.327052
H    0.398984  3.991002  0.271213
H    -0.530297  5.114832  1.305929
Cd    1.128122  0.057875  2.241757
