32
Energy: -170820.279377 eV PBE+vdW (tier 2 basis)
C    -0.125129  0.457558  0.262262
C    -0.292214  0.244608  1.721386
O    0.631199  0.664414  2.507385
H    -0.988250  0.992142  -0.155548
H    -0.058216  -0.511866  -0.257953
H    0.798311  1.014612  0.078543
N    -1.377435  -0.360386  2.290197
C    -2.098067  -1.596994  1.928307
C    -1.247100  -2.803329  2.410966
O    -0.257442  -2.706163  3.241814
H    -1.587364  -0.005837  3.225349
H    -2.982103  -1.589478  2.588956
C    -2.625680  -1.665065  0.468033
C    -4.115828  -2.071390  0.311105
C    -4.428204  -3.527726  0.671771
C    -5.053091  -1.099264  1.034893
H    -1.979303  -2.311694  -0.143712
H    -2.541651  -0.655785  0.050052
H    -4.297643  -1.964638  -0.770259
H    -5.461102  -3.776125  0.396241
H    -4.362907  -3.724357  1.755670
H    -3.799207  -4.244214  0.114660
H    -6.098429  -1.321734  0.788080
H    -4.864470  -0.055748  0.748965
H    -4.980246  -1.174029  2.132631
N    -1.583927  -4.004037  2.005519
C    -0.936193  -5.250383  2.434277
H    -2.406589  -4.081451  1.400667
H    0.139698  -5.205517  2.232526
H    -1.379355  -6.073760  1.868759
H    -1.097236  -5.414667  3.506707
Cd    0.769853  -0.978857  3.900282
