32
Energy: -170820.071309 eV PBE+vdW (tier 2 basis)
C    0.077764  -0.132444  -0.328798
C    -0.346276  -0.172894  1.097499
O    0.066229  -1.090094  1.902523
H    1.165755  0.025025  -0.388283
H    -0.420312  0.654954  -0.903677
H    -0.127551  -1.108607  -0.789759
N    -1.201080  0.734204  1.558688
C    -1.777770  0.788806  2.888291
C    -3.266482  1.202256  2.622674
O    -3.495033  1.899945  1.635790
H    -1.676132  1.371603  0.901369
H    -1.694840  -0.202534  3.351259
C    -1.181115  1.906981  3.804498
C    0.273302  1.802212  4.309877
C    0.596879  0.611915  5.205670
C    1.377287  2.058878  3.291041
H    -1.836074  1.954542  4.685889
H    -1.307619  2.865488  3.280534
H    0.326146  2.676244  4.995561
H    1.558178  0.735946  5.718103
H    0.660410  -0.343114  4.600985
H    -0.167809  0.388108  5.962090
H    2.334517  2.283079  3.776708
H    1.151996  2.865254  2.582202
H    1.568887  1.149927  2.649220
N    -4.190211  0.794439  3.509620
C    -5.614229  1.073042  3.345289
H    -3.913533  0.151388  4.246866
H    -6.069868  1.172002  4.336790
H    -6.116010  0.257011  2.804702
H    -5.729692  1.998124  2.771100
Cd    1.932632  -1.114333  2.913679
