32
Energy: -170820.470279 eV PBE+vdW (tier 2 basis)
C    0.582637  0.314672  1.111860
C    -0.149244  0.438623  2.390667
O    0.413370  0.749849  3.444991
H    0.161241  1.027934  0.383692
H    0.436911  -0.681663  0.671442
H    1.646424  0.517488  1.263278
N    -1.608970  0.286713  2.480657
C    -2.262541  -1.091289  2.506658
C    -1.864121  -1.832127  3.805453
O    -1.820997  -1.216541  4.929067
H    -2.060259  0.795196  1.706461
H    -3.323659  -0.836144  2.677268
C    -2.216453  -1.882243  1.190486
C    -3.077050  -1.309443  0.026954
C    -4.538352  -1.095092  0.437996
C    -2.499495  -0.074924  -0.675481
H    -2.657142  -2.869171  1.404339
H    -1.183025  -2.068463  0.864248
H    -3.063743  -2.118390  -0.721016
H    -5.153882  -0.887252  -0.445668
H    -4.671482  -0.229175  1.107990
H    -4.968643  -1.979193  0.928692
H    -3.085214  0.147159  -1.576686
H    -1.461610  -0.219574  -1.000811
H    -2.561849  0.850836  -0.072439
N    -1.656379  -3.131591  3.776263
C    -1.394885  -3.960854  4.959236
H    -1.738784  -3.604783  2.879876
H    -0.808689  -3.392532  5.686700
H    -0.840903  -4.848516  4.641136
H    -2.342883  -4.268634  5.419500
Cd    -1.427694  0.880825  4.785118
