32
Energy: -170820.919327 eV PBE+vdW (tier 2 basis)
C    0.370748  -0.024136  0.266677
C    0.230505  -0.146411  1.747047
O    1.309159  -0.101811  2.435954
H    0.793348  0.965421  0.036458
H    -0.582116  -0.137652  -0.261787
H    1.090067  -0.770140  -0.095461
N    -0.998253  -0.279677  2.271336
C    -1.386915  -0.135637  3.686342
C    -1.200085  -1.467839  4.454534
O    -0.156212  -1.611976  5.209285
H    -1.762853  -0.267098  1.598329
H    -0.655986  0.552124  4.154471
C    -2.740657  0.593577  3.809820
C    -3.024951  1.227370  5.188785
C    -4.285755  2.095196  5.079358
C    -3.157026  0.207837  6.326633
H    -3.572018  -0.062305  3.517320
H    -2.706305  1.402413  3.062796
H    -2.176095  1.897130  5.419765
H    -4.473712  2.616060  6.025733
H    -5.172965  1.484527  4.858380
H    -4.193268  2.857289  4.294485
H    -3.958235  -0.519047  6.126969
H    -3.421190  0.719120  7.260413
H    -2.228406  -0.343601  6.535936
N    -2.031073  -2.486164  4.391619
C    -3.305870  -2.649064  3.685250
H    -1.745487  -3.277260  4.974070
H    -4.139792  -2.291178  4.301802
H    -3.441282  -3.718992  3.496970
H    -3.297639  -2.129455  2.724066
Cd    1.534885  -0.569994  4.488509
