32
Energy: -170820.031412 eV PBE+vdW (tier 2 basis)
C    0.388560  1.036612  0.554844
C    -0.013818  0.023547  1.575318
O    0.970452  -0.549860  2.199984
H    1.024948  1.798247  1.024418
H    -0.480201  1.511216  0.085935
H    0.995444  0.540523  -0.216314
N    -1.296517  -0.221619  1.771834
C    -2.007003  -1.277319  2.501987
C    -3.250269  -1.557283  1.545085
O    -3.551032  -0.652579  0.768894
H    -1.981116  0.223377  1.125437
H    -1.400719  -2.211707  2.523774
C    -2.543271  -0.836351  3.884028
C    -1.536761  -0.477605  5.002457
C    -2.215054  0.374391  6.087682
C    -0.906130  -1.704427  5.710004
H    -3.227763  -1.616036  4.252222
H    -3.170349  0.048387  3.702474
H    -0.741784  0.164874  4.564761
H    -1.518873  0.629924  6.896040
H    -3.065215  -0.165995  6.529182
H    -2.594145  1.310715  5.659988
H    -0.064109  -1.455799  6.375304
H    -0.665905  -2.642306  5.085455
H    -1.642323  -2.223087  6.354339
N    -3.879748  -2.724883  1.682022
C    -5.086292  -3.073883  0.920325
H    -3.545193  -3.396107  2.365534
H    -5.986033  -2.910277  1.526441
H    -5.029546  -4.126860  0.626431
H    -5.133038  -2.443519  0.028065
Cd    0.674320  -1.803958  3.807378
