32
Energy: -170820.047858 eV PBE+vdW (tier 2 basis)
C    -0.067180  -0.376235  -0.303786
C    0.016233  -0.432440  1.186878
O    1.144454  -0.854250  1.664197
H    0.754599  0.240011  -0.691749
H    -1.028381  0.022909  -0.645225
H    0.071824  -1.390075  -0.705758
N    -1.030455  -0.065057  1.904114
C    -1.317230  -0.151140  3.334309
C    -2.911795  -0.154591  3.345174
O    -3.472445  0.240923  2.326074
H    -1.905862  0.206305  1.410632
H    -0.987369  -1.132910  3.735138
C    -0.751670  1.043914  4.159924
C    0.048093  0.764956  5.441042
C    0.656580  2.028901  6.030801
C    -0.620691  -0.132568  6.471657
H    -1.600645  1.665174  4.494009
H    -0.180122  1.702040  3.490269
H    1.056868  0.130069  5.157007
H    -0.165923  2.643098  6.435759
H    1.186531  2.636012  5.287452
H    1.329433  1.808506  6.867653
H    0.026620  -0.305495  7.339186
H    -0.920753  -1.113404  6.077397
H    -1.521561  0.385225  6.839753
N    -3.519073  -0.529478  4.473182
C    -4.982544  -0.550841  4.609105
H    -2.969516  -0.936184  5.221987
H    -5.239780  -0.399622  5.661738
H    -5.390622  -1.509981  4.266302
H    -5.408757  0.255583  4.005406
Cd    1.652744  -0.891696  3.671641
