32
Energy: -170820.462828 eV PBE+vdW (tier 2 basis)
C    -1.385750  1.820394  -0.853863
C    -0.946342  1.497537  0.523201
O    -0.337385  2.389460  1.217637
H    -2.040143  2.702709  -0.861296
H    -1.850343  0.972019  -1.364155
H    -0.482177  2.113766  -1.416569
N    -1.138015  0.272027  1.081591
C    -2.355255  -0.541367  1.104349
C    -3.258246  -0.028342  2.247118
O    -2.814044  0.693237  3.230169
H    -0.421047  -0.016174  1.753102
H    -2.883050  -0.407543  0.149548
C    -1.986649  -2.026846  1.301643
C    -1.236901  -2.648423  0.104980
C    -0.776577  -4.062085  0.485196
C    -2.093340  -2.662025  -1.165702
H    -2.904447  -2.600785  1.492710
H    -1.385057  -2.114085  2.223228
H    -0.333950  -2.042092  -0.088841
H    -0.198677  -4.508238  -0.333066
H    -1.634032  -4.721281  0.681661
H    -0.138232  -4.059790  1.378805
H    -1.541228  -3.122679  -1.993790
H    -2.383059  -1.657445  -1.513742
H    -3.011664  -3.250364  -1.022142
N    -4.530180  -0.368134  2.292766
C    -5.299629  -1.227706  1.387014
H    -5.032205  -0.017120  3.111965
H    -6.280124  -0.764789  1.229072
H    -5.443429  -2.217381  1.839688
H    -4.799426  -1.337528  0.421538
Cd    -1.177691  2.044470  3.180235
