32
Energy: -170821.135953 eV PBE+vdW (tier 2 basis)
C    -1.119857  -1.407093  0.949256
C    -1.316734  -0.200564  1.807052
O    -0.617732  -0.136594  2.875119
H    -0.049037  -1.616755  0.843701
H    -1.582475  -1.312115  -0.039402
H    -1.570736  -2.268089  1.467420
N    -2.218022  0.712203  1.409566
C    -2.874297  1.844204  2.114602
C    -2.004421  3.120592  2.121886
O    -1.007163  3.273265  2.917015
H    -2.643123  0.491885  0.512341
H    -3.746050  2.070658  1.485901
C    -3.453866  1.537805  3.513932
C    -4.673133  0.574446  3.577352
C    -5.844127  1.105211  2.739150
C    -4.349125  -0.888550  3.257382
H    -3.749989  2.506340  3.945491
H    -2.696209  1.110232  4.214415
H    -4.978162  0.620025  4.634821
H    -5.665907  1.011972  1.656486
H    -6.085122  2.152077  2.969157
H    -6.743243  0.513250  2.952640
H    -4.192532  -1.060071  2.183275
H    -5.191696  -1.525733  3.552440
H    -3.468870  -1.253087  3.807273
N    -2.341189  4.097954  1.305201
C    -1.669521  5.398489  1.197896
H    -3.141198  3.946061  0.693771
H    -0.910253  5.483785  1.977621
H    -2.415360  6.193484  1.312513
H    -1.200599  5.484131  0.209816
Cd    -0.456252  1.591580  4.076911
