32
Energy: -170820.152422 eV PBE+vdW (tier 2 basis)
C    -0.762346  1.529105  1.203708
C    -1.664078  1.696738  2.366630
O    -1.495244  2.757086  3.087728
H    -1.190776  0.905298  0.418816
H    0.202397  1.111293  1.535357
H    -0.534762  2.532844  0.816043
N    -2.677014  0.863553  2.711877
C    -2.751531  -0.604989  2.866697
C    -2.279692  -0.917945  4.307817
O    -1.517932  -0.114197  4.983093
H    -3.388902  1.347829  3.264298
H    -3.825272  -0.846510  2.814729
C    -2.025191  -1.469338  1.804397
C    -2.855708  -1.804320  0.535408
C    -4.035557  -2.733892  0.843577
C    -3.319199  -0.589970  -0.277166
H    -1.751490  -2.418205  2.286508
H    -1.065038  -1.007072  1.544438
H    -2.152181  -2.373950  -0.093272
H    -4.522951  -3.043633  -0.088833
H    -4.821223  -2.242196  1.441371
H    -3.718076  -3.650669  1.358093
H    -3.906270  -0.924944  -1.141148
H    -2.483621  -0.008640  -0.688080
H    -3.970300  0.086456  0.297230
N    -2.604346  -2.050459  4.900365
C    -3.388044  -3.185290  4.406872
H    -2.205953  -2.154213  5.836657
H    -3.964735  -3.586123  5.247480
H    -2.723969  -3.973362  4.027687
H    -4.075407  -2.874902  3.617276
Cd    -1.446308  2.005268  5.088504
