32
Energy: -170819.664784 eV PBE+vdW (tier 2 basis)
C    -2.772384  1.311884  0.390463
C    -1.886084  1.235729  1.594978
O    -1.199558  2.307292  1.830085
H    -3.822807  1.189765  0.692895
H    -2.519475  0.505777  -0.311686
H    -2.653190  2.277650  -0.106951
N    -1.812169  0.157044  2.346372
C    -2.534116  -1.116835  2.234304
C    -2.482297  -1.641796  3.693329
O    -1.715352  -1.109821  4.503072
H    -1.283971  0.161529  3.239413
H    -3.572290  -0.924644  1.925938
C    -1.843184  -2.124079  1.247042
C    -2.771022  -2.954971  0.332630
C    -3.697662  -3.930420  1.068273
C    -3.550332  -2.109566  -0.676749
H    -1.191913  -2.797200  1.823248
H    -1.168608  -1.528848  0.614272
H    -2.059482  -3.580876  -0.235959
H    -4.158015  -4.637198  0.365475
H    -4.551355  -3.408153  1.539157
H    -3.156996  -4.535498  1.810637
H    -4.108783  -2.755262  -1.366056
H    -2.881386  -1.489754  -1.291089
H    -4.296052  -1.454291  -0.199144
N    -3.271028  -2.692664  4.014566
C    -3.312943  -3.282548  5.335164
H    -3.901199  -3.057224  3.298226
H    -3.486057  -4.361992  5.239848
H    -4.148185  -2.862421  5.923724
H    -2.378168  -3.068591  5.863312
Cd    0.032564  3.056526  3.394902
