32
Energy: -170820.327822 eV PBE+vdW (tier 2 basis)
C    -0.310503  -0.325716  -0.801206
C    -0.158771  -0.252061  0.670352
O    0.997918  -0.435871  1.196649
H    0.393974  0.349711  -1.304456
H    -1.338175  -0.155962  -1.134551
H    -0.014770  -1.346821  -1.100986
N    -1.210801  -0.024499  1.501016
C    -2.251062  1.010121  1.408728
C    -1.585465  2.359966  1.758120
O    -0.599380  2.430078  2.603007
H    -1.120653  -0.440689  2.432109
H    -2.652490  1.031614  0.387788
C    -3.363026  0.649881  2.429059
C    -4.707509  1.390589  2.313766
C    -5.455435  1.029079  1.024801
C    -5.558699  1.060691  3.549259
H    -2.950037  0.788969  3.443012
H    -3.547168  -0.429715  2.301294
H    -4.518575  2.477390  2.336755
H    -6.381481  1.610349  0.939622
H    -5.735793  -0.033749  1.021760
H    -4.879426  1.214592  0.104410
H    -6.524897  1.576438  3.496929
H    -5.066022  1.371031  4.480291
H    -5.764656  -0.017137  3.613619
N    -2.022728  3.504486  1.276644
C    -3.119315  3.799286  0.350065
H    -1.515263  4.320360  1.630322
H    -2.724896  4.426456  -0.458703
H    -3.907704  4.351978  0.875249
H    -3.543744  2.885573  -0.068595
Cd    1.007946  1.052155  2.767071
