32
Energy: -170821.050339 eV PBE+vdW (tier 2 basis)
C    1.484114  -0.763604  1.453143
C    0.937029  -0.412285  2.800025
O    1.741084  -0.452156  3.783103
H    0.746660  -0.686462  0.647382
H    1.879937  -1.788256  1.488074
H    2.334647  -0.103878  1.233221
N    -0.365340  -0.086137  2.876762
C    -1.229845  0.327434  4.009140
C    -0.713243  1.591311  4.728405
O    0.077665  1.548324  5.735658
H    -0.851244  -0.132432  1.984968
H    -2.140081  0.660661  3.496055
C    -1.768662  -0.765982  4.985664
C    -0.955729  -1.897167  5.664243
C    -1.783897  -2.488364  6.811735
C    -0.443277  -2.984865  4.722746
H    -2.553636  -1.299929  4.427754
H    -2.302966  -0.204168  5.766891
H    -0.045271  -1.479505  6.259398
H    -1.241106  -3.293205  7.320679
H    -2.704564  -2.926124  6.395067
H    -2.075220  -1.733123  7.551644
H    0.094787  -3.762489  5.277782
H    0.214368  -2.621844  3.926611
H    -1.305783  -3.470172  4.243271
N    -1.156569  2.776104  4.343303
C    -2.120770  3.110636  3.286486
H    -0.787831  3.555361  4.892580
H    -2.174630  4.200822  3.219551
H    -3.123280  2.735329  3.529174
H    -1.790548  2.728084  2.313769
Cd    1.361462  -0.144538  5.857540
