32
Energy: -170821.156425 eV PBE+vdW (tier 2 basis)
C    1.090361  0.317105  0.702142
C    0.635277  0.253674  2.126032
O    1.498737  0.519478  3.020434
H    0.300012  0.089855  -0.020774
H    1.922791  -0.387148  0.565523
H    1.489295  1.321055  0.502458
N    -0.645363  -0.085659  2.352783
C    -1.461331  -0.244142  3.585985
C    -1.551608  1.042373  4.436029
O    -0.667057  1.392435  5.291027
H    -1.169662  -0.264758  1.500322
H    -2.470927  -0.370343  3.173488
C    -1.280497  -1.538078  4.442782
C    0.053740  -2.142926  4.947250
C    -0.240217  -3.130868  6.083131
C    0.927106  -2.775311  3.865652
H    -1.741836  -2.349573  3.858722
H    -1.944845  -1.391097  5.308025
H    0.693622  -1.355162  5.518705
H    0.681746  -3.585485  6.463559
H    -0.869711  -3.944597  5.690168
H    -0.776589  -2.663470  6.917757
H    0.374096  -3.610760  3.412447
H    1.844589  -3.194156  4.295954
H    1.212243  -2.094036  3.057811
N    -2.641227  1.778332  4.301904
C    -2.912728  3.009339  5.052941
H    -3.368054  1.453674  3.668802
H    -3.410626  2.770404  6.001750
H    -3.568205  3.644681  4.450160
H    -1.973023  3.528990  5.259000
Cd    1.261899  0.506081  5.132851
