32
Energy: -170820.197158 eV PBE+vdW (tier 2 basis)
C    0.099220  0.114535  -0.024530
C    0.083296  0.292386  1.445967
O    1.188961  0.277711  2.098302
H    0.814471  0.798259  -0.499195
H    -0.894939  0.192198  -0.474044
H    0.479834  -0.904806  -0.216715
N    -1.072122  0.441824  2.145911
C    -2.189034  1.372983  1.892120
C    -1.613439  2.791880  2.058746
O    -0.784770  3.065371  3.023385
H    -1.031504  0.109996  3.113906
H    -2.575335  1.222985  0.877126
C    -3.278088  1.019131  2.944961
C    -4.688130  1.634422  2.856019
C    -4.762673  3.110009  3.265830
C    -5.386733  1.343220  1.522916
H    -2.854717  1.231360  3.942545
H    -3.380413  -0.074971  2.862716
H    -5.239669  1.073133  3.628716
H    -5.809420  3.410491  3.395646
H    -4.340828  3.788918  2.512889
H    -4.251748  3.298366  4.220215
H    -6.443183  1.632422  1.577921
H    -5.356802  0.275056  1.267729
H    -4.955967  1.906720  0.682427
N    -1.938680  3.789818  1.262230
C    -2.881001  3.851191  0.144029
H    -1.501036  4.679151  1.518570
H    -2.422567  4.448177  -0.652620
H    -3.812957  4.336935  0.461612
H    -3.110091  2.853838  -0.236790
Cd    0.889629  1.864376  3.541468
