32
Energy: -170819.889781 eV PBE+vdW (tier 2 basis)
C    0.254503  -0.219577  0.225703
C    0.059959  -0.713989  1.622045
O    0.798063  -1.715415  1.969611
H    -0.353186  0.667416  0.015796
H    -0.024080  -1.022623  -0.472693
H    1.316729  -0.001367  0.055858
N    -0.827328  -0.107495  2.399655
C    -1.474328  -0.538724  3.641106
C    -2.986866  -0.122336  3.390650
O    -3.169905  0.774748  2.569780
H    -1.422074  0.623387  1.964267
H    -1.440713  -1.647648  3.729342
C    -1.000180  0.137369  4.945366
C    0.430377  -0.057619  5.490388
C    1.535166  0.675257  4.733729
C    0.510433  0.173628  6.996864
H    -1.703808  -0.170030  5.730440
H    -1.130899  1.225882  4.820004
H    0.627502  -1.248276  5.474747
H    1.402441  1.754262  4.902974
H    1.519132  0.532114  3.645797
H    2.530493  0.418712  5.116657
H    1.520763  0.000821  7.385496
H    -0.205737  -0.435272  7.560751
H    0.270816  1.235124  7.183660
N    -3.963044  -0.726486  4.081592
C    -3.886984  -1.767214  5.099752
H    -4.886867  -0.335944  3.891386
H    -4.796362  -2.375228  5.042885
H    -3.820855  -1.344898  6.112707
H    -3.036165  -2.435791  4.923983
Cd    0.955583  -2.390975  3.937927
