32
Energy: -170821.185843 eV PBE+vdW (tier 2 basis)
C    -0.617562  0.057453  -0.090961
C    -0.275864  -0.023581  1.361256
O    0.849832  -0.550775  1.657030
H    -1.573208  0.556019  -0.284767
H    -0.659035  -0.965276  -0.494226
H    0.188963  0.576945  -0.624848
N    -1.166305  0.452657  2.247845
C    -1.275060  0.319684  3.726440
C    -0.400880  1.347345  4.481571
O    0.869160  1.213582  4.602990
H    -1.987716  0.867203  1.813819
H    -2.319881  0.589072  3.930738
C    -1.115599  -1.110771  4.272669
C    -1.618986  -1.293320  5.718932
C    -3.148174  -1.156451  5.799028
C    -1.156841  -2.652876  6.255920
H    -0.052074  -1.472462  4.262101
H    -1.624966  -1.802754  3.584733
H    -1.161591  -0.507095  6.346320
H    -3.477442  -1.295663  6.835967
H    -3.650048  -1.920007  5.188622
H    -3.520255  -0.170121  5.483829
H    -1.488034  -2.791392  7.291628
H    -0.059961  -2.743717  6.251141
H    -1.571348  -3.480212  5.662916
N    -1.006057  2.375949  5.039510
C    -0.352958  3.435797  5.816569
H    -2.015395  2.446068  4.926230
H    -0.916329  3.591007  6.743313
H    -0.350019  4.367206  5.236306
H    0.672805  3.141008  6.047370
Cd    1.752392  -0.410487  3.560685
