32
Energy: -170820.45524 eV PBE+vdW (tier 2 basis)
C    -3.033938  3.246902  -1.211965
C    -2.055057  3.062658  -0.116476
O    -1.164914  3.960527  0.094914
H    -3.552979  4.210113  -1.119303
H    -3.739597  2.415868  -1.301061
H    -2.452038  3.307409  -2.149148
N    -2.039172  1.947145  0.670171
C    -3.163728  1.276823  1.318035
C    -3.337478  1.887733  2.739169
O    -2.545931  2.767377  3.260431
H    -1.109689  1.646096  0.975788
H    -4.071882  1.543398  0.755525
C    -2.995296  -0.270162  1.331329
C    -4.132443  -1.040646  0.627184
C    -3.766402  -2.527239  0.549397
C    -5.491761  -0.842306  1.309852
H    -2.886837  -0.631128  2.365333
H    -2.045579  -0.503172  0.827774
H    -4.205198  -0.651521  -0.404367
H    -2.814780  -2.684814  0.025258
H    -4.538944  -3.086276  0.007864
H    -3.679286  -2.970978  1.551678
H    -5.846174  0.203850  1.291930
H    -5.476179  -1.210861  2.349851
H    -6.272613  -1.416440  0.795929
N    -4.351708  1.457430  3.453379
C    -4.686112  1.898842  4.813033
H    -4.929673  0.721055  3.039311
H    -5.738843  1.667860  4.996957
H    -4.521632  2.976214  4.908093
H    -4.064416  1.369713  5.546699
Cd    -1.078603  3.928917  2.258475
