32
Energy: -170820.485904 eV PBE+vdW (tier 2 basis)
C    -0.279319  -1.134475  0.095185
C    -0.137905  -0.212203  1.245025
O    1.032715  0.124397  1.645539
H    0.270490  -0.760903  -0.778976
H    -1.321363  -1.357516  -0.150807
H    0.218186  -2.078095  0.382216
N    -1.212633  0.279759  1.925451
C    -2.444027  0.867310  1.395262
C    -2.160893  2.359170  1.070352
O    -1.156984  3.022200  1.545813
H    -1.058773  0.431360  2.926308
H    -2.699174  0.357849  0.455215
C    -3.583684  0.675082  2.426321
C    -5.006473  1.101112  2.013163
C    -5.464671  0.454141  0.699048
C    -5.972138  0.753918  3.156794
H    -3.305278  1.197518  3.357363
H    -3.591457  -0.402737  2.654763
H    -5.028862  2.199991  1.906240
H    -6.495607  0.746015  0.466083
H    -5.444332  -0.643267  0.767138
H    -4.859477  0.726438  -0.185148
H    -6.984111  1.104872  2.922805
H    -5.668959  1.222428  4.102309
H    -6.025204  -0.332270  3.315346
N    -3.027241  2.986931  0.306527
C    -2.974462  4.403065  -0.072059
H    -3.850857  2.457122  0.016243
H    -3.442999  4.514458  -1.054502
H    -1.934692  4.737477  -0.112702
H    -3.522204  5.009213  0.661568
Cd    0.705544  2.202834  2.158353
