32
Energy: -170820.989133 eV PBE+vdW (tier 2 basis)
C    -0.191274  2.106874  0.481004
C    -0.671245  1.816900  1.863355
O    -0.963015  2.823550  2.598874
H    -1.001380  2.605803  -0.072010
H    0.109002  1.204405  -0.062582
H    0.647289  2.813819  0.525056
N    -0.784150  0.536958  2.254596
C    -1.492362  0.031950  3.440361
C    -0.592285  0.021683  4.702666
O    -0.712980  0.983764  5.560417
H    -0.539173  -0.159077  1.552126
H    -2.281069  0.767800  3.683712
C    -2.250444  -1.267787  3.124210
C    -3.067701  -1.835951  4.304252
C    -4.092638  -0.829399  4.844967
C    -3.749302  -3.135036  3.856323
H    -1.559166  -2.031080  2.739906
H    -2.936379  -1.026900  2.295731
H    -2.370922  -2.089028  5.123865
H    -4.705133  -1.293033  5.627574
H    -4.778736  -0.491246  4.054353
H    -3.630642  0.057261  5.310393
H    -4.481296  -2.944992  3.058732
H    -4.285198  -3.596952  4.693978
H    -3.024525  -3.870299  3.480992
N    0.288766  -0.915808  4.980229
C    0.632446  -2.149302  4.262958
H    0.780726  -0.763081  5.864070
H    -0.077663  -2.950849  4.501865
H    1.629788  -2.453254  4.594770
H    0.666999  -1.982003  3.183037
Cd    -1.347193  2.799774  4.682037
