32
Energy: -170820.159856 eV PBE+vdW (tier 2 basis)
C    -0.733610  -1.540841  -1.542032
C    -0.846432  -0.324505  -0.690217
O    0.093084  0.564721  -0.848628
H    -0.746341  -1.248748  -2.601155
H    -1.539669  -2.255517  -1.343439
H    0.236862  -2.021341  -1.352803
N    -1.842504  -0.208284  0.166505
C    -2.133222  0.834306  1.148943
C    -3.147706  0.113301  2.119982
O    -3.826586  -0.783839  1.626842
H    -2.567242  -0.949397  0.232958
H    -1.212188  1.082293  1.714186
C    -2.830204  2.072680  0.493324
C    -2.756425  3.422967  1.236961
C    -1.347885  4.047331  1.216966
C    -3.768990  4.415245  0.651461
H    -3.884830  1.799467  0.339185
H    -2.473088  2.213784  -0.554191
H    -3.003528  3.253084  2.298479
H    -1.266387  5.048913  1.677752
H    -1.055507  4.346037  0.157979
H    -0.581772  3.490914  1.816795
H    -3.729322  5.380361  1.171357
H    -4.789614  4.027027  0.755624
H    -3.588677  4.597017  -0.418573
N    -3.234028  0.571548  3.374122
C    -4.172351  0.008681  4.354673
H    -2.529858  1.216986  3.715762
H    -4.484065  0.799719  5.043612
H    -3.700378  -0.804878  4.919796
H    -5.044632  -0.383317  3.824485
Cd    -0.045080  2.479650  -0.121155
