32
Energy: -170820.535435 eV PBE+vdW (tier 2 basis)
C    -1.216669  -0.164662  -1.164763
C    -0.851603  -0.483043  0.235065
O    0.281982  -0.997389  0.506982
H    -0.589849  0.659570  -1.539299
H    -2.277134  0.069647  -1.291512
H    -0.954276  -1.036282  -1.785093
N    -1.696100  -0.234403  1.285948
C    -2.477491  0.973581  1.559244
C    -1.520904  2.173219  1.735936
O    -0.286990  2.024091  2.063686
H    -1.620337  -0.896457  2.058649
H    -3.148438  1.170839  0.711463
C    -3.334537  0.758785  2.834127
C    -2.650743  0.807821  4.222086
C    -3.743968  0.677266  5.303317
C    -1.592985  -0.267145  4.511709
H    -3.866597  -0.197206  2.701954
H    -4.117752  1.528275  2.829289
H    -2.178863  1.796059  4.349862
H    -4.516422  1.445520  5.164034
H    -3.323680  0.808760  6.307381
H    -4.233365  -0.305533  5.264226
H    -0.587386  -0.040122  4.030125
H    -1.888446  -1.284165  4.212609
H    -1.328842  -0.298819  5.576886
N    -1.969232  3.404714  1.578364
C    -3.313557  3.870921  1.221927
H    -1.275007  4.131006  1.766933
H    -3.212479  4.762929  0.595289
H    -3.878361  4.134281  2.125383
H    -3.861573  3.111939  0.656395
Cd    0.716564  0.136089  2.344430
