32
Energy: -170819.755723 eV PBE+vdW (tier 2 basis)
C    -0.930422  2.155479  0.070138
C    -0.380448  1.322101  1.173124
O    0.867240  1.511814  1.494338
H    -2.020726  2.093815  -0.000139
H    -0.476836  1.862566  -0.887940
H    -0.634962  3.199704  0.245893
N    -1.078644  0.424122  1.841252
C    -2.312263  -0.290599  1.538827
C    -2.564436  -1.046108  2.874696
O    -1.612380  -1.144254  3.669281
H    -0.716680  0.004340  2.734371
H    -3.130729  0.411728  1.330000
C    -2.128489  -1.228802  0.304312
C    -1.130514  -2.403971  0.351778
C    0.372364  -2.045692  0.592683
C    -1.555543  -3.600904  1.202529
H    -1.882469  -0.576784  -0.547264
H    -3.116747  -1.650321  0.070266
H    -1.093039  -2.746126  -0.701628
H    0.487466  -1.871116  1.703564
H    1.028713  -2.890326  0.352039
H    0.665302  -1.187436  -0.040213
H    -2.572415  -3.917360  0.934022
H    -0.895802  -4.458818  1.022738
H    -1.538500  -3.393762  2.279800
N    -3.772782  -1.567302  3.130957
C    -4.981053  -1.546098  2.319023
H    -3.826319  -2.044508  4.032413
H    -5.849949  -1.440544  2.978633
H    -5.091721  -2.486684  1.757124
H    -4.978592  -0.705385  1.618683
Cd    1.979064  -0.231514  1.940156
