32
Energy: -170820.687872 eV PBE+vdW (tier 2 basis)
C    0.139579  -1.226273  1.427384
C    -0.145513  -0.385998  2.610562
O    0.689673  -0.085513  3.462927
H    -0.285699  -0.792196  0.511265
H    -0.360459  -2.202441  1.563766
H    1.215192  -1.392946  1.319211
N    -1.507183  0.107246  2.875520
C    -2.070569  1.215318  2.034979
C    -1.319403  2.537626  2.267569
O    -0.749058  2.822704  3.370283
H    -2.174227  -0.672874  2.844981
H    -1.963114  0.960735  0.970143
C    -3.593826  1.371915  2.343443
C    -4.146255  1.062108  3.758880
C    -3.575440  1.881925  4.926096
C    -5.673122  1.285252  3.718336
H    -4.128978  0.719047  1.639885
H    -3.882766  2.397714  2.070720
H    -3.992979  -0.007592  3.979665
H    -4.262825  1.898281  5.783315
H    -3.319744  2.918559  4.674873
H    -2.671525  1.388171  5.414538
H    -6.139957  0.954058  4.653518
H    -6.132029  0.715702  2.899618
H    -5.916443  2.346666  3.573158
N    -1.308517  3.433255  1.292147
C    -1.888095  3.338834  -0.054208
H    -0.842956  4.308612  1.536131
H    -1.589237  4.233700  -0.606720
H    -2.983692  3.304266  -0.020915
H    -1.501820  2.465367  -0.593873
Cd    -0.691251  1.211610  4.805895
