32
Energy: -170819.560441 eV PBE+vdW (tier 2 basis)
C    -2.084100  3.130026  1.399829
C    -1.592430  2.090038  2.362268
O    -0.612230  2.472697  3.114906
H    -3.016629  3.565157  1.791447
H    -2.282537  2.695997  0.412030
H    -1.346338  3.931587  1.305767
N    -2.138338  0.895139  2.436414
C    -3.235180  0.334522  1.625759
C    -3.827168  -0.752725  2.543084
O    -3.081665  -1.299903  3.363674
H    -1.819586  0.201258  3.129152
H    -3.956836  1.126431  1.393922
C    -2.668838  -0.327551  0.339278
C    -3.709677  -0.851286  -0.665345
C    -4.491785  0.273752  -1.354595
C    -3.037160  -1.776798  -1.680553
H    -2.006766  -1.147596  0.657373
H    -2.026290  0.412362  -0.164741
H    -4.437385  -1.481552  -0.108541
H    -5.279185  -0.131888  -2.000958
H    -3.817365  0.863469  -1.995700
H    -4.973435  0.977053  -0.658889
H    -2.260875  -1.237624  -2.249419
H    -3.763926  -2.158404  -2.407841
H    -2.551530  -2.635549  -1.198146
N    -5.120213  -1.163166  2.419481
C    -6.262989  -0.489256  1.835184
H    -5.323218  -1.971277  3.015262
H    -6.872513  -1.220459  1.285216
H    -5.957096  0.308562  1.156219
H    -6.898850  -0.068429  2.632247
Cd    0.544006  1.680615  4.717518
