32
Energy: -170821.108541 eV PBE+vdW (tier 2 basis)
C    -1.622534  -1.104482  0.395733
C    -1.222898  -0.293074  1.588174
O    -0.048527  -0.474850  2.039849
H    -0.939379  -0.874659  -0.433647
H    -2.654995  -0.933267  0.073899
H    -1.487801  -2.168879  0.631632
N    -2.135195  0.562312  2.084307
C    -2.183857  1.463465  3.266186
C    -1.175237  2.623900  3.203719
O    0.087572  2.494342  3.364785
H    -3.008017  0.549723  1.563334
H    -3.156226  1.950054  3.135779
C    -2.335471  0.762884  4.658814
C    -1.458674  -0.421810  5.131728
C    -0.068214  -0.026500  5.705995
C    -2.226439  -1.209236  6.210194
H    -3.367001  0.384405  4.651318
H    -2.329985  1.562146  5.417792
H    -1.315455  -1.111406  4.285814
H    0.039133  -0.266986  6.777726
H    0.152644  1.059622  5.698966
H    0.770346  -0.677160  5.321481
H    -2.455676  -0.575095  7.078180
H    -1.638429  -2.066673  6.560702
H    -3.172563  -1.598204  5.813600
N    -1.637619  3.851075  3.019703
C    -3.016604  4.317913  2.815901
H    -0.910472  4.568790  3.027714
H    -2.979466  5.401097  2.669860
H    -3.640875  4.115861  3.694915
H    -3.458948  3.871873  1.917083
Cd    1.000860  0.584819  3.544765
