32
Energy: -170820.073814 eV PBE+vdW (tier 2 basis)
C    0.598146  0.668095  0.903563
C    -0.307962  -0.161011  1.745038
O    0.215932  -0.713309  2.791938
H    1.009349  1.488633  1.507781
H    0.091602  1.074528  0.021218
H    1.449177  0.050572  0.582096
N    -1.579024  -0.318408  1.390509
C    -2.619211  -1.133860  2.039342
C    -3.672431  -1.377709  0.898992
O    -4.253066  -0.372954  0.497453
H    -1.915457  0.223923  0.590786
H    -2.171448  -2.102379  2.340218
C    -3.295684  -0.335299  3.199026
C    -4.068616  -1.106279  4.293155
C    -5.145595  -2.059891  3.755575
C    -3.153236  -1.852882  5.283140
H    -3.977916  0.366830  2.690302
H    -2.558938  0.351471  3.674903
H    -4.570368  -0.326374  4.886885
H    -5.762009  -2.448496  4.575002
H    -4.719096  -2.922896  3.225159
H    -5.812963  -1.529664  3.064716
H    -3.665079  -2.307782  6.151484
H    -2.477905  -1.139654  5.853785
H    -2.667322  -2.760441  4.839878
N    -3.823457  -2.626917  0.445214
C    -4.750933  -2.974714  -0.636512
H    -3.241089  -3.367193  0.822892
H    -4.194997  -3.234843  -1.545635
H    -5.390306  -2.111075  -0.838273
H    -5.367019  -3.827807  -0.331373
Cd    -0.913254  -1.370375  4.403587
