32
Energy: -170819.677531 eV PBE+vdW (tier 2 basis)
C    -1.850488  1.484932  -0.280702
C    -1.250986  1.238537  1.070715
O    -0.336654  2.069763  1.434050
H    -1.219405  2.176052  -0.846041
H    -2.843408  1.944893  -0.158039
H    -1.964280  0.550799  -0.844763
N    -1.641889  0.230430  1.831974
C    -2.648618  -0.797640  1.551839
C    -3.182462  -1.151810  2.959808
O    -2.458804  -0.978178  3.940422
H    -1.273107  0.119918  2.788578
H    -3.441484  -0.378526  0.918409
C    -1.965245  -2.015770  0.841737
C    -2.859428  -3.160255  0.331409
C    -3.224864  -4.200708  1.384582
C    -4.049769  -2.694006  -0.509439
H    -1.193668  -2.409699  1.519507
H    -1.436504  -1.576235  -0.018583
H    -2.185314  -3.694076  -0.375032
H    -3.728904  -5.064058  0.931278
H    -3.929890  -3.795255  2.135080
H    -2.346849  -4.563472  1.934890
H    -4.841005  -2.227895  0.104982
H    -4.526546  -3.541823  -1.015946
H    -3.759877  -1.969166  -1.282811
N    -4.447443  -1.637976  3.049384
C    -5.082177  -1.960039  4.314235
H    -5.018405  -1.653269  2.205566
H    -5.798864  -2.774750  4.157422
H    -5.635138  -1.089932  4.706777
H    -4.314517  -2.239593  5.043158
Cd    0.601098  2.771376  3.229594
