32
Energy: -170819.704222 eV PBE+vdW (tier 2 basis)
C    0.003965  -0.506253  0.225146
C    -0.340957  -0.187827  1.647310
O    0.670223  -0.133423  2.452502
H    -0.658085  0.019579  -0.474633
H    -0.107630  -1.590282  0.070510
H    1.045715  -0.241447  0.022529
N    -1.583152  -0.014375  2.049874
C    -2.827880  0.001134  1.273847
C    -3.816153  0.690728  2.246268
O    -3.448591  1.003347  3.382686
H    -1.798958  0.293945  3.019337
H    -2.696743  0.670508  0.405095
C    -3.280599  -1.380961  0.738295
C    -3.324850  -2.557913  1.734722
C    -4.337473  -2.379453  2.870008
C    -3.580658  -3.848698  0.953171
H    -2.623332  -1.633110  -0.106395
H    -4.278498  -1.260650  0.283756
H    -2.317304  -2.629552  2.193063
H    -4.410458  -3.294786  3.470891
H    -5.345405  -2.188781  2.466124
H    -4.083534  -1.565839  3.561107
H    -3.536148  -4.718255  1.623216
H    -2.846794  -4.000173  0.150789
H    -4.582374  -3.854898  0.496419
N    -5.066347  0.936936  1.782022
C    -6.098254  1.582939  2.565010
H    -5.274686  0.720345  0.808339
H    -6.191607  2.645111  2.276344
H    -5.839937  1.527729  3.626148
H    -7.063693  1.100733  2.361283
Cd    1.097006  0.680872  4.369397
