32
Energy: -170821.219972 eV PBE+vdW (tier 2 basis)
C    -0.208859  -0.866493  0.202107
C    -0.084007  -0.355947  1.603293
O    1.090447  -0.103812  2.021248
H    -1.239133  -1.090092  -0.093405
H    0.402213  -1.773907  0.101547
H    0.214407  -0.121421  -0.485509
N    -1.219116  -0.202175  2.307388
C    -1.525937  0.184555  3.711176
C    -1.140467  1.636973  4.057134
O    0.052890  2.057970  4.231244
H    -2.049504  -0.451373  1.776341
H    -2.623220  0.198154  3.705232
C    -1.202371  -0.894794  4.798865
C    0.147046  -1.646011  4.900317
C    1.284125  -0.865436  5.619291
C    -0.079270  -2.974660  5.646488
H    -1.961732  -1.671264  4.631689
H    -1.459993  -0.448808  5.773165
H    0.479845  -1.911018  3.885175
H    2.269142  -0.912579  5.069621
H    1.615194  -1.349183  6.554352
H    1.004920  0.145111  5.979716
H    0.856420  -3.541893  5.727033
H    -0.802459  -3.605182  5.114347
H    -0.461561  -2.800529  6.662145
N    -2.136586  2.489615  4.230106
C    -1.953374  3.896540  4.607733
H    -3.089113  2.158511  4.104414
H    -2.938243  4.365908  4.667939
H    -1.345293  4.412588  3.855618
H    -1.454480  3.964726  5.581768
Cd    1.722499  0.803636  3.827951
