32
Energy: -170820.750098 eV PBE+vdW (tier 2 basis)
C    -0.580196  1.106182  -0.014668
C    -0.392410  0.712630  1.412117
O    0.689560  1.095727  1.982031
H    -0.625390  2.203670  -0.073933
H    -1.491860  0.684503  -0.451624
H    0.294014  0.791085  -0.599151
N    -1.352273  -0.002921  2.016182
C    -1.445180  -0.278657  3.451605
C    -0.520920  -1.437276  3.917312
O    0.492972  -1.125569  4.665692
H    -2.187457  -0.207844  1.465790
H    -0.992517  0.594226  3.961248
C    -2.892736  -0.243800  4.011899
C    -4.041626  -1.138588  3.498933
C    -5.285978  -0.795721  4.335523
C    -4.355605  -0.977309  2.003039
H    -3.205775  0.807432  3.895618
H    -2.785931  -0.396421  5.097026
H    -3.799774  -2.190968  3.704802
H    -6.121642  -1.449964  4.059045
H    -5.607369  0.242060  4.168024
H    -5.103840  -0.926263  5.410064
H    -5.289809  -1.494988  1.752152
H    -3.601951  -1.420863  1.327174
H    -4.501327  0.079596  1.730580
N    -0.676379  -2.713703  3.640027
C    -1.659055  -3.425937  2.824184
H    0.041684  -3.304292  4.069577
H    -2.322198  -4.018768  3.465878
H    -1.112161  -4.107475  2.161048
H    -2.247704  -2.733877  2.222591
Cd    1.407147  0.644401  3.931186
