32
Energy: -170820.847044 eV PBE+vdW (tier 2 basis)
C    0.405834  0.925532  -0.332126
C    0.335313  0.750007  1.133966
O    1.267090  0.978462  1.905415
H    1.333567  1.428499  -0.619602
H    -0.470191  1.469638  -0.714227
H    0.375868  -0.071602  -0.807587
N    -0.881150  0.221543  1.774681
C    -2.104591  1.091284  1.881453
C    -1.843924  2.301590  2.800408
O    -1.052936  2.238044  3.794256
H    -1.170261  -0.650936  1.316853
H    -2.372229  1.464219  0.879828
C    -3.284565  0.235955  2.413550
C    -3.379501  -0.143773  3.911943
C    -4.732864  -0.848553  4.135462
C    -2.280268  -1.069465  4.462888
H    -3.336896  -0.676270  1.794573
H    -4.197851  0.795868  2.166031
H    -3.387357  0.780235  4.511294
H    -4.780994  -1.808221  3.602296
H    -5.561971  -0.222361  3.779946
H    -4.901527  -1.043742  5.201231
H    -2.603403  -1.578724  5.382147
H    -1.379164  -0.505510  4.873241
H    -1.942063  -1.841745  3.759574
N    -2.537606  3.397608  2.547940
C    -2.517141  4.618696  3.361712
H    -3.160589  3.389872  1.742647
H    -2.404483  5.484029  2.699725
H    -1.679244  4.573482  4.060679
H    -3.458220  4.710355  3.918252
Cd    0.159515  0.437268  3.871096
