32
Energy: -170820.029706 eV PBE+vdW (tier 2 basis)
C    0.011951  1.062535  0.502707
C    -0.364193  0.245493  1.689362
O    0.516971  0.202062  2.648766
H    0.193460  2.100265  0.814749
H    -0.760367  1.036567  -0.273679
H    0.957321  0.680832  0.091325
N    -1.520445  -0.389260  1.714625
C    -2.073969  -1.299709  2.717662
C    -3.201722  -2.049274  1.910383
O    -3.727986  -1.394000  1.012556
H    -2.191542  -0.291475  0.929625
H    -1.293396  -2.020634  3.028246
C    -2.725588  -0.511332  3.902865
C    -2.920477  -1.231828  5.253033
C    -1.593352  -1.538020  5.970866
C    -3.829559  -0.405807  6.171459
H    -3.698341  -0.144969  3.541556
H    -2.173837  0.443065  4.080237
H    -3.398093  -2.207116  5.067596
H    -1.691094  -2.000019  6.970463
H    -1.087979  -0.573072  6.311035
H    -0.945643  -2.291931  5.457157
H    -3.411997  0.593364  6.366935
H    -3.981233  -0.904630  7.136625
H    -4.816671  -0.269301  5.713093
N    -3.563358  -3.295262  2.248614
C    -2.956070  -4.251849  3.166710
H    -4.339194  -3.643133  1.683487
H    -3.617755  -4.460448  4.017970
H    -1.994134  -3.885318  3.540530
H    -2.763631  -5.194217  2.639633
Cd    0.070686  -0.472768  4.536548
