32
Energy: -170820.379586 eV PBE+vdW (tier 2 basis)
C    0.237637  -0.115270  0.102500
C    0.114406  0.142115  1.555224
O    1.162899  0.145211  2.290273
H    0.991369  0.540448  -0.352379
H    -0.718345  -0.059244  -0.425921
H    0.627522  -1.143874  -0.004138
N    -1.091659  0.349800  2.162954
C    -2.190837  1.236104  1.766997
C    -1.797716  2.684800  2.160224
O    -0.964749  2.965466  3.107579
H    -1.167845  -0.024466  3.112852
H    -2.301836  1.201424  0.673433
C    -3.491730  0.723241  2.431621
C    -4.787700  1.534092  2.192275
C    -5.985004  0.575984  2.104804
C    -5.023308  2.590840  3.281244
H    -3.320261  0.631037  3.518430
H    -3.616255  -0.298373  2.042941
H    -4.713095  2.033531  1.206123
H    -5.881287  -0.132163  1.272377
H    -6.916020  1.135511  1.954190
H    -6.094206  -0.000809  3.034122
H    -4.164146  3.255091  3.452327
H    -5.249654  2.103316  4.240001
H    -5.883075  3.223922  3.030193
N    -2.377879  3.670362  1.510500
C    -2.210619  5.100026  1.787301
H    -3.106234  3.413189  0.843941
H    -2.339873  5.651207  0.850862
H    -1.214589  5.283514  2.197723
H    -2.968383  5.431533  2.510532
Cd    0.678069  1.741102  3.679116
