32
Energy: -170820.95599 eV PBE+vdW (tier 2 basis)
C    -0.618132  1.619442  0.024307
C    -1.063984  1.036837  1.322963
O    -1.587842  1.841062  2.170296
H    -1.510008  1.949510  -0.530516
H    -0.062280  0.904036  -0.591746
H    -0.006245  2.511079  0.208925
N    -0.913544  -0.281437  1.522530
C    -1.541890  -1.104845  2.566015
C    -0.730735  -1.092421  3.885862
O    -1.128417  -0.334255  4.856835
H    -0.526626  -0.798518  0.734986
H    -2.499387  -0.617148  2.838506
C    -1.931044  -2.501769  2.039981
C    -3.313559  -2.570984  1.350096
C    -3.443064  -1.655838  0.125841
C    -3.602854  -4.031263  0.981236
H    -1.939892  -3.195748  2.893351
H    -1.152337  -2.869455  1.351695
H    -4.062324  -2.257214  2.100075
H    -4.414053  -1.814898  -0.358828
H    -2.672046  -1.876997  -0.628414
H    -3.395925  -0.584109  0.371158
H    -4.611956  -4.125873  0.562479
H    -3.543706  -4.694895  1.854015
H    -2.896859  -4.399809  0.223093
N    0.332669  -1.836864  4.104314
C    0.997673  -2.825709  3.248341
H    0.726716  -1.723097  5.041597
H    0.543688  -3.816729  3.372803
H    2.046170  -2.876478  3.558335
H    0.962041  -2.526526  2.197934
Cd    -2.085261  1.430607  4.187142
