32
Energy: -170821.133297 eV PBE+vdW (tier 2 basis)
C    -0.122214  1.322841  0.566205
C    -0.350492  0.721134  1.912092
O    0.505430  1.003600  2.824185
H    -0.185572  2.417623  0.661148
H    -0.851934  0.988190  -0.179104
H    0.895528  1.090973  0.227092
N    -1.428702  -0.054649  2.099617
C    -2.042563  -0.473773  3.378329
C    -1.470930  -1.831174  3.843978
O    -0.415854  -1.880638  4.587170
H    -2.009256  -0.195256  1.273881
H    -1.735237  0.259957  4.146940
C    -3.576378  -0.369289  3.280839
C    -4.331840  -0.270410  4.629661
C    -4.298834  -1.549685  5.474017
C    -3.894814  0.954864  5.442945
H    -3.983122  -1.193956  2.668998
H    -3.782973  0.548809  2.709619
H    -5.378631  -0.104637  4.330042
H    -4.966933  -1.444509  6.337413
H    -3.298442  -1.763063  5.883564
H    -4.642525  -2.430547  4.913166
H    -4.572806  1.107464  6.291306
H    -3.907252  1.878277  4.847561
H    -2.889597  0.834281  5.881876
N    -2.052217  -2.947909  3.476415
C    -1.619057  -4.298577  3.850177
H    -2.937896  -2.863703  2.980226
H    -1.881484  -4.984314  3.038844
H    -2.132794  -4.610052  4.769677
H    -0.539018  -4.307550  4.016381
Cd    0.743735  -0.116835  4.595460
