32
Energy: -170821.08151 eV PBE+vdW (tier 2 basis)
C    -0.301287  -1.072686  0.380440
C    -0.323028  -0.525573  1.770626
O    0.526621  -1.010166  2.591816
H    -1.029590  -0.597165  -0.285024
H    -0.510975  -2.151428  0.429208
H    0.709162  -0.964107  -0.035332
N    -1.229111  0.423577  2.061905
C    -1.690618  0.999146  3.353843
C    -0.761833  2.127565  3.853864
O    0.369199  1.883863  4.412120
H    -1.798677  0.697736  1.264978
H    -2.647857  1.467185  3.097010
C    -2.026134  -0.022077  4.455703
C    -2.913157  0.548834  5.581542
C    -4.352023  0.775502  5.088759
C    -2.886270  -0.391478  6.791828
H    -1.116282  -0.446718  4.959200
H    -2.496610  -0.899573  3.987171
H    -2.489201  1.519550  5.897482
H    -4.953924  1.216106  5.892972
H    -4.827476  -0.172848  4.802681
H    -4.421462  1.459401  4.229852
H    -3.507872  0.004730  7.603166
H    -1.868334  -0.512340  7.192576
H    -3.275035  -1.386850  6.534231
N    -1.128744  3.388529  3.736316
C    -2.367543  3.948461  3.175746
H    -0.457896  4.058119  4.119848
H    -2.223152  5.027357  3.069285
H    -3.215855  3.776022  3.849638
H    -2.576446  3.538743  2.181482
Cd    1.007095  -0.138793  4.455346
