32
Energy: -170820.70233 eV PBE+vdW (tier 2 basis)
C    0.700200  0.937027  0.250945
C    0.525086  0.941522  1.719094
O    1.434286  1.127621  2.525960
H    -0.054444  1.566385  -0.243421
H    0.534258  -0.088848  -0.123592
H    1.709732  1.258885  -0.020172
N    -0.789991  0.657365  2.327613
C    -1.918962  1.644368  2.194265
C    -1.588085  2.946097  2.942067
O    -0.782810  2.966845  3.930571
H    -1.139820  -0.245391  1.985140
H    -2.061966  1.884821  1.130026
C    -3.220805  0.970993  2.706046
C    -3.490922  0.726542  4.216990
C    -2.487358  -0.148327  4.982988
C    -3.864227  1.987015  5.008285
H    -3.299702  0.013003  2.165590
H    -4.056379  1.574910  2.324825
H    -4.400713  0.099496  4.193320
H    -2.927232  -0.547000  5.908415
H    -1.636497  0.467892  5.424008
H    -2.089137  -0.999774  4.416385
H    -4.262103  1.714518  5.993866
H    -4.646569  2.561264  4.495922
H    -3.007865  2.652604  5.182593
N    -2.174280  4.073581  2.574788
C    -3.163271  4.319934  1.522123
H    -1.933294  4.872525  3.164807
H    -3.006699  5.331406  1.134176
H    -4.181588  4.249367  1.926084
H    -3.051015  3.614724  0.693005
Cd    0.120064  1.063515  4.445821
