32
Energy: -170821.137046 eV PBE+vdW (tier 2 basis)
C    -0.589612  1.548536  0.870302
C    -0.535302  0.113914  1.274385
O    0.550641  -0.518566  1.017538
H    0.121483  2.107060  1.499337
H    -1.586161  1.986004  0.995636
H    -0.254994  1.657668  -0.168356
N    -1.595255  -0.418057  1.898452
C    -1.668641  -1.642239  2.724759
C    -2.090373  -2.858251  1.864783
O    -1.219233  -3.525789  1.186008
H    -2.376013  0.222545  2.033199
H    -0.646060  -1.869670  3.083912
C    -2.543860  -1.401270  3.968628
C    -1.879661  -0.638365  5.141624
C    -1.416729  0.783868  4.801024
C    -2.858495  -0.626710  6.323280
H    -2.844656  -2.386210  4.355927
H    -3.471503  -0.878261  3.668643
H    -0.995057  -1.227755  5.442076
H    -1.065292  1.285987  5.710640
H    -2.240437  1.396743  4.402352
H    -0.577102  0.813024  4.092282
H    -2.387543  -0.172397  7.203078
H    -3.176013  -1.639400  6.605222
H    -3.758212  -0.038372  6.091765
N    -3.351152  -3.222165  1.830997
C    -3.902950  -4.343243  1.060407
H    -3.994085  -2.714639  2.437808
H    -4.035667  -5.212490  1.717583
H    -3.222928  -4.600612  0.245360
H    -4.876412  -4.043250  0.658955
Cd    0.672372  -2.620888  0.951213
