32
Energy: -170821.195006 eV PBE+vdW (tier 2 basis)
C    -0.013097  0.866387  0.049733
C    -0.036855  0.400664  1.468971
O    1.074241  0.004501  1.961174
H    -0.985783  1.221667  -0.306588
H    0.317318  0.030039  -0.583816
H    0.736575  1.661206  -0.058947
N    -1.208754  0.425693  2.124359
C    -1.649133  -0.197682  3.400717
C    -1.302218  0.663011  4.635006
O    -0.109009  0.761676  5.097806
H    -1.973588  0.804959  1.571590
H    -2.744126  -0.199154  3.320285
C    -1.254987  -1.677099  3.588474
C    -1.587984  -2.625027  2.417061
C    -1.075921  -4.031724  2.744772
C    -3.094740  -2.628187  2.117943
H    -1.752845  -2.021511  4.509279
H    -0.164375  -1.821807  3.805606
H    -1.052086  -2.268806  1.521180
H    0.007369  -4.042059  2.935852
H    -1.261191  -4.710692  1.904059
H    -1.582818  -4.449843  3.625553
H    -3.680380  -2.929540  2.998201
H    -3.310436  -3.351625  1.321944
H    -3.471421  -1.656092  1.766784
N    -2.289303  1.284027  5.248549
C    -2.158513  2.104541  6.458750
H    -3.221925  1.201022  4.848809
H    -2.169134  3.168139  6.187805
H    -1.220953  1.863629  6.964942
H    -3.006646  1.891405  7.117767
Cd    1.412721  -0.256719  4.029382
