32
Energy: -170819.46964 eV PBE+vdW (tier 2 basis)
C    0.654324  0.642318  0.941551
C    -0.122210  -0.404894  1.674002
O    0.394799  -1.587083  1.639682
H    1.723143  0.512320  1.147977
H    0.345522  1.658842  1.204822
H    0.511203  0.494254  -0.139203
N    -1.246321  -0.141590  2.317548
C    -1.990159  1.125453  2.425417
C    -2.847625  0.905144  3.692790
O    -3.313257  -0.219490  3.891848
H    -1.766243  -0.904477  2.771625
H    -1.282598  1.953311  2.540644
C    -2.879498  1.304003  1.151033
C    -3.653462  2.620772  0.964958
C    -4.867033  2.779003  1.873482
C    -2.759892  3.863049  0.900040
H    -3.576046  0.452350  1.122675
H    -2.191602  1.186636  0.299922
H    -4.071117  2.501083  -0.059516
H    -5.472407  3.645443  1.576154
H    -4.578054  2.964258  2.924719
H    -5.511869  1.890245  1.867352
H    -3.331679  4.734580  0.558638
H    -1.919864  3.730206  0.204740
H    -2.349087  4.133492  1.884928
N    -3.087611  1.914651  4.575662
C    -2.395082  3.175564  4.772648
H    -3.692906  1.608173  5.342855
H    -1.704280  3.099746  5.627618
H    -3.131703  3.955163  5.012000
H    -1.842846  3.474118  3.879683
Cd    -0.181252  -3.612369  2.004795
