15
Energy: -235995.504089 eV PBE+vdW (tier 2 basis)
N    -0.336508  -0.173653  -0.108379
C    -0.139032  -0.061816  1.304227
C    1.284830  0.131972  1.816029
O    1.611419  -0.254844  2.983306
H    -0.403679  0.714916  -0.597480
H    0.319739  -0.785262  -0.589335
H    -0.674554  0.835568  1.666506
C    -0.769084  -1.305945  1.998901
O    -0.523898  -1.335300  3.431937
H    -0.353917  -2.216907  1.540520
H    -1.845783  -1.275399  1.789853
H    0.707428  -0.769681  3.382761
O    2.144072  0.693738  1.030570
H    3.027658  0.791954  1.452950
Ba    -1.556492  -2.175135  5.317415
