15
Energy: -235996.899928 eV PBE+vdW (tier 2 basis)
N    -4.093779  -0.022033  0.382064
C    -3.777463  0.085670  1.855097
C    -2.274633  -0.060177  2.089168
O    -1.524725  -0.392292  1.112042
H    -5.043141  -0.457822  0.332331
H    -3.385243  -0.607245  -0.088651
H    -4.117161  0.889590  -0.089998
H    -4.116306  1.072681  2.196033
C    -4.596445  -1.008659  2.576075
O    -5.871867  -0.944340  1.955245
H    -4.627596  -0.768801  3.648491
H    -4.127659  -1.999905  2.443047
H    -6.476930  -1.610830  2.321863
O    -1.834527  0.136881  3.263174
Ba    0.562080  -0.277529  2.649623
