15
Energy: -235996.536069 eV PBE+vdW (tier 2 basis)
N    0.008630  1.136185  2.055244
C    0.510351  0.513493  3.278581
C    1.810786  1.262200  3.634750
O    2.583662  0.878583  4.546080
H    -0.982861  1.369952  2.089342
H    0.190684  0.600235  1.204717
H    -0.192597  0.716238  4.102948
C    0.704698  -1.008076  3.163098
O    1.133178  -1.604488  4.438520
H    1.455252  -1.254275  2.397669
H    -0.251396  -1.460416  2.873997
H    0.611754  -2.417095  4.556831
O    2.039517  2.312587  2.934773
H    1.237909  2.310139  2.274867
Ba    3.156437  -0.900263  6.035584
