15
Energy: -235996.534125 eV PBE+vdW (tier 2 basis)
N    -0.137801  -0.677551  -0.451946
C    0.037649  -1.209971  0.959918
C    0.142196  -0.083128  1.974415
O    0.234823  -0.288993  3.176176
H    -0.180533  -1.459774  -1.123842
H    -0.998184  -0.120201  -0.561778
H    -0.856156  -1.806194  1.189148
C    1.296516  -2.158267  1.021060
O    1.448821  -2.658752  2.284179
H    2.182740  -1.581558  0.682090
H    1.120694  -2.957284  0.271959
H    0.649584  -0.070693  -0.727937
O    0.158976  1.122587  1.407506
H    0.239605  1.828564  2.085668
Ba    1.316068  -2.458786  4.512385
