15
Energy: -235996.07662 eV PBE+vdW (tier 2 basis)
N    -1.716550  -1.072811  -1.756615
C    -1.725244  -0.639446  -0.299048
C    -0.318703  -0.266598  0.190165
O    -0.134664  0.178166  1.288694
H    -0.933010  -1.720356  -1.933089
H    -1.591386  -0.277157  -2.397596
H    -2.358897  0.255542  -0.240841
C    -2.330434  -1.758687  0.569806
O    -3.684410  -1.994673  0.270325
H    -2.185240  -1.428176  1.610971
H    -1.733188  -2.680603  0.436538
H    -2.607191  -1.542500  -1.978694
O    0.613003  -0.535196  -0.753834
H    1.500816  -0.298123  -0.410116
Ba    -5.726902  -2.609387  0.928333
