15
Energy: -235996.154987 eV PBE+vdW (tier 2 basis)
N    0.458692  -0.367255  0.060937
C    0.216014  0.076677  1.457116
C    1.517586  0.054149  2.234981
O    2.445704  -0.700742  1.885496
H    0.584656  0.460104  -0.531075
H    -0.444115  -0.772624  -0.240594
H    -0.235658  1.081059  1.482761
C    -0.785203  -0.946436  2.120831
O    -1.784581  -1.281406  1.189106
H    -1.181668  -0.527355  3.055372
H    -0.242280  -1.872260  2.372371
H    -2.618052  -0.820944  1.384603
O    1.671219  0.758319  3.326577
H    0.920994  1.353770  3.527507
Ba    2.694933  -2.054838  -0.148886
