15
Energy: -235996.3579 eV PBE+vdW (tier 2 basis)
N    -0.323027  -1.295570  0.228697
C    -0.099319  -0.255187  1.258998
C    1.404367  -0.112370  1.502056
O    2.025137  -0.720609  2.395492
H    -1.225514  -1.145626  -0.231276
H    0.378146  -1.280976  -0.514218
H    -0.485133  0.737677  0.979495
C    -0.814554  -0.782028  2.516342
O    -0.482404  -2.194331  2.627375
H    -1.903655  -0.675917  2.416659
H    -0.507874  -0.256788  3.432109
H    -0.481810  -2.435747  1.639508
O    1.980403  0.709736  0.662758
H    2.947323  0.785635  0.824347
Ba    1.593915  -2.637898  4.005655
