15
Energy: -235996.987232 eV PBE+vdW (tier 2 basis)
N    0.160028  -0.492999  0.095503
C    0.112588  -0.143694  1.564529
C    1.529830  -0.341714  2.133179
O    1.689542  -0.278573  3.387999
H    -0.443008  0.098879  -0.488090
H    -0.154049  -1.485747  0.034592
H    -0.151106  0.916677  1.679182
C    -0.940524  -1.038149  2.226982
O    -0.649158  -2.345572  1.734762
H    -1.952747  -0.706634  1.944916
H    -0.834402  -0.959841  3.318741
H    -1.359304  -2.965119  1.971642
O    2.494655  -0.529507  1.317654
H    1.143010  -0.436989  -0.226118
Ba    4.167359  -0.655490  3.287735
