15
Energy: -235996.267453 eV PBE+vdW (tier 2 basis)
N    -0.412742  -0.212950  0.313058
C    -0.169721  -0.218453  1.804571
C    1.368046  -0.193411  1.914352
O    2.053923  -0.374399  0.926342
H    0.532037  -0.459149  -0.093061
H    -1.133596  -0.891536  0.039558
H    -0.611932  0.684138  2.243188
C    -0.764940  -1.484813  2.456086
O    -2.163447  -1.549522  2.339404
H    -0.443471  -1.461437  3.510200
H    -0.293134  -2.372357  1.993892
H    -0.679156  0.711327  -0.047084
O    1.777305  0.009513  3.156338
H    2.758656  0.006507  3.188928
Ba    -4.194829  -2.186458  2.991229
