15
Energy: -235996.285025 eV PBE+vdW (tier 2 basis)
N    0.393636  -1.473863  0.149098
C    -0.422407  -0.316985  0.678473
C    0.313158  0.089465  1.966039
O    1.295974  -0.520866  2.343888
H    1.220348  -1.529114  0.800276
H    -0.136350  -2.352147  0.227640
H    -0.369627  0.511590  -0.041122
C    -1.894467  -0.719704  0.884137
O    -2.033734  -1.816135  1.754080
H    -2.328549  -0.946991  -0.105736
H    -2.410386  0.177121  1.263898
H    0.705093  -1.348504  -0.820934
O    -0.248067  1.139589  2.549721
H    0.293220  1.417797  3.319133
Ba    -3.105840  -3.090250  3.233408
