15
Energy: -235995.867783 eV PBE+vdW (tier 2 basis)
N    4.059215  -0.119656  -0.076607
C    4.051737  -0.600070  1.271174
C    5.444233  -1.080042  1.698857
O    6.510274  -0.724151  1.156504
H    3.925356  -0.837232  -0.786108
H    3.419398  0.652821  -0.238834
H    3.877133  0.260105  1.947477
C    2.964597  -1.654177  1.592133
O    3.157073  -2.081209  2.981462
H    3.043543  -2.518953  0.916126
H    1.974493  -1.195964  1.489284
H    2.579394  -2.830930  3.214146
O    5.539781  -1.894436  2.748967
H    4.503055  -2.144167  3.057752
Ba    8.349693  -1.644335  2.520876
