15
Energy: -235995.924508 eV PBE+vdW (tier 2 basis)
N    -0.193841  1.114240  -0.527649
C    -0.417651  0.731973  0.861992
C    1.022117  0.494077  1.313146
O    1.790933  1.374674  1.754603
H    -0.580939  2.021349  -0.772651
H    -0.468402  0.404610  -1.203436
H    -0.822463  1.569127  1.445050
C    -1.304281  -0.495032  1.075766
O    -0.616099  -1.611708  0.432746
H    -2.279723  -0.337554  0.596984
H    -1.448785  -0.701399  2.146781
H    -1.086593  -2.450652  0.581015
O    1.553814  -0.720160  1.109816
H    0.755737  -1.358116  0.790996
Ba    4.068260  0.432725  1.585216
