15
Energy: -235996.759607 eV PBE+vdW (tier 2 basis)
N    0.267754  -0.466251  0.004686
C    0.188106  -0.258944  1.472217
C    1.586713  -0.509649  2.059395
O    2.328751  -1.353298  1.543433
H    -0.671988  -0.370184  -0.394622
H    0.812101  0.292827  -0.418495
H    -0.164923  0.751169  1.741442
C    -0.807829  -1.262281  2.074623
O    -0.427455  -2.601770  1.651006
H    -1.820801  -1.033948  1.710167
H    -0.806974  -1.199221  3.171875
H    -0.984033  -3.240231  2.130747
O    1.984156  0.116908  3.139112
H    1.368871  0.808760  3.455146
Ba    1.507239  -3.013259  -0.167451
