15
Energy: -235996.982843 eV PBE+vdW (tier 2 basis)
N    -0.715357  -0.872388  0.141383
C    0.021446  -0.158774  1.217346
C    1.432407  -0.744806  1.291618
O    1.655859  -1.937937  1.038503
H    -1.683415  -0.533862  0.127909
H    -0.332620  -0.598501  -0.769926
H    0.095760  0.927273  1.051265
C    -0.695913  -0.367893  2.556220
O    -0.866003  -1.802488  2.768197
H    -1.682906  0.117024  2.524344
H    -0.112056  0.070015  3.376955
H    -1.212476  -1.936425  3.667928
O    2.336783  0.117364  1.678723
H    3.225125  -0.297209  1.756456
Ba    -0.311739  -3.563347  0.836945
