20
Energy: -605157.068182 eV PBE+vdW (tier 2 basis)
N    0.600987  -0.747302  0.130142
C    -0.030635  0.071437  1.159517
C    1.033313  0.745797  2.000536
O    1.932086  1.451997  1.422550
H    1.413389  -0.292325  -0.288707
H    -0.054746  -0.935536  -0.630796
H    -0.566804  0.956611  0.744520
C    -1.095001  -0.741696  1.929412
C    -0.664887  -2.173441  2.326357
C    -0.311554  -2.393940  3.752001
O    0.218894  -1.502585  4.506266
O    -0.481751  -3.523402  4.358062
H    -1.947847  -0.845784  1.246094
H    -1.487568  -0.168553  2.780542
H    -1.432953  -2.905803  2.043604
H    0.228897  -2.439454  1.719025
O    1.046771  0.686450  3.294247
H    0.406653  -0.633078  4.027436
H    -0.907170  -4.206049  3.799971
Pb    2.911195  2.192036  3.343251
