20
Energy: -605156.111362 eV PBE+vdW (tier 2 basis)
N    -0.109950  -1.441051  0.141964
C    -0.200833  -0.471699  1.187835
C    1.174357  -0.159658  1.826375
O    2.119642  -0.880451  1.899755
H    0.102524  -1.099659  -0.791335
H    0.369984  -2.312002  0.363040
H    -0.576313  0.464550  0.748918
C    -1.204204  -0.999702  2.256760
C    -1.348594  -0.227656  3.602215
C    -1.835131  1.181168  3.489735
O    -3.033268  1.476108  3.828653
O    -1.084015  2.142789  3.057989
H    -0.902343  -2.018505  2.538162
H    -2.180189  -1.087815  1.763156
H    -0.383074  -0.204846  4.132486
H    -2.057593  -0.777933  4.230937
O    1.185331  1.144714  2.355369
H    2.074185  1.318852  2.733520
H    -0.134743  1.820806  2.805371
Pb    -4.232435  3.317305  4.079005
