20
Energy: -605157.748689 eV PBE+vdW (tier 2 basis)
N    0.092445  0.402139  -0.318911
C    -0.183781  -0.057482  1.107769
C    1.099270  0.223994  1.922839
O    2.171872  -0.227850  1.530195
H    0.134469  1.429323  -0.410240
H    -0.640621  0.063538  -0.962310
H    -1.032304  0.539555  1.467875
C    -0.537642  -1.567685  1.060977
C    -0.457060  -2.345612  2.395821
C    0.983811  -2.528991  2.815570
O    1.410133  -1.971907  3.888074
O    1.802006  -3.116659  2.022969
H    0.133764  -2.065806  0.344546
H    -1.562710  -1.648457  0.672182
H    -0.898221  -3.336897  2.218454
H    -1.024858  -1.869357  3.204103
O    1.020137  0.887713  3.056343
H    0.124713  1.198041  3.297409
H    0.998703  0.018043  -0.638076
Pb    3.568874  -2.011645  3.032411
