20
Energy: -605156.484835 eV PBE+vdW (tier 2 basis)
N    0.333524  0.052218  -0.002201
C    -0.385933  0.116375  1.178959
C    0.471148  0.685875  2.324885
O    1.600680  0.448422  2.586595
H    0.052137  -0.595639  -0.731322
H    0.916747  0.824919  -0.307391
H    -1.303315  0.873177  1.104409
C    -0.983158  -1.277599  1.530509
C    -1.525521  -1.566432  2.945200
C    -2.874222  -0.999645  3.306846
O    -3.230980  0.177917  3.050278
O    -3.751642  -1.718000  3.950483
H    -0.156877  -1.985074  1.375001
H    -1.747283  -1.512739  0.776143
H    -0.826780  -1.220843  3.728544
H    -1.552606  -2.658815  3.061890
O    -0.310672  1.573430  3.134623
H    0.261920  1.903430  3.863398
H    -3.465946  -2.639252  4.120079
Pb    -2.567629  2.227784  2.402906
