20
Energy: -605156.070164 eV PBE+vdW (tier 2 basis)
N    -0.041549  -0.020126  0.062477
C    0.192261  -0.047207  1.470891
C    1.690815  -0.100084  1.853256
O    2.636244  -0.220437  1.143094
H    0.193049  0.848238  -0.413915
H    0.283496  -0.830662  -0.463308
H    -0.172863  0.909022  1.883575
C    -0.556656  -1.241649  2.152359
C    -1.668009  -0.861069  3.136873
C    -1.300947  -0.373400  4.506590
O    -2.247535  -0.280966  5.371247
O    -0.121469  -0.040032  4.892187
H    0.146389  -1.942574  2.622962
H    -1.043369  -1.806334  1.347878
H    -2.334836  -1.722398  3.305718
H    -2.338252  -0.091525  2.711074
O    1.816159  0.020255  3.252809
H    2.766001  -0.016448  3.492442
H    0.651984  -0.072377  4.190558
Pb    -2.575730  0.241990  7.479985
