20
Energy: -605156.948827 eV PBE+vdW (tier 2 basis)
N    0.145632  -0.586577  -0.223668
C    0.045805  -0.118962  1.125075
C    1.379282  0.453927  1.581231
O    2.405853  0.471839  0.830967
H    -0.738839  -0.592973  -0.724038
H    0.620875  -1.479480  -0.338273
H    -0.614934  0.769234  1.108195
C    -0.510417  -1.116911  2.223967
C    -1.775110  -0.683658  2.979766
C    -1.650489  0.360918  4.047226
O    -0.610483  1.058410  4.287126
O    -2.636783  0.644654  4.836532
H    0.269808  -1.417491  2.938528
H    -0.775362  -2.031057  1.679185
H    -2.224720  -1.566244  3.467138
H    -2.553575  -0.323394  2.281698
O    1.489184  0.957167  2.780786
H    0.195563  0.917715  3.670723
H    -3.439310  0.106117  4.677695
Pb    3.739073  1.591208  2.302862
