20
Energy: -605156.986783 eV PBE+vdW (tier 2 basis)
N    -0.242909  1.264138  1.449718
C    -0.551671  0.140455  2.310767
C    0.234962  0.344222  3.603375
O    1.328189  -0.259940  3.902929
H    -0.747962  2.131044  1.614633
H    0.742301  1.429746  1.254018
H    -1.621868  0.189158  2.570511
C    -0.277204  -1.172957  1.554790
C    -0.597155  -2.505673  2.273121
C    0.594862  -3.306136  2.695826
O    0.548787  -4.584377  2.723926
O    1.704058  -2.727330  3.048887
H    0.757571  -1.167843  1.180403
H    -0.901940  -1.104657  0.656289
H    -1.214677  -3.158492  1.643002
H    -1.202097  -2.354789  3.186930
O    -0.067334  1.266193  4.464623
H    -0.881920  1.759576  4.238375
H    1.509563  -1.106222  3.381810
Pb    2.687880  -4.863339  3.444424
