20
Energy: -605158.084552 eV PBE+vdW (tier 2 basis)
N    -0.180149  -1.551329  -0.045566
C    -0.018946  -0.378566  0.896784
C    1.511399  -0.321856  1.124080
O    2.218648  -1.236596  0.747164
H    0.753135  -2.043141  0.016137
H    -0.310559  -1.254982  -1.019907
H    -0.351301  0.534507  0.385696
C    -0.762875  -0.567265  2.227319
C    -2.302643  -0.487671  2.204217
C    -3.062588  -1.741214  1.884508
O    -4.234315  -1.903463  2.384415
O    -2.588583  -2.669426  1.115849
H    -0.415304  0.247674  2.876204
H    -0.427311  -1.495893  2.713642
H    -2.659585  0.283419  1.497039
H    -2.669438  -0.149147  3.183181
O    1.878336  0.778460  1.757337
H    2.850371  0.781763  1.895485
H    -0.967173  -2.167411  0.234757
Pb    -4.573203  -3.944119  1.465249
