20
Energy: -605156.050043 eV PBE+vdW (tier 2 basis)
N    1.363936  -1.049449  -0.070996
C    0.853424  -0.047718  0.835063
C    1.948912  0.259490  1.868863
O    3.067020  -0.196102  1.782437
H    1.055326  -0.979715  -1.038479
H    2.377187  -1.176857  0.016190
H    0.650656  0.913022  0.325531
C    -0.479611  -0.526713  1.469463
C    -0.250350  -1.946878  2.014657
C    -1.426831  -2.758800  2.339476
O    -1.378754  -3.657106  3.249108
O    -2.578661  -2.662118  1.709570
H    -1.235038  -0.525306  0.664363
H    -0.817225  0.171330  2.244666
H    0.430563  -1.971390  2.875791
H    0.307356  -2.467549  1.183349
O    1.509216  1.084998  2.829671
H    2.262203  1.316629  3.412614
H    -2.577650  -1.941836  1.043495
Pb    -2.681982  -5.212954  4.091406
