20
Energy: -605156.09778 eV PBE+vdW (tier 2 basis)
N    0.376335  0.213624  0.110837
C    -0.274367  0.243587  1.380371
C    0.558740  0.939290  2.512457
O    0.347688  0.752044  3.695711
H    1.208352  -0.364716  0.017252
H    0.451670  1.093289  -0.393511
H    -1.165698  0.888607  1.281002
C    -0.713750  -1.177848  1.808958
C    -1.657650  -1.167702  3.017181
C    -2.002294  -2.486797  3.596607
O    -1.433540  -3.565952  3.275863
O    -2.925007  -2.593478  4.544196
H    0.176639  -1.781831  2.035880
H    -1.207851  -1.634348  0.942253
H    -2.597472  -0.630734  2.802579
H    -1.174218  -0.587873  3.838350
O    1.475904  1.765110  2.019944
H    1.937837  2.220564  2.756610
H    -3.346208  -1.741565  4.782463
Pb    -1.862915  -5.622014  4.167456
