20
Energy: -605158.287899 eV PBE+vdW (tier 2 basis)
N    0.722981  -1.697118  0.585890
C    0.381736  -0.252415  0.927549
C    1.433221  0.227214  1.926750
O    1.514644  1.466971  2.157185
H    1.375799  -1.750503  -0.209965
H    -0.104575  -2.259747  0.344166
H    0.430551  0.327700  -0.001727
C    -1.031749  -0.104923  1.539647
C    -1.252359  -0.599165  3.002966
C    -0.974514  0.454247  4.064535
O    0.140097  0.626091  4.588284
O    -1.944031  1.242213  4.470083
H    -1.743050  -0.629082  0.884761
H    -1.290849  0.958833  1.450492
H    -0.636730  -1.476163  3.244308
H    -2.298296  -0.922091  3.093441
O    2.059041  -0.658421  2.595148
H    1.209990  -2.110959  1.405452
H    -2.817683  1.025667  4.088195
Pb    2.411655  1.050351  4.314162
