20
Energy: -605156.949278 eV PBE+vdW (tier 2 basis)
N    -0.501399  -1.028067  0.019737
C    -0.155687  -0.131075  1.205831
C    1.339217  0.253004  1.155836
O    1.898864  0.759562  2.087254
H    -0.131868  -1.981142  0.152228
H    -0.061852  -0.657963  -0.838504
H    -0.722928  0.797961  1.045127
C    -0.532187  -0.766772  2.553816
C    -1.993968  -0.785928  2.896667
C    -2.477554  -0.088881  3.947305
O    -1.828223  0.724760  4.751762
O    -3.817200  -0.140989  4.379023
H    0.018044  -0.184630  3.304938
H    -0.112233  -1.787255  2.599812
H    -2.678132  -1.447197  2.362372
H    -1.517156  -1.096571  -0.129097
O    1.865328  -0.020775  -0.060335
H    2.799893  0.275710  -0.086490
H    -4.383237  -0.792311  3.923089
Pb    -3.238286  1.352759  6.276473
