20
Energy: -605156.657402 eV PBE+vdW (tier 2 basis)
N    -0.773879  0.110865  0.015914
C    -0.223068  0.195377  1.358972
C    1.304124  0.004902  1.313141
O    1.917384  -0.910867  1.909065
H    -1.705825  0.526365  -0.023133
H    -0.207174  0.618393  -0.665333
H    -0.382962  1.166806  1.874445
C    -0.727071  -0.949191  2.236210
C    -2.173481  -1.271611  2.565696
C    -2.168057  -2.550770  3.394105
O    -1.107273  -3.161040  3.676750
O    -3.275684  -3.066758  3.845800
H    -0.213326  -0.822813  3.211381
H    -0.366494  -1.845725  1.683161
H    -2.775174  -1.441401  1.657933
H    -2.668369  -0.473836  3.142349
O    1.915925  0.893940  0.581747
H    2.889047  0.752103  0.559227
H    -4.080246  -2.563254  3.603006
Pb    1.187520  -2.872369  3.172902
