20
Energy: -605157.146952 eV PBE+vdW (tier 2 basis)
N    -0.357991  -0.138179  0.067244
C    -0.067366  -0.262283  1.547290
C    1.468999  -0.132455  1.617761
O    2.122863  0.031382  0.604092
H    -1.023618  0.609429  -0.158915
H    0.589010  0.069478  -0.356416
H    -0.505599  0.607806  2.054363
C    -0.643789  -1.551792  2.160108
C    -0.166097  -2.824206  1.517362
C    -0.986935  -3.869751  1.275327
O    -2.291263  -3.947003  1.431534
O    -0.534527  -5.125410  0.820319
H    -1.741080  -1.499077  2.145854
H    -0.353483  -1.532598  3.223543
H    0.905237  -2.971971  1.366357
H    -0.701701  -1.027859  -0.319887
O    1.919398  -0.211392  2.859487
H    2.890812  -0.072170  2.872646
H    0.434981  -5.236685  0.784809
Pb    -2.827467  -6.024968  1.062069
