20
Energy: -605158.198871 eV PBE+vdW (tier 2 basis)
N    -0.187489  1.035078  0.363550
C    -0.133360  0.364596  1.690828
C    1.295106  -0.144783  1.922586
O    2.105628  -0.300869  0.992652
H    0.121777  2.010077  0.454734
H    -1.156588  1.091255  0.034350
H    -0.336363  1.104050  2.483761
C    -1.206247  -0.754682  1.847199
C    -1.570285  -1.637098  0.628209
C    -0.482216  -2.518934  0.077989
O    0.436365  -2.119389  -0.676349
O    -0.573363  -3.772421  0.431572
H    -2.139287  -0.259809  2.148664
H    -0.927169  -1.397209  2.694045
H    -2.402527  -2.279537  0.942301
H    -1.947191  -1.030106  -0.208246
O    1.694156  -0.450406  3.128825
H    1.053085  -0.243574  3.839218
H    0.139519  -4.321163  0.032754
Pb    1.446448  -0.104074  -1.228644
