20
Energy: -605158.103042 eV PBE+vdW (tier 2 basis)
N    0.301465  0.420116  0.142326
C    0.156060  0.008260  1.592226
C    1.520507  -0.626997  1.932602
O    2.396705  -0.705189  1.092112
H    0.090009  1.411667  -0.013818
H    1.311499  0.223587  -0.079946
H    0.055984  0.926568  2.187149
C    -1.064031  -0.881954  1.870769
C    -1.048689  -2.335385  1.359777
C    -1.403353  -2.595184  -0.074001
O    -1.859119  -3.751849  -0.398481
O    -1.261553  -1.708187  -1.006258
H    -1.972798  -0.361275  1.535825
H    -1.146733  -0.933737  2.964523
H    -1.746184  -2.938450  1.958669
H    -0.069865  -2.821963  1.525735
O    1.573983  -1.036813  3.190545
H    2.468473  -1.386476  3.393809
H    -0.296312  -0.168054  -0.472232
Pb    -2.120242  -3.272288  -2.592466
