20
Energy: -605156.992032 eV PBE+vdW (tier 2 basis)
N    -0.089219  -0.841350  -0.029014
C    0.261969  -0.443715  1.392366
C    1.571036  -1.225791  1.651917
O    2.060302  -1.911859  0.775606
H    0.737714  -1.444669  -0.314784
H    -0.178676  -0.043827  -0.668760
H    0.494905  0.629769  1.388462
C    -0.861473  -0.745096  2.405522
C    -2.076902  0.117882  2.239883
C    -2.737610  0.805202  3.195110
O    -3.813002  1.542898  3.005358
O    -2.413382  0.864490  4.562176
H    -0.399788  -0.629893  3.396453
H    -1.123663  -1.816512  2.327942
H    -2.552310  0.185296  1.260001
H    -0.943599  -1.408851  -0.091968
O    2.040431  -1.028870  2.874007
H    2.885559  -1.515766  2.986543
H    -1.716969  0.252702  4.863288
Pb    -4.463178  2.300683  4.916268
