20
Energy: -605157.255918 eV PBE+vdW (tier 2 basis)
N    -0.160432  -0.037291  -0.128334
C    -0.060880  0.161124  1.377194
C    1.401393  0.354898  1.745389
O    1.685737  0.783763  2.912350
H    -0.023236  0.838537  -0.653194
H    -1.091451  -0.408960  -0.374468
H    -0.616079  1.078929  1.618600
C    -0.668249  -1.043688  2.132240
C    -2.173527  -1.213614  1.888309
C    -2.810875  -2.340444  2.710945
O    -3.945810  -2.291282  3.109315
O    -1.959196  -3.373363  2.889589
H    -0.485901  -0.854297  3.199081
H    -0.119256  -1.962312  1.875908
H    -2.405187  -1.474275  0.839221
H    -2.731976  -0.299397  2.127633
O    2.321144  0.048476  0.908990
H    0.557351  -0.704625  -0.454013
H    -2.432632  -4.074633  3.384686
Pb    3.970014  0.658434  2.517692
