20
Energy: -605158.118305 eV PBE+vdW (tier 2 basis)
N    -0.364378  -0.272956  0.437509
C    -0.357408  -0.049078  1.924722
C    1.022042  0.420322  2.369290
O    1.886738  0.796291  1.500939
H    -1.281532  -0.047720  0.034621
H    -0.166109  -1.362784  0.265732
H    -1.016423  0.809145  2.141410
C    -0.919075  -1.261355  2.698478
C    -0.107067  -2.567255  2.735831
C    0.023713  -3.324897  1.432879
O    0.018468  -2.803423  0.308248
O    0.178785  -4.620599  1.609244
H    -1.930345  -1.456051  2.311305
H    -1.062840  -0.928954  3.734709
H    0.918081  -2.399127  3.107478
H    -0.562732  -3.240065  3.474193
O    1.284329  0.497169  3.618674
H    0.345943  0.300756  -0.036519
H    0.289391  -5.071155  0.743867
Pb    3.332418  1.503736  3.215390
