20
Energy: -605157.001648 eV PBE+vdW (tier 2 basis)
N    0.445482  -1.081775  -0.306630
C    0.139647  -0.313474  0.959514
C    1.531430  -0.085494  1.584234
O    2.499756  -0.682950  1.154424
H    1.435282  -1.420705  -0.165839
H    0.432480  -0.486079  -1.144114
H    -0.322736  0.643343  0.686202
C    -0.788592  -1.109295  1.903142
C    -2.089765  -1.483728  1.252793
C    -2.848953  -2.572539  1.508745
O    -4.006593  -2.855521  0.949464
O    -2.548827  -3.596939  2.426474
H    -0.951442  -0.453022  2.774462
H    -0.238796  -1.989631  2.277318
H    -0.212630  -1.859824  -0.452224
H    -2.560694  -0.766840  0.577652
O    1.487911  0.768550  2.593056
H    2.385559  0.887041  2.972772
H    -1.839191  -3.395488  3.064213
Pb    -4.825136  -4.603469  1.916094
