20
Energy: -605156.930199 eV PBE+vdW (tier 2 basis)
N    0.093600  -0.306077  -0.057586
C    -0.263066  -0.097853  1.410649
C    0.932674  0.508795  2.173456
O    0.980239  0.529727  3.370941
H    0.449869  0.568894  -0.471283
H    0.840469  -1.007614  -0.163337
H    -1.055087  0.667491  1.409945
C    -0.761625  -1.387772  2.070465
C    -2.109736  -1.856287  1.603229
C    -2.421162  -3.162165  1.458732
O    -1.635064  -4.212966  1.559445
O    -3.727068  -3.626993  1.193483
H    -0.797329  -1.145736  3.146788
H    -0.008422  -2.184605  1.974798
H    -0.724753  -0.626626  -0.594496
H    -2.918487  -1.125899  1.531589
O    1.842710  1.014287  1.309358
H    2.568284  1.438797  1.815006
H    -4.431611  -2.953039  1.246548
Pb    -2.937742  -5.954364  1.457251
