20
Energy: -605156.801584 eV PBE+vdW (tier 2 basis)
N    -0.132926  -0.203763  -0.030361
C    -0.268283  0.107721  1.457212
C    1.080957  0.600574  2.022143
O    1.330574  0.580612  3.194874
H    0.481706  -1.014656  -0.191942
H    0.297754  0.596286  -0.520113
H    -0.963524  0.960742  1.510078
C    -0.822962  -1.073883  2.256067
C    -2.243820  -1.422574  1.908702
C    -2.895501  -2.559091  2.235389
O    -4.150636  -2.845517  1.960266
O    -2.345164  -3.647353  2.939935
H    -0.723929  -0.751964  3.307643
H    -0.138219  -1.933730  2.146752
H    -1.047036  -0.409678  -0.458215
H    -2.882807  -0.667373  1.447256
O    1.865542  1.068095  1.026084
H    2.694733  1.430611  1.404895
H    -1.501243  -3.471903  3.396088
Pb    -4.637889  -4.721561  2.909783
