20
Energy: -605157.789991 eV PBE+vdW (tier 2 basis)
N    0.050080  -0.482151  -0.784423
C    -0.035711  -0.232659  0.708190
C    0.881905  1.010720  0.890831
O    1.774890  1.184727  0.090776
H    -0.685908  0.009355  -1.309975
H    0.018327  -1.477253  -1.039364
H    -1.085066  -0.034419  0.964983
C    0.514673  -1.467854  1.456623
C    0.531602  -1.311393  2.983310
C    1.053454  -2.513382  3.731266
O    1.065687  -2.476722  5.017268
O    1.492008  -3.553011  3.121930
H    1.534034  -1.671089  1.095111
H    -0.106570  -2.335458  1.188246
H    -0.471056  -1.104966  3.392078
H    1.163772  -0.469019  3.308780
O    0.703124  1.800548  1.944713
H    -0.133936  1.639620  2.419358
H    0.978067  -0.055149  -1.050330
Pb    2.008624  -4.554445  5.162628
