20
Energy: -605156.716114 eV PBE+vdW (tier 2 basis)
N    -0.564565  -0.286017  0.077155
C    -0.120317  -0.032309  1.515255
C    1.401238  0.061441  1.652585
O    1.927738  0.402653  2.670622
H    -0.941566  0.562507  -0.365627
H    0.257839  -0.594210  -0.470956
H    -0.555841  0.922996  1.833501
C    -0.728721  -1.206685  2.307218
C    -2.037917  -1.498549  1.570171
C    -1.708268  -1.383180  0.082730
O    -2.683379  -1.013292  -0.767269
O    -1.124476  -2.587796  -0.502260
H    -0.881370  -0.929950  3.355374
H    -0.047754  -2.071748  2.304985
H    -2.797482  -0.734602  1.792276
H    -2.478050  -2.475232  1.807414
O    2.015388  -0.335154  0.503478
H    2.987406  -0.278170  0.621764
H    -0.698596  -3.184039  0.145616
Pb    -3.046553  -2.640263  -2.144430
