20
Energy: -605157.331637 eV PBE+vdW (tier 2 basis)
N    4.592786  -2.826976  -1.021586
C    4.852114  -2.742203  0.478931
C    6.300725  -2.323647  0.697090
O    6.662559  -1.930761  1.855530
H    5.281114  -3.444264  -1.480497
H    4.646034  -1.910746  -1.490390
H    4.193225  -1.953715  0.871299
C    4.509158  -4.097445  1.121645
C    4.413025  -4.074726  2.650835
C    3.537967  -5.242410  3.105303
O    2.819856  -5.863674  2.348603
O    3.658068  -5.458225  4.418593
H    5.225816  -4.863591  0.787462
H    3.519753  -4.416331  0.748184
H    3.931429  -3.153113  3.014640
H    5.387812  -4.132895  3.149271
O    7.139078  -2.396658  -0.267645
H    3.652595  -3.216336  -1.192112
H    3.054211  -6.186240  4.675882
Pb    8.860399  -1.603693  1.168560
