20
Energy: -605158.474316 eV PBE+vdW (tier 2 basis)
N    -1.194833  0.976809  1.036114
C    -0.660141  0.250357  2.263393
C    0.856495  0.406851  2.259984
O    1.426607  0.600293  1.134081
H    -0.496076  0.897072  0.273944
H    -1.323249  1.982931  1.220852
H    -1.108461  0.721200  3.146157
C    -1.007581  -1.258025  2.247194
C    -0.197643  -2.170223  1.276210
C    1.010253  -2.831730  1.907600
O    2.167879  -2.363947  1.957012
O    0.730501  -4.008205  2.414073
H    -2.077675  -1.363069  2.016599
H    -0.904334  -1.611148  3.281624
H    -0.858678  -2.978976  0.943554
H    0.141402  -1.633771  0.380319
O    1.488282  0.163325  3.326278
H    -2.100880  0.602677  0.719943
H    1.523182  -4.427637  2.816413
Pb    3.432953  -0.378786  2.080660
