20
Energy: -605157.525662 eV PBE+vdW (tier 2 basis)
N    -0.126887  0.246422  0.491885
C    0.232079  -0.147864  1.906957
C    1.635815  -0.731872  1.963718
O    2.353540  -0.804513  0.906618
H    0.635973  0.753995  0.023274
H    -0.976402  0.875729  0.571893
H    0.260636  0.796697  2.474921
C    -0.822671  -1.089759  2.530163
C    -2.299980  -0.684600  2.316254
C    -2.610044  0.769924  2.620281
O    -3.068356  1.225466  3.624101
O    -2.258033  1.573826  1.522570
H    -0.598073  -1.131263  3.603948
H    -0.685698  -2.108712  2.138741
H    -2.910893  -1.296420  2.989981
H    -2.629724  -0.912197  1.292233
O    2.086129  -1.131622  3.090577
H    -0.360254  -0.566494  -0.094554
H    -2.525110  2.495570  1.723658
Pb    4.133077  -1.712611  2.180699
