20
Energy: -605156.742639 eV PBE+vdW (tier 2 basis)
N    0.177533  -0.496846  -0.117170
C    0.188893  -0.086196  1.349405
C    1.389594  -0.704881  2.084520
O    1.511983  -0.646197  3.272585
H    -0.095190  0.284536  -0.727990
H    1.118724  -0.829118  -0.386872
H    0.297465  1.004770  1.409872
C    -1.160590  -0.586866  1.879312
C    -1.359155  -1.915595  1.142354
C    -0.920359  -1.634127  -0.296910
O    -1.857645  -1.155585  -1.145074
O    -0.306432  -2.747561  -0.995041
H    -1.958290  0.126635  1.635471
H    -1.130323  -0.700519  2.968168
H    -2.394920  -2.271246  1.155674
H    -0.723662  -2.698686  1.586647
O    2.254585  -1.294190  1.207922
H    3.046548  -1.599200  1.699671
H    0.120024  -3.400970  -0.405192
Pb    -2.134361  -2.605172  -2.726894
