20
Energy: -605158.204202 eV PBE+vdW (tier 2 basis)
N    2.136798  1.745583  1.079366
C    1.215270  0.539663  1.107799
C    -0.147845  1.168208  1.484307
O    -0.225386  2.348374  1.763769
H    2.494350  1.956053  0.139499
H    2.937518  1.658418  1.717092
H    1.152118  0.140400  0.086206
C    1.743232  -0.533701  2.082306
C    0.997168  -1.871140  1.974278
C    1.538495  -2.966304  2.852249
O    0.953727  -4.113871  2.835795
O    2.559201  -2.790149  3.611284
H    1.693784  -0.150800  3.112718
H    2.806195  -0.702409  1.852842
H    1.013124  -2.264787  0.944379
H    -0.071157  -1.773687  2.218419
O    -1.143358  0.292758  1.449337
H    -1.986735  0.747806  1.664638
H    1.512786  2.540320  1.400955
Pb    2.404720  -4.985734  4.363763
