20
Energy: -605158.012485 eV PBE+vdW (tier 2 basis)
N    0.749188  -0.629568  0.678152
C    -0.219969  0.111636  1.528774
C    0.563073  1.033894  2.475982
O    1.771400  0.874867  2.714685
H    0.995941  -0.060721  -0.140105
H    0.314191  -1.474464  0.294852
H    -0.831601  0.773401  0.892244
C    -1.227211  -0.816434  2.274317
C    -0.765285  -2.197653  2.806368
C    0.325319  -2.192763  3.852192
O    1.520285  -1.965831  3.569896
O    0.065370  -2.440712  5.109817
H    -2.043472  -1.027500  1.570445
H    -1.686236  -0.243373  3.092270
H    -0.408632  -2.839092  1.986505
H    -1.663473  -2.696176  3.196275
O    -0.045283  2.026179  3.071923
H    -0.971852  2.169928  2.791326
H    -0.870343  -2.665557  5.285958
Pb    2.905310  -1.025703  1.999773
