20
Energy: -605157.962059 eV PBE+vdW (tier 2 basis)
N    0.421983  1.805923  1.158624
C    0.828844  1.196774  2.476098
C    1.598391  -0.085954  2.158324
O    2.246251  -0.165228  1.053182
H    -0.047440  2.711426  1.282302
H    -0.246467  1.071329  0.740136
H    1.576071  1.862989  2.939584
C    -0.353530  1.038876  3.455332
C    -1.750339  0.689863  2.892125
C    -1.799400  -0.358601  1.807967
O    -1.018950  -0.370903  0.843214
O    -2.774332  -1.233498  1.958056
H    -0.452734  1.974919  4.019459
H    -0.047019  0.279954  4.186603
H    -2.230704  1.584820  2.459655
H    -2.399121  0.392549  3.724021
O    1.663604  -1.026228  3.017567
H    1.225445  1.934566  0.529061
H    -2.823627  -1.826338  1.177423
Pb    3.124073  -2.235237  1.670266
