20
Energy: -605155.650401 eV PBE+vdW (tier 2 basis)
N    -0.076273  0.819809  0.072477
C    -0.257158  0.408525  1.448936
C    1.212096  0.232621  1.836818
O    1.885723  1.206285  2.301013
H    -0.258406  0.125074  -0.646389
H    -0.385088  1.752952  -0.178719
H    -0.641055  1.245772  2.047298
C    -1.114549  -0.844787  1.673906
C    -2.597862  -0.566133  1.385967
C    -3.489019  -1.794595  1.486619
O    -4.608517  -1.759821  1.950785
O    -2.919499  -2.904209  0.980917
H    -0.995557  -1.184836  2.713975
H    -0.773141  -1.668057  1.020489
H    -2.734109  -0.177450  0.363688
H    -3.006238  0.183955  2.073999
O    1.871688  -0.881490  1.628512
H    1.288850  -1.611203  1.326164
H    -3.565365  -3.639887  1.038121
Pb    3.974690  1.690641  2.858971
