20
Energy: -605157.066383 eV PBE+vdW (tier 2 basis)
N    0.948223  -0.609368  -0.137530
C    0.221023  -0.205769  1.034694
C    1.125285  -0.313201  2.257424
O    2.184137  -1.020481  2.245837
H    0.999016  -1.616855  -0.279611
H    0.615494  -0.160172  -0.987350
H    0.022434  0.876048  0.940374
C    -1.148133  -0.941768  1.233008
C    -2.017586  -0.671217  2.499211
C    -2.322636  0.762563  2.750822
O    -1.461874  1.600275  3.210537
O    -3.510661  1.185098  2.487116
H    -0.968514  -2.025765  1.214389
H    -1.738166  -0.707598  0.337180
H    -1.523110  -1.062582  3.400970
H    -2.967733  -1.206837  2.385026
O    0.847184  0.347928  3.349522
H    -0.547202  1.165914  3.350699
H    -3.632940  2.143519  2.682651
Pb    2.961456  -0.318038  4.262780
