20
Energy: -605157.120469 eV PBE+vdW (tier 2 basis)
N    0.849421  -2.051266  0.367836
C    0.340774  -1.208083  1.437319
C    0.842388  -1.840739  2.730227
O    0.262892  -2.823368  3.280794
H    1.842279  -1.962412  0.160889
H    0.568185  -3.029496  0.401571
H    0.805768  -0.215236  1.327555
C    -1.185546  -1.057750  1.315719
C    -1.850196  0.064771  2.125519
C    -2.151848  -0.180902  3.578853
O    -2.229683  -1.323483  4.094586
O    -2.410715  0.818520  4.380309
H    -1.685774  -2.022294  1.496994
H    -1.359538  -0.845323  0.252239
H    -2.836999  0.278578  1.672973
H    -1.292709  1.010623  2.032395
O    1.990890  -1.498010  3.260992
H    2.424563  -0.750833  2.800105
H    -2.382919  1.693699  3.940973
Pb    -1.533608  -3.428149  4.444941
