20
Energy: -605157.882483 eV PBE+vdW (tier 2 basis)
N    -1.075279  0.480108  1.177984
C    0.312828  -0.037362  1.553937
C    1.376068  1.036020  1.227055
O    2.547879  0.782689  1.196416
H    -1.196425  0.511297  0.154545
H    -1.194138  1.448410  1.516973
H    0.307199  -0.125410  2.650902
C    0.629869  -1.381774  0.887453
C    0.201361  -2.658714  1.631360
C    1.112012  -3.087968  2.754001
O    1.834016  -2.240059  3.397502
O    1.167981  -4.332521  3.072296
H    1.716977  -1.390981  0.734325
H    0.193489  -1.402544  -0.123071
H    0.148136  -3.502229  0.929517
H    -0.814565  -2.593968  2.060044
O    0.797115  2.243174  1.045570
H    1.489029  2.919590  0.884473
H    -1.830764  -0.101349  1.565696
Pb    2.773210  -3.963408  4.654024
