20
Energy: -605157.148883 eV PBE+vdW (tier 2 basis)
N    0.127795  -1.321062  0.105670
C    0.149464  -0.303206  1.162074
C    1.605156  0.042387  1.416902
O    2.309854  -0.286979  2.424721
H    0.668883  -1.042567  -0.715400
H    -0.832592  -1.455643  -0.220553
H    -0.290102  0.668206  0.855733
C    -0.648518  -0.784410  2.393626
C    -0.498657  -2.284742  2.744726
C    0.367302  -2.614568  3.899205
O    0.091529  -3.592986  4.678184
O    1.456495  -1.938427  4.157456
H    -1.704585  -0.621176  2.141681
H    -0.462117  -0.128771  3.255541
H    -0.060843  -2.797112  1.858911
H    -1.469399  -2.764906  2.914441
O    2.157571  0.757127  0.492681
H    3.105209  0.955338  0.673762
H    1.873627  -0.923274  3.125689
Pb    1.888354  -3.376072  6.031448
