20
Energy: -605156.650148 eV PBE+vdW (tier 2 basis)
N    0.260311  0.387280  0.272332
C    0.034728  0.138863  1.730506
C    1.379619  0.106070  2.440890
O    2.447378  -0.154722  1.824945
H    0.151973  1.387479  0.062091
H    -0.478277  -0.082135  -0.265990
H    -0.574052  0.956642  2.149380
C    -0.686077  -1.219214  1.969724
C    -2.144324  -1.221909  1.493498
C    -2.848133  -2.566010  1.712991
O    -3.996284  -2.654986  2.063682
O    -2.030937  -3.606445  1.434382
H    -0.657751  -1.435823  3.047579
H    -0.111620  -2.025762  1.486299
H    -2.235075  -1.018143  0.412031
H    -2.741184  -0.462611  2.013587
O    1.477801  0.274496  3.724548
H    0.639216  0.500138  4.179219
H    -2.538761  -4.435647  1.561287
Pb    2.569486  -0.322354  -0.415527
