20
Energy: -605157.745209 eV PBE+vdW (tier 2 basis)
N    0.814888  -1.234705  -0.060579
C    0.017135  -0.286139  0.813978
C    1.063628  0.551442  1.577570
O    2.192067  0.127849  1.701830
H    1.202631  -1.990978  0.549093
H    1.609769  -0.748582  -0.500542
H    -0.590780  0.327726  0.135579
C    -0.898144  -1.080466  1.775198
C    -0.303737  -1.534859  3.119382
C    0.845501  -2.498817  3.154802
O    1.273210  -2.879493  4.304897
O    1.429138  -2.961770  2.098302
H    -1.335039  -1.932017  1.231826
H    -1.752775  -0.434125  2.016443
H    -1.102899  -2.001174  3.719253
H    0.011286  -0.675573  3.735985
O    0.660773  1.679588  2.157996
H    -0.236577  1.967139  1.902154
H    0.227479  -1.652939  -0.793868
Pb    2.969446  -4.132105  3.501703
