20
Energy: -605158.203427 eV PBE+vdW (tier 2 basis)
N    1.246165  -0.832077  0.456691
C    0.399050  -0.069264  1.420049
C    1.332213  0.542675  2.456358
O    2.372829  -0.035971  2.829780
H    0.663179  -1.445481  -0.120731
H    1.673379  -0.174459  -0.206819
H    -0.132463  0.733481  0.891696
C    -0.635510  -0.925216  2.236156
C    -1.092830  -2.278900  1.675045
C    -0.142176  -3.427790  1.934797
O    1.062191  -3.272577  2.226641
O    -0.568044  -4.662936  1.858281
H    -1.521794  -0.291072  2.356812
H    -0.254704  -1.099197  3.252026
H    -1.318442  -2.255962  0.593794
H    -2.059785  -2.524318  2.142372
O    0.911504  1.669259  2.956376
H    1.500297  1.999886  3.672995
H    -1.526596  -4.744899  1.676271
Pb    2.988536  -2.072180  1.777414
