20
Energy: -605158.152464 eV PBE+vdW (tier 2 basis)
N    -0.857489  0.739744  0.572432
C    -0.056035  -0.236577  1.428512
C    1.226709  0.446922  1.929476
O    1.927151  0.014562  2.831045
H    -0.338787  1.014436  -0.276753
H    -1.087164  1.610011  1.076979
H    -0.682680  -0.460176  2.304360
C    0.238658  -1.533398  0.616348
C    0.073291  -2.845292  1.421332
C    0.933235  -2.793994  2.653445
O    2.194458  -2.992642  2.562008
O    0.414373  -2.398646  3.759541
H    1.246386  -1.481188  0.182006
H    -0.460717  -1.582890  -0.231747
H    0.388390  -3.679489  0.781962
H    -0.972708  -2.996696  1.715206
O    1.495013  1.551274  1.239541
H    2.331141  1.968662  1.544083
H    -1.746339  0.309044  0.274847
Pb    2.531118  -1.872667  4.546379
