20
Energy: -605157.436438 eV PBE+vdW (tier 2 basis)
N    -0.092966  -0.353254  0.143740
C    0.006324  -0.464972  1.653744
C    1.454587  -0.397860  2.136356
O    2.382098  -1.172590  1.782708
H    -1.098019  -0.249097  -0.046802
H    0.304511  0.553684  -0.131722
H    -0.481450  0.421177  2.085538
C    -0.738878  -1.699498  2.234426
C    -0.124667  -3.116041  2.035574
C    0.298251  -3.235372  0.609999
O    -0.519296  -3.471653  -0.320307
O    1.520651  -2.872701  0.272788
H    -1.755676  -1.677622  1.815320
H    -0.856443  -1.535357  3.314367
H    -0.896668  -3.862300  2.260621
H    0.727402  -3.289892  2.704736
O    1.663660  0.533186  3.013550
H    2.585329  0.520499  3.365446
H    2.051690  -2.017955  1.099572
Pb    0.605365  -2.086873  -1.795885
