20
Energy: -605156.962366 eV PBE+vdW (tier 2 basis)
N    -0.447452  0.209820  0.125140
C    -0.138146  -0.175295  1.567248
C    1.285146  -0.765494  1.647763
O    1.626454  -1.531045  2.506088
H    -1.188498  0.921167  0.067433
H    0.408404  0.575433  -0.325192
H    -0.111187  0.771061  2.128766
C    -1.215425  -1.090771  2.158368
C    -1.329069  -2.446148  1.517016
C    -2.515918  -3.041740  1.272577
O    -3.731541  -2.552468  1.397832
O    -2.635496  -4.384521  0.852693
H    -2.183815  -0.571251  2.156329
H    -0.936099  -1.213219  3.218040
H    -0.423912  -3.047294  1.414207
H    -0.756561  -0.620217  -0.403897
O    2.057815  -0.259085  0.657633
H    2.978988  -0.578960  0.760607
H    -1.809656  -4.905238  0.879561
Pb    -5.086806  -4.229022  1.086353
