20
Energy: -605158.492801 eV PBE+vdW (tier 2 basis)
N    0.663262  0.101522  0.012967
C    0.271153  0.282547  1.469024
C    1.159374  -0.616253  2.318189
O    1.397244  -0.258930  3.510027
H    1.520522  0.624672  -0.221666
H    -0.077693  0.416297  -0.631417
H    0.419218  1.336730  1.731723
C    -1.205027  -0.151188  1.659617
C    -1.677982  -0.260263  3.138079
C    -1.698619  -1.671392  3.688044
O    -0.707120  -2.384485  3.959929
O    -2.917154  -2.122200  3.865719
H    -1.364908  -1.108199  1.140033
H    -1.840243  0.594435  1.162493
H    -2.699861  0.125964  3.206696
H    -1.051641  0.353078  3.801599
O    1.467673  -1.760053  1.851993
H    0.854288  -0.902439  -0.159205
H    -2.913793  -3.031323  4.239712
Pb    1.645311  -2.520520  4.146445
