20
Energy: -605157.279136 eV PBE+vdW (tier 2 basis)
N    0.487880  0.300781  -0.322169
C    0.052927  -0.004597  1.087754
C    1.057201  0.780726  1.980620
O    1.826093  1.574706  1.479363
H    1.093923  -0.461654  -0.653244
H    1.141778  1.113123  -0.194410
H    -0.923864  0.477115  1.271610
C    -0.049042  -1.501080  1.414155
C    -1.379239  -2.221918  1.071765
C    -1.682389  -2.379000  -0.390772
O    -1.842870  -1.391985  -1.160285
O    -1.811264  -3.548476  -0.949860
H    0.062278  -1.599729  2.501798
H    0.808192  -2.040838  0.981437
H    -2.225974  -1.669036  1.511715
H    -1.368623  -3.206769  1.557424
O    0.908431  0.501423  3.266593
H    1.526339  1.044259  3.802961
H    -1.716629  -4.296511  -0.324014
Pb    -1.303104  0.642367  -1.895452
