20
Energy: -605156.70277 eV PBE+vdW (tier 2 basis)
N    -0.868922  -0.250487  0.386221
C    -0.202203  -0.140468  1.755527
C    1.325265  -0.214019  1.676508
O    2.017052  -0.002122  2.629270
H    -0.199660  -0.708534  -0.257571
H    -1.105135  0.667860  -0.010610
H    -0.479389  0.830750  2.185159
C    -0.825406  -1.300597  2.551642
C    -2.270605  -1.338896  2.048539
C    -2.153025  -1.172936  0.532249
O    -1.934091  -2.290058  -0.195205
O    -3.268350  -0.502288  -0.113886
H    -0.750918  -1.118223  3.628353
H    -0.307481  -2.245055  2.334560
H    -2.844199  -0.500362  2.476642
H    -2.792716  -2.271183  2.289526
O    1.728527  -0.582781  0.432063
H    2.706737  -0.652636  0.417841
H    -3.801397  0.050008  0.492391
Pb    -3.607644  -2.568722  -1.535045
