20
Energy: -605157.740403 eV PBE+vdW (tier 2 basis)
N    -0.909511  0.836856  0.418155
C    -0.064228  -0.034045  1.322765
C    1.319303  0.695208  1.265354
O    1.396667  1.733378  0.635648
H    -1.756045  1.205421  0.866041
H    -1.179524  0.374640  -0.458621
H    -0.464806  0.085269  2.339363
C    -0.052226  -1.526190  0.901061
C    -0.340532  -2.564988  2.000571
C    0.747499  -2.923952  2.972425
O    1.811848  -2.208927  3.136253
O    0.618568  -3.987494  3.677202
H    0.888612  -1.765357  0.385959
H    -0.837874  -1.679188  0.147991
H    -0.640599  -3.515309  1.532628
H    -1.216732  -2.283243  2.611250
O    2.335133  0.163363  1.908767
H    2.108744  -0.694997  2.351009
H    -0.220966  1.633180  0.195110
Pb    2.623672  -3.774625  4.734069
