20
Energy: -605158.137552 eV PBE+vdW (tier 2 basis)
N    1.862808  1.774596  1.971507
C    1.325368  0.694618  1.046098
C    -0.202684  0.898846  1.127133
O    -0.681110  1.683712  1.923871
H    2.521668  1.427559  2.677492
H    0.994669  2.162756  2.435149
H    1.663000  0.931933  0.029220
C    1.793306  -0.727199  1.399109
C    1.241367  -1.302961  2.711603
C    1.599590  -2.748874  2.954236
O    1.315297  -3.276601  4.092745
O    2.158839  -3.463488  2.047259
H    2.893091  -0.747713  1.392776
H    1.484052  -1.363286  0.559115
H    0.138437  -1.268177  2.739440
H    1.561651  -0.751774  3.609964
O    -0.852559  0.131408  0.265703
H    -1.815591  0.315373  0.316437
H    2.324044  2.535382  1.456604
Pb    2.120758  -5.320113  3.443538
