20
Energy: -605157.009178 eV PBE+vdW (tier 2 basis)
N    -0.524749  -0.518820  -0.134120
C    -0.171112  0.035312  1.229833
C    1.363420  0.117718  1.213609
O    1.986383  -0.347873  0.274700
H    0.427893  -0.760796  -0.535893
H    -0.985521  0.168786  -0.741400
H    -0.619380  1.029127  1.348414
C    -0.743386  -0.988719  2.236720
C    -1.926441  -1.615356  1.490335
C    -1.401827  -1.800862  0.066768
O    -0.616059  -2.881379  -0.150512
O    -2.405329  -1.832664  -0.983493
H    -1.041827  -0.500380  3.169261
H    0.006449  -1.751959  2.482311
H    -2.787614  -0.927219  1.487107
H    -2.250070  -2.572791  1.913098
O    1.839700  0.694903  2.298782
H    2.820838  0.722696  2.271672
H    -3.257150  -1.424863  -0.730126
Pb    -1.536026  -4.111114  -1.661320
