20
Energy: -605157.122505 eV PBE+vdW (tier 2 basis)
N    0.037615  0.384974  0.527718
C    -0.073715  0.045989  1.934303
C    1.206743  -0.695005  2.271140
O    1.351067  -1.976740  2.335723
H    0.697110  1.127345  0.302807
H    0.119847  -0.399329  -0.117058
H    -0.062606  0.980186  2.515208
C    -1.388556  -0.710268  2.172959
C    -1.706284  -1.163669  3.617493
C    -1.598404  -2.635992  3.857023
O    -2.381245  -3.221684  4.683484
O    -0.714665  -3.362612  3.237298
H    -1.456987  -1.559094  1.475708
H    -2.170489  -0.013490  1.848009
H    -2.718616  -0.863804  3.916600
H    -1.044746  -0.680613  4.361030
O    2.275934  0.030154  2.370694
H    3.095810  -0.505952  2.457327
H    0.492373  -2.492820  2.485854
Pb    -1.541626  -5.303869  4.359807
