27
Energy: -36633.343865 eV PBE+vdW (tier 2 basis)
C    1.206405  -1.444471  1.849832
C    0.325371  -0.264492  2.115476
O    0.693776  0.891494  1.792249
H    1.388931  -1.509445  0.768126
H    0.793980  -2.396082  2.200370
H    2.181361  -1.274765  2.325580
N    -0.870335  -0.507269  2.701684
C    -1.978057  0.408729  3.041611
C    -2.348143  1.389966  1.900750
O    -1.743866  2.480406  1.719133
H    -1.057547  -1.486277  2.899763
H    -2.841739  -0.263591  3.131810
C    -1.894234  1.061779  4.452032
C    -0.631207  1.776826  4.911267
O    0.034605  2.542402  4.168974
N    -0.283730  1.606118  6.183625
H    -2.137574  0.278054  5.181290
H    -2.709463  1.801007  4.527419
H    0.497548  2.135123  6.565500
H    -0.805703  1.013137  6.820260
N    -3.379347  1.030840  1.144398
C    -3.904858  1.817664  0.026758
H    -3.837346  0.144415  1.338172
H    -4.995681  1.727303  0.013508
H    -3.501749  1.445598  -0.924081
H    -3.624068  2.865438  0.159178
Ca    0.344669  3.019091  2.070315
