27
Energy: -36632.1714473 eV PBE+vdW (tier 2 basis)
C    -0.356165  1.537692  -0.338220
C    -0.098778  1.110094  1.065825
O    1.060852  1.293922  1.591475
H    -1.384178  1.342838  -0.658477
H    0.336416  1.005328  -1.005565
H    -0.139723  2.609715  -0.440972
N    -1.068847  0.542429  1.758243
C    -1.009311  -0.040034  3.091658
C    -2.222472  -1.035766  3.077237
O    -3.088542  -0.865063  2.221690
H    -1.992092  0.327627  1.331127
H    -0.060244  -0.578674  3.219765
C    -1.207774  1.009706  4.232169
C    -0.021324  1.237243  5.142099
O    1.162453  1.333902  4.688991
N    -0.245482  1.372840  6.440196
H    -2.091318  0.753588  4.830911
H    -1.437575  1.983779  3.771950
H    -1.180063  1.313600  6.834016
H    0.520463  1.589976  7.075085
N    -2.271451  -1.988656  4.026060
C    -1.224992  -2.379405  4.965019
H    -3.095888  -2.583083  3.962851
H    -0.956215  -1.564860  5.651872
H    -0.323054  -2.741896  4.451739
H    -1.607457  -3.200481  5.578102
Ca    2.501760  1.582641  3.042153
