27
Energy: -36632.0229412 eV PBE+vdW (tier 2 basis)
C    0.232405  0.735743  0.349110
C    -0.332743  -0.449546  1.074561
O    0.132668  -1.582592  1.026354
H    0.337369  0.481476  -0.713130
H    1.244391  0.932520  0.727638
H    -0.371194  1.644608  0.448735
N    -1.477382  -0.224236  1.846801
C    -1.967717  -1.335308  2.625063
C    -3.488635  -1.413723  2.611392
O    -4.158865  -1.465020  3.707362
H    -1.795446  0.722588  2.030445
H    -1.575605  -2.215142  2.071778
C    -1.312982  -1.370961  4.040296
C    -1.376983  -2.714942  4.727107
O    -2.361869  -3.022972  5.477245
N    -0.400310  -3.580035  4.516036
H    -1.757813  -0.612283  4.697657
H    -0.263290  -1.092575  3.887289
H    0.395108  -3.352458  3.924163
H    -0.418183  -4.497436  4.958031
N    -4.134784  -1.455851  1.458414
C    -3.587830  -1.505929  0.097591
H    -5.151359  -1.462774  1.540464
H    -2.649020  -2.068118  0.073702
H    -3.419605  -0.494544  -0.291188
H    -4.318744  -2.016306  -0.537025
Ca    -4.361466  -2.314588  5.624353
