27
Energy: -36632.0958934 eV PBE+vdW (tier 2 basis)
C    -0.279749  -0.065195  -0.046227
C    -0.336889  -0.108159  1.441508
O    0.629628  -0.601897  2.120018
H    0.610200  0.495877  -0.362891
H    -1.168104  0.389049  -0.496964
H    -0.165831  -1.088979  -0.430055
N    -1.406947  0.371802  2.077133
C    -1.540785  0.346044  3.535157
C    -2.999696  0.544490  4.065923
O    -3.168122  1.329594  4.996503
H    -2.144953  0.798868  1.521337
H    -1.229915  -0.663094  3.853609
C    -0.631985  1.413988  4.202718
C    0.041323  0.838504  5.420891
O    1.077940  0.101524  5.272438
N    -0.480531  1.069089  6.605990
H    -1.246120  2.284393  4.457817
H    0.155632  1.728109  3.507716
H    -1.357357  1.586427  6.678293
H    -0.063335  0.683821  7.451351
N    -3.995856  -0.182559  3.518165
C    -3.941164  -1.286967  2.563352
H    -4.904165  0.023436  3.931708
H    -4.085836  -0.951013  1.526684
H    -4.745222  -1.991037  2.801729
H    -2.995386  -1.835768  2.640402
Ca    2.042963  -0.912403  3.668080
