27
Energy: -36633.2035918 eV PBE+vdW (tier 2 basis)
C    -1.001455  1.043240  -0.083266
C    -0.556504  0.792227  1.321177
O    0.650662  0.542831  1.580809
H    -0.435077  1.889660  -0.494195
H    -2.072875  1.246757  -0.178707
H    -0.745970  0.165262  -0.693035
N    -1.494496  0.825412  2.290573
C    -1.365514  0.518573  3.723951
C    -0.621486  1.639893  4.482529
O    0.482931  2.091872  4.073858
H    -2.437819  1.040697  1.980903
H    -2.402519  0.543228  4.073370
C    -0.877893  -0.947471  4.022410
C    0.458693  -1.189218  4.710946
O    1.520067  -0.621384  4.346673
N    0.477540  -2.086919  5.692524
H    -0.813344  -1.478713  3.060918
H    -1.669765  -1.452254  4.588158
H    -0.351220  -2.589563  5.991790
H    1.365851  -2.347817  6.115945
N    -1.181442  2.129136  5.584743
C    -2.469997  1.790498  6.200910
H    -0.641489  2.874213  6.025981
H    -3.310973  2.113711  5.573763
H    -2.535858  2.323658  7.153436
H    -2.545350  0.717778  6.414225
Ca    2.137304  1.043693  3.071612
