27
Energy: -36632.246407 eV PBE+vdW (tier 2 basis)
C    -0.653638  0.502297  -0.529753
C    -0.417839  0.466864  0.940650
O    0.703975  0.833139  1.432257
H    -0.497655  1.524410  -0.901357
H    -1.656829  0.167386  -0.812769
H    0.091089  -0.135644  -1.026723
N    -1.388878  0.047617  1.757303
C    -1.233198  -0.021540  3.211659
C    -2.265787  -0.933874  3.943347
O    -2.613558  -0.605034  5.075408
H    -2.301210  -0.157996  1.353147
H    -0.250234  -0.488596  3.388114
C    -1.264713  1.385545  3.873080
C    -0.171105  1.493250  4.905499
O    1.020898  1.769531  4.526610
N    -0.460080  1.249229  6.164211
H    -2.250754  1.550936  4.319430
H    -1.085556  2.162532  3.120596
H    -1.393827  0.909340  6.402470
H    0.254092  1.291472  6.888805
N    -2.681899  -2.038403  3.296317
C    -3.600657  -3.001259  3.912475
H    -2.227543  -2.313949  2.431672
H    -3.053305  -3.736342  4.516727
H    -4.155605  -3.517639  3.123563
H    -4.298471  -2.461340  4.558889
Ca    2.145289  1.697067  2.726372
