27
Energy: -36632.2178265 eV PBE+vdW (tier 2 basis)
C    0.467131  0.051268  0.152405
C    -0.667940  0.293594  1.103125
O    -1.604150  -0.493029  1.254739
H    0.772214  -0.999247  0.219478
H    1.333719  0.700864  0.318494
H    0.101763  0.212015  -0.872649
N    -0.619324  1.471469  1.831147
C    -1.704012  1.976983  2.658821
C    -1.707790  1.417729  4.091968
O    -2.629984  1.789423  4.896455
H    0.107364  2.137788  1.585565
H    -1.467924  3.041766  2.809461
C    -3.125664  1.956958  1.978554
C    -4.169487  0.986454  2.506380
O    -5.047866  1.403232  3.343758
N    -4.168835  -0.253294  2.076736
H    -2.974071  1.781786  0.907730
H    -3.570681  2.954343  2.071065
H    -3.354804  -0.578087  1.530516
H    -4.892474  -0.904727  2.372967
N    -0.720825  0.632091  4.457867
C    -0.503399  0.067768  5.787987
H    -0.046061  0.412742  3.724395
H    -0.724712  -1.007017  5.779575
H    -1.146561  0.574362  6.511077
H    0.545294  0.212262  6.070214
Ca    -4.685919  2.194505  5.255171
