27
Energy: -36632.1758748 eV PBE+vdW (tier 2 basis)
C    -0.495841  1.837732  -0.075247
C    -0.107032  1.227072  1.228029
O    1.126705  1.217654  1.586306
H    -0.126613  2.870392  -0.127057
H    -1.576947  1.827132  -0.244076
H    -0.000958  1.281038  -0.884424
N    -1.046537  0.695518  1.994770
C    -0.886018  -0.138921  3.181817
C    -2.049949  -1.183883  3.026578
O    -3.022829  -0.835948  2.358794
H    -2.017167  0.600422  1.641475
H    0.100835  -0.619839  3.171354
C    -1.134293  0.616310  4.504983
C    -0.126288  1.667402  4.921658
O    1.090458  1.625129  4.557563
N    -0.545146  2.621965  5.738150
H    -1.156730  -0.119752  5.326692
H    -2.140111  1.060127  4.478072
H    -1.510437  2.674731  6.051874
H    0.109757  3.300369  6.121198
N    -1.945811  -2.361866  3.664922
C    -0.786812  -2.920520  4.355184
H    -2.755210  -2.966637  3.535845
H    0.057048  -3.089100  3.671360
H    -1.074157  -3.890723  4.770373
H    -0.462344  -2.294482  5.198003
Ca    2.577427  1.491678  3.039801
