27
Energy: -36632.2870858 eV PBE+vdW (tier 2 basis)
C    0.023283  -0.055071  -0.318979
C    -0.685998  0.378296  0.930746
O    -1.152191  1.477856  1.125934
H    1.108279  0.060765  -0.164002
H    -0.265635  0.596424  -1.149011
H    -0.154494  -1.106442  -0.582975
N    -0.832081  -0.663679  1.937921
C    -0.727373  -0.306388  3.388937
C    -1.181036  -1.550393  4.179621
O    -2.116928  -2.273489  3.723072
H    -0.172385  -1.422309  1.740559
H    0.331419  -0.116121  3.627676
C    -1.484705  0.974818  3.839475
C    -2.876630  1.214673  3.284068
O    -3.562291  0.287036  2.758933
N    -3.380722  2.429873  3.411756
H    -0.866609  1.849530  3.609373
H    -1.570146  0.936262  4.938361
H    -2.847569  3.201831  3.799840
H    -4.319392  2.627495  3.072125
N    -0.571825  -1.809001  5.324228
C    -0.906356  -2.909581  6.232963
H    0.200809  -1.205202  5.598248
H    -1.739249  -3.479120  5.815431
H    -1.186765  -2.503310  7.212004
H    -0.033430  -3.562263  6.351363
Ca    -3.250977  -1.666488  1.974330
