27
Energy: -36632.0777847 eV PBE+vdW (tier 2 basis)
C    0.075645  0.143452  -0.041881
C    -0.355620  0.592557  1.326037
O    -0.311484  1.752914  1.716137
H    1.174627  0.095778  -0.059130
H    -0.221936  0.896255  -0.779673
H    -0.319027  -0.837332  -0.331271
N    -0.845326  -0.411012  2.173956
C    -0.918205  -0.144687  3.614247
C    -1.266481  -1.450473  4.328655
O    -2.421234  -1.981661  4.202145
H    -0.617771  -1.364718  1.901998
H    0.065755  0.197103  3.978652
C    -1.911059  1.004517  3.992176
C    -3.111733  1.147164  3.082644
O    -4.093907  0.331595  3.156130
N    -3.136685  2.152169  2.234352
H    -1.344104  1.939043  3.993997
H    -2.289503  0.844771  5.012598
H    -2.300569  2.720175  2.092522
H    -3.941429  2.301923  1.629069
N    -0.326743  -2.000460  5.076089
C    -0.442777  -3.241982  5.841694
H    0.563926  -1.509141  5.131477
H    -1.384828  -3.735866  5.596014
H    -0.407495  -3.018194  6.915268
H    0.396289  -3.899996  5.587870
Ca    -4.450290  -1.675594  3.649384
