27
Energy: -36631.7426415 eV PBE+vdW (tier 2 basis)
C    -0.012708  -0.593930  -0.203877
C    0.216664  -0.038395  1.180963
O    1.237097  0.497198  1.546853
H    0.823495  -0.276643  -0.833026
H    -0.950216  -0.238787  -0.654400
H    -0.026062  -1.694430  -0.196494
N    -0.862755  -0.116334  2.110108
C    -2.010650  -0.982950  2.030706
C    -3.328621  -0.178554  2.016782
O    -4.461554  -0.775189  2.039447
H    -0.556311  0.174429  3.039959
H    -1.977256  -1.489408  1.052846
C    -1.987722  -2.076373  3.164241
C    -2.505770  -3.439337  2.767828
O    -3.726234  -3.621570  2.451092
N    -1.664171  -4.460025  2.755556
H    -2.569440  -1.739712  4.035200
H    -0.946684  -2.163658  3.495969
H    -0.689305  -4.360918  3.023520
H    -1.994345  -5.393335  2.514814
N    -3.234426  1.126975  1.944584
C    -4.358063  2.062213  1.876707
H    -2.272399  1.478199  1.919916
H    -4.937323  2.030747  2.807497
H    -5.011342  1.810685  1.033104
H    -3.959538  3.069956  1.736264
Ca    -5.539078  -2.573736  2.091302
