27
Energy: -36632.5858666 eV PBE+vdW (tier 2 basis)
C    0.559398  0.706992  1.310748
C    -0.291770  0.909778  2.512145
O    -0.011687  1.753727  3.404673
H    1.475383  0.197562  1.654875
H    0.872553  1.667827  0.887522
H    0.099740  0.072978  0.545940
N    -1.418990  0.145857  2.703422
C    -2.477243  -0.054229  1.711172
C    -2.660263  1.232552  0.862021
O    -2.340663  2.354150  1.355187
H    -1.746221  0.179963  3.667283
H    -2.231062  -0.897807  1.052243
C    -3.786176  -0.417626  2.451273
C    -4.310299  0.601848  3.471855
O    -3.620541  1.573781  3.889505
N    -5.534398  0.390759  3.938607
H    -3.625247  -1.368853  2.985149
H    -4.573601  -0.623189  1.713123
H    -6.107696  -0.392139  3.638311
H    -5.912363  1.000159  4.661341
N    -3.156222  1.150777  -0.364662
C    -3.591548  -0.022759  -1.126876
H    -3.270687  2.055527  -0.824745
H    -3.350497  0.141300  -2.182174
H    -4.676171  -0.166092  -1.035090
H    -3.073732  -0.928066  -0.797003
Ca    -1.918995  2.954224  3.453154
