27
Energy: -36632.0016181 eV PBE+vdW (tier 2 basis)
C    0.460457  -1.355936  0.510921
C    0.006406  -0.518792  1.674080
O    0.566252  -0.497355  2.766056
H    1.553362  -1.317989  0.443985
H    0.020586  -1.061399  -0.448751
H    0.190583  -2.402622  0.714131
N    -1.114580  0.280486  1.452236
C    -1.836006  0.872518  2.584130
C    -3.106999  1.522020  2.034359
O    -3.107213  2.739127  1.639815
H    -1.632179  0.121419  0.592506
H    -2.135328  0.075635  3.284009
C    -0.987375  1.852231  3.452716
C    0.024087  2.699052  2.710633
O    -0.322488  3.788845  2.137531
N    1.276849  2.298938  2.698312
H    -0.464558  1.245239  4.197131
H    -1.660577  2.530462  3.995873
H    1.514820  1.374752  3.068261
H    1.995753  2.852463  2.236633
N    -4.217741  0.810253  1.955710
C    -4.446620  -0.585210  2.355275
H    -5.025763  1.316347  1.590104
H    -3.564307  -1.201218  2.159484
H    -5.278008  -0.974932  1.760039
H    -4.716573  -0.642527  3.417585
Ca    -2.102189  4.588574  1.354324
