27
Energy: -36632.1621059 eV PBE+vdW (tier 2 basis)
C    -3.669268  -4.388551  0.439202
C    -2.554296  -3.578845  1.030680
O    -1.359469  -3.785845  0.856212
H    -3.821038  -4.070168  -0.602694
H    -4.618920  -4.279752  0.975848
H    -3.374780  -5.443069  0.414460
N    -2.919453  -2.503036  1.856533
C    -1.844948  -1.594130  2.197149
C    -0.875560  -2.253180  3.200378
O    0.347358  -1.880753  3.223555
H    -3.880581  -2.173563  1.854479
H    -1.234363  -1.438024  1.290475
C    -2.382448  -0.232393  2.688437
C    -1.462358  0.955351  2.437936
O    -0.229811  0.820578  2.168729
N    -1.994805  2.164625  2.519759
H    -2.613679  -0.255083  3.765477
H    -3.334943  -0.025273  2.178454
H    -2.980057  2.312161  2.719205
H    -1.415297  2.989731  2.379515
N    -1.352931  -3.154582  4.026529
C    -0.588914  -3.911463  5.016050
H    -2.326490  -3.416104  3.863054
H    0.380401  -3.433553  5.173459
H    -0.438205  -4.938355  4.658992
H    -1.146439  -3.936983  5.958571
Ca    1.507295  -0.434741  2.248555
