27
Energy: -36632.2224399 eV PBE+vdW (tier 2 basis)
C    0.235907  0.180325  0.169861
C    0.117038  0.131377  1.654685
O    1.150764  0.238346  2.391093
H    -0.719690  0.046599  -0.347279
H    0.943400  -0.588490  -0.168054
H    0.664394  1.152556  -0.114064
N    -1.095761  -0.011991  2.207749
C    -1.355320  0.063098  3.652899
C    -0.955727  -1.254185  4.353348
O    0.270663  -1.428569  4.661552
H    -1.889097  -0.101831  1.577261
H    -0.662891  0.809808  4.063295
C    -2.767038  0.564480  3.960088
C    -2.845134  0.769343  5.485946
O    -1.891353  0.409803  6.182288
N    -3.967572  1.327453  5.968688
H    -3.556006  -0.123459  3.613463
H    -2.939209  1.514700  3.433564
H    -4.723024  1.652215  5.376621
H    -4.045168  1.486240  6.969236
N    -1.840928  -2.215376  4.526278
C    -1.558897  -3.492810  5.187282
H    -2.812295  -2.013558  4.308387
H    -1.511935  -3.351789  6.275056
H    -0.605701  -3.894510  4.831566
H    -2.362051  -4.193825  4.945157
Ca    2.092631  -0.480951  4.160031
