27
Energy: -36631.5062313 eV PBE+vdW (tier 2 basis)
C    0.738298  0.697544  0.782002
C    0.013432  -0.379425  1.555429
O    0.422544  -1.510362  1.698444
H    1.671154  0.267196  0.407778
H    0.986952  1.568890  1.404564
H    0.153152  1.048220  -0.080954
N    -1.220304  -0.043907  2.158338
C    -1.967676  1.184392  2.049572
C    -2.535227  1.521809  3.437944
O    -3.800022  1.532605  3.656752
H    -1.675989  -0.854635  2.576033
H    -1.259842  1.985780  1.786197
C    -3.038718  1.080690  0.908381
C    -3.799257  2.335255  0.543216
O    -4.840538  2.685781  1.188667
N    -3.370219  3.078990  -0.464799
H    -3.769110  0.303519  1.171979
H    -2.494028  0.708198  0.031593
H    -2.581266  2.803403  -1.041643
H    -3.879787  3.919055  -0.734029
N    -1.706517  1.758918  4.440087
C    -0.240243  1.781405  4.436372
H    -2.160172  1.892997  5.343773
H    0.163326  0.761561  4.442085
H    0.089371  2.307796  5.336443
H    0.138976  2.321516  3.562556
Ca    -5.710305  2.181294  3.064331
