27
Energy: -36632.5476989 eV PBE+vdW (tier 2 basis)
C    -0.153772  0.167693  0.188175
C    -0.312277  0.145798  1.668070
O    0.658748  0.389126  2.439511
H    0.593955  -0.583249  -0.102975
H    0.248239  1.145145  -0.111542
H    -1.087266  -0.022675  -0.351289
N    -1.542047  -0.141502  2.190382
C    -1.645841  -0.158147  3.636183
C    -1.232237  -1.500766  4.271107
O    -0.089476  -1.528740  4.823879
H    -2.310421  -0.367994  1.565751
H    -0.787669  0.468118  3.849744
C    -2.681762  0.679305  4.389996
C    -1.912741  1.436962  5.510371
O    -0.650918  1.447976  5.547754
N    -2.637018  2.082491  6.411738
H    -3.508229  0.106703  4.829290
H    -3.124278  1.431977  3.719587
H    -3.652042  2.094066  6.383830
H    -2.178151  2.617612  7.145950
N    -2.005294  -2.573936  4.232329
C    -3.318896  -2.730047  3.612092
H    -1.599800  -3.405618  4.666215
H    -4.024170  -3.143065  4.342918
H    -3.253450  -3.416597  2.758516
H    -3.702721  -1.765946  3.266323
Ca    1.159008  0.305607  4.666318
