27
Energy: -36632.1947588 eV PBE+vdW (tier 2 basis)
C    0.409945  -0.721593  0.220984
C    -0.164276  0.193706  1.258875
O    0.499282  1.054924  1.849847
H    0.722795  -0.112825  -0.638961
H    -0.287338  -1.491670  -0.126628
H    1.314784  -1.194977  0.620567
N    -1.506625  0.053356  1.547866
C    -2.196897  1.029237  2.383147
C    -1.941906  0.775857  3.893476
O    -2.897897  0.510379  4.712012
H    -2.027987  -0.717417  1.141929
H    -1.720930  2.001617  2.167303
C    -3.684935  1.081509  1.962315
C    -4.478802  2.257111  2.500116
O    -5.020352  2.214857  3.649524
N    -4.611104  3.334898  1.744174
H    -4.204216  0.162221  2.269382
H    -3.701092  1.108017  0.864775
H    -4.222641  3.390970  0.807377
H    -5.151009  4.131246  2.079076
N    -0.688150  0.862398  4.262245
C    -0.162825  0.624684  5.602096
H    -0.026221  1.075594  3.472253
H    0.074518  1.580608  6.087517
H    0.760789  0.041905  5.518199
H    -0.888912  0.072103  6.204253
Ca    -4.768999  1.069286  5.439279
