27
Energy: -36632.2390877 eV PBE+vdW (tier 2 basis)
C    -2.358067  -3.886252  -0.380153
C    -1.593773  -2.926664  0.471310
O    -0.395274  -2.617462  0.172135
H    -2.469205  -3.442522  -1.380794
H    -3.351383  -4.125818  0.013062
H    -1.783678  -4.812586  -0.508244
N    -2.204608  -2.398036  1.538888
C    -1.750424  -1.282557  2.398249
C    -0.718073  -1.793641  3.438859
O    0.302464  -2.434920  2.983826
H    -3.147807  -2.734132  1.722140
H    -1.195389  -0.582952  1.750983
C    -3.050756  -0.600087  2.894576
C    -2.908917  0.657794  3.760155
O    -2.333259  0.607492  4.858299
N    -3.471213  1.782020  3.296349
H    -3.627954  -1.316445  3.501915
H    -3.649132  -0.380303  2.000490
H    -3.997679  1.824487  2.432401
H    -3.462234  2.609441  3.888106
N    -0.887203  -1.536222  4.705474
C    0.034076  -1.938901  5.765184
H    -1.603845  -0.771940  4.938679
H    0.650507  -2.780604  5.440691
H    -0.554312  -2.224980  6.643732
H    0.676614  -1.091456  6.040457
Ca    1.428523  -2.768755  1.250232
