27
Energy: -36632.1915481 eV PBE+vdW (tier 2 basis)
C    0.828953  2.860562  1.470222
C    0.768306  1.592647  2.261714
O    1.773664  1.227096  2.958263
H    1.095583  3.698292  2.127907
H    -0.106324  3.098860  0.953523
H    1.631194  2.767263  0.724067
N    -0.355705  0.875515  2.206625
C    -0.668525  -0.464932  2.753922
C    -2.214341  -0.603127  2.732581
O    -2.895418  0.008193  3.570013
H    -1.090550  1.276446  1.626871
H    -0.212367  -1.210736  2.084401
C    -0.125839  -0.762708  4.175980
C    -0.139329  0.358727  5.205863
O    0.969088  0.709903  5.747169
N    -1.282250  0.917597  5.519015
H    0.902063  -1.130086  4.099900
H    -0.717470  -1.599378  4.578018
H    -2.121740  0.646597  4.954583
H    -1.326508  1.641019  6.233999
N    -2.718939  -1.390013  1.773257
C    -4.150301  -1.650228  1.609583
H    -2.080300  -1.866875  1.143809
H    -4.359713  -2.712601  1.783653
H    -4.462662  -1.383068  0.593399
H    -4.699981  -1.045239  2.334979
Ca    2.802412  1.180275  4.816681
