27
Energy: -36633.2559559 eV PBE+vdW (tier 2 basis)
C    -1.341680  0.633668  0.371317
C    -0.785776  0.743800  1.755170
O    0.329043  1.286521  1.959649
H    -0.622062  0.096298  -0.260637
H    -1.438863  1.644049  -0.049806
H    -2.312249  0.129554  0.321779
N    -1.533839  0.249370  2.768982
C    -1.256931  0.283814  4.215852
C    -0.675006  1.642521  4.670159
O    0.566509  1.820319  4.820790
H    -2.423601  -0.163165  2.502078
H    -2.251205  0.227494  4.678893
C    -0.518074  -0.959417  4.785176
C    0.723084  -1.502693  4.092747
O    1.643837  -0.764144  3.657491
N    0.830627  -2.825502  4.012520
H    -1.258783  -1.765724  4.863434
H    -0.217953  -0.728332  5.820791
H    0.120028  -3.455867  4.368972
H    1.683286  -3.238116  3.639834
N    -1.532292  2.620675  4.940240
C    -2.997350  2.610163  4.867133
H    -1.091612  3.481803  5.264553
H    -3.429863  1.931823  5.614489
H    -3.344524  2.341246  3.862681
H    -3.351850  3.620937  5.086862
Ca    2.060099  1.338904  3.295851
