27
Energy: -36632.6750957 eV PBE+vdW (tier 2 basis)
C    0.808656  -0.022073  0.583223
C    0.368915  0.754734  1.771643
O    1.077279  1.660202  2.286816
H    0.019902  -0.641074  0.144152
H    1.605665  -0.702174  0.928996
H    1.259254  0.634645  -0.169119
N    -0.838274  0.482188  2.371535
C    -2.122516  0.413311  1.669938
C    -2.128732  1.411343  0.477124
O    -1.450848  2.475534  0.542048
H    -0.893774  0.867398  3.312898
H    -2.305061  -0.603188  1.288731
C    -3.252944  0.730992  2.678171
C    -3.202409  2.090691  3.386029
O    -2.183260  2.836901  3.372708
N    -4.287297  2.440391  4.064938
H    -3.241564  -0.047692  3.459086
H    -4.223061  0.627676  2.172832
H    -5.116444  1.855353  4.111478
H    -4.290143  3.303683  4.604651
N    -2.871140  1.089744  -0.570760
C    -3.047927  1.912062  -1.771043
H    -3.346515  0.189569  -0.556370
H    -4.103331  2.190326  -1.877013
H    -2.738370  1.339109  -2.652919
H    -2.435212  2.811566  -1.682309
Ca    -0.350851  3.403784  2.243535
