27
Energy: -36632.1416729 eV PBE+vdW (tier 2 basis)
C    -0.093650  0.626098  -0.054806
C    0.002204  0.321998  1.400133
O    1.097917  0.497237  2.025480
H    0.722212  0.129671  -0.595041
H    0.048111  1.709715  -0.185250
H    -1.054077  0.340303  -0.495681
N    -1.079896  -0.128783  2.045534
C    -1.207631  -0.236657  3.508530
C    -0.565197  -1.532130  4.023847
O    0.705651  -1.558936  4.148016
H    -1.928312  -0.243707  1.495428
H    -0.610967  0.598195  3.921353
C    -2.634925  0.091774  3.940235
C    -2.777388  1.642043  3.919681
O    -1.768979  2.342405  3.880417
N    -4.034508  2.118223  3.963092
H    -2.801740  -0.237344  4.977059
H    -3.399170  -0.394067  3.313951
H    -4.850143  1.522569  4.041020
H    -4.173652  3.123166  4.018187
N    -1.317103  -2.571393  4.329916
C    -0.839565  -3.858592  4.840944
H    -2.322386  -2.470419  4.206855
H    -1.032317  -4.643827  4.099553
H    -1.374846  -4.100100  5.766349
H    0.231882  -3.793436  5.039873
Ca    2.312473  -0.262006  3.567324
