15
Energy: -564255.664057 eV PBE+vdW (tier 2 basis)
N    -0.728009  -0.870498  0.152989
C    0.026661  -0.196614  1.224445
C    1.454117  -0.783644  1.295309
O    1.702058  -1.980331  1.074441
H    -1.725177  -0.625886  0.149932
H    -0.345562  -0.716961  -0.788184
H    0.115361  0.883794  1.021305
C    -0.680044  -0.387853  2.588920
O    -0.706501  -1.801569  2.882607
H    -1.692525  0.041123  2.547586
H    -0.104908  0.130482  3.371018
H    -1.390492  -2.005373  3.549530
O    2.341021  0.096989  1.652056
H    3.245322  -0.284886  1.754949
Hg    -0.356426  -3.080727  0.786966
