15
Energy: -564255.701484 eV PBE+vdW (tier 2 basis)
N    0.021157  -1.050402  0.342277
C    0.089864  -0.217082  1.605162
C    1.547997  0.019446  2.056796
O    2.475778  -0.381594  1.319445
H    0.606899  -1.898239  0.392924
H    -0.971149  -1.341853  0.237754
H    -0.322003  0.771980  1.349487
C    -0.766913  -0.866459  2.705686
O    -1.994452  -1.150136  2.081470
H    -0.861921  -0.126785  3.525003
H    -0.286033  -1.768960  3.124065
H    -2.504903  -1.815072  2.581162
O    1.672557  0.637520  3.159167
H    0.308036  -0.524782  -0.496699
Hg    3.954086  0.607419  3.015299
