15
Energy: -564255.445256 eV PBE+vdW (tier 2 basis)
N    -0.419463  -0.235961  0.268199
C    -0.183613  -0.220991  1.763197
C    1.369476  -0.214161  1.949627
O    2.072649  -0.308992  0.968707
H    0.444630  -0.605257  -0.184908
H    -1.242160  -0.799117  0.009978
H    -0.602819  0.707422  2.174482
C    -0.815888  -1.446237  2.468702
O    -2.195117  -1.230557  2.218954
H    -0.544024  -1.375305  3.531913
H    -0.440523  -2.389841  2.039785
H    -0.562941  0.715192  -0.103489
O    1.702135  -0.088142  3.214160
H    2.680123  -0.057533  3.323206
Hg    -3.639467  -2.443521  3.094488
