15
Energy: -564255.272778 eV PBE+vdW (tier 2 basis)
N    -1.639500  -1.168172  -1.819002
C    -1.766773  -0.735074  -0.366833
C    -0.368374  -0.354528  0.236393
O    -0.212188  -0.249789  1.420964
H    -1.191067  -2.093212  -1.911890
H    -1.044210  -0.497493  -2.334733
H    -2.364683  0.189834  -0.371871
C    -2.429617  -1.784238  0.536166
O    -3.785123  -1.792353  0.141958
H    -2.243655  -1.396900  1.555762
H    -1.956840  -2.777047  0.442500
H    -2.557747  -1.210286  -2.286267
O    0.510700  -0.142557  -0.746058
H    1.374051  0.155680  -0.380073
Hg    -5.256976  -2.533869  1.407983
