15
Energy: -564255.308458 eV PBE+vdW (tier 2 basis)
N    -0.328826  -0.663652  -0.325088
C    -0.283197  0.097249  0.907632
C    1.178322  0.536775  1.307961
O    1.363294  0.936756  2.427606
H    -0.227668  -0.097965  -1.177040
H    0.319846  -1.460324  -0.367885
H    -0.833497  1.039316  0.752964
C    -0.877438  -0.645961  2.122751
O    -2.256595  -0.909378  1.844378
H    -0.807271  0.056899  2.975325
H    -0.324052  -1.564787  2.370671
H    -2.623000  -1.539324  2.498874
O    2.028342  0.425529  0.304269
H    2.927868  0.744277  0.554603
Hg    -2.484126  -1.674411  -0.510021
