15
Energy: -564255.713954 eV PBE+vdW (tier 2 basis)
N    0.100687  -0.456856  0.092120
C    0.057163  -0.169499  1.578490
C    1.520494  -0.220885  2.144253
O    1.657451  0.044391  3.369320
H    0.944703  -0.080391  -0.365018
H    -0.730758  -0.074559  -0.384453
H    -0.316383  0.850179  1.743304
C    -0.851330  -1.217879  2.222458
O    -0.405297  -2.462067  1.724723
H    -1.892628  -0.995006  1.907987
H    -0.816703  -1.140030  3.319463
H    -0.929894  -3.200172  2.084747
O    2.447007  -0.500174  1.343424
H    0.094646  -1.491824  -0.020882
Hg    3.933556  -0.249696  3.223272
