15
Energy: -564255.447877 eV PBE+vdW (tier 2 basis)
N    -0.385122  -0.333729  0.163331
C    -0.202461  -0.224894  1.662531
C    1.345634  -0.181764  1.898457
O    2.065751  -0.021790  0.938865
H    -1.148194  0.260455  -0.188011
H    0.521638  -0.031808  -0.262908
H    -0.602974  0.752270  1.972135
C    -0.903465  -1.353676  2.448936
O    -2.265007  -1.114969  2.129951
H    -0.663948  -1.199008  3.510888
H    -0.550897  -2.346642  2.123660
H    -0.564154  -1.299643  -0.147763
O    1.654215  -0.286291  3.170658
H    2.624695  -0.193239  3.308183
Hg    -3.782767  -2.157763  3.089020
