15
Energy: -564255.302482 eV PBE+vdW (tier 2 basis)
N    0.468734  -1.413617  0.061174
C    -0.425716  -0.379668  0.711968
C    0.250707  -0.056591  2.065744
O    1.396508  -0.365810  2.279653
H    1.418113  -1.302445  0.481746
H    0.158874  -2.377996  0.259551
H    -0.360606  0.537251  0.103740
C    -1.896129  -0.798255  0.783832
O    -2.186713  -1.946728  1.522413
H    -2.247517  -1.105981  -0.233881
H    -2.526154  0.077541  1.014334
H    0.534412  -1.300534  -0.960873
O    -0.580884  0.588991  2.892473
H    -0.077268  0.925165  3.668778
Hg    -2.654360  -1.860320  3.551351
