15
Energy: -564255.335804 eV PBE+vdW (tier 2 basis)
N    0.139415  -0.426106  0.028512
C    0.187625  -0.294468  1.496519
C    1.645809  -0.517181  1.989887
O    2.395442  -1.336995  1.431806
H    -0.818572  -0.437739  -0.340560
H    0.679832  0.289583  -0.472772
H    -0.147842  0.713747  1.792717
C    -0.748061  -1.338067  2.160675
O    -0.277244  -2.651284  1.802336
H    -1.783770  -1.167779  1.828949
H    -0.705606  -1.228155  3.255320
H    -0.970348  -3.323537  1.949760
O    2.092555  0.106583  3.037783
H    1.497502  0.790186  3.412365
Hg    1.206264  -2.495788  -0.178298
