15
Energy: -564255.48984 eV PBE+vdW (tier 2 basis)
N    -0.088577  -0.694802  -0.440108
C    0.078430  -1.184103  0.990366
C    0.203982  -0.008650  1.964410
O    0.590535  -0.156731  3.115405
H    -0.376114  -1.463138  -1.067627
H    -0.810177  0.043984  -0.494418
H    -0.846428  -1.727380  1.241243
C    1.276617  -2.175972  1.113806
O    1.139117  -3.081545  2.166730
H    2.244638  -1.644700  1.096573
H    1.284464  -2.853984  0.230909
H    0.779347  -0.286433  -0.823386
O    -0.163865  1.144892  1.429603
H    -0.110679  1.883521  2.078948
Hg    1.453708  -2.374960  4.096548
