15
Energy: -564255.182132 eV PBE+vdW (tier 2 basis)
N    0.007175  1.167809  2.125595
C    0.575036  0.480847  3.352947
C    1.901743  1.221834  3.644307
O    2.777552  0.839526  4.550832
H    -1.019385  1.258932  2.157446
H    0.258395  0.691129  1.244768
H    -0.116905  0.684985  4.185107
C    0.655200  -1.041340  3.128383
O    0.778035  -1.669104  4.419550
H    1.492461  -1.312506  2.465488
H    -0.286876  -1.388138  2.672186
H    0.620588  -2.630435  4.334629
O    2.170438  2.243810  3.036198
H    0.437421  2.119098  2.076754
Hg    2.704122  -0.875451  5.797809
