15
Energy: -564255.60247 eV PBE+vdW (tier 2 basis)
N    -0.105262  -0.083118  -0.063194
C    -0.049350  -0.080185  1.448368
C    1.451985  -0.050815  1.894626
O    2.293664  0.242308  1.029828
H    -0.991975  0.313284  -0.412776
H    0.681809  0.479800  -0.435300
H    -0.464039  0.881653  1.792126
C    -0.845209  -1.231225  2.066070
O    -0.914924  -0.952517  3.432769
H    -0.397487  -2.214953  1.839273
H    -1.864646  -1.218897  1.618515
H    -1.042631  -1.767402  3.956276
O    1.654957  -0.285373  3.130422
H    -0.005896  -1.031505  -0.459993
Hg    3.896678  0.056578  3.043457
