15
Energy: -564255.041248 eV PBE+vdW (tier 2 basis)
N    0.377693  1.048901  1.903241
C    0.437864  0.655587  3.374374
C    1.695101  1.379189  3.930190
O    2.405664  0.977351  4.966429
H    -0.576631  0.975465  1.518472
H    1.005725  0.477970  1.315719
H    -0.411303  1.173034  3.851226
C    0.247900  -0.838580  3.612011
O    1.499599  -1.543619  3.438663
H    -0.500931  -1.243227  2.912260
H    -0.155171  -0.984967  4.625183
H    1.325126  -2.486438  3.248045
O    1.987265  2.463425  3.459083
H    0.688969  2.037251  1.816559
Hg    2.940130  -1.006339  5.483547
