20
Energy: -14935.5563357 eV PBE+vdW (tier 2 basis)
N    -0.240299  0.374282  0.136256
C    0.054617  -0.045689  1.491946
C    1.575189  -0.002154  1.692024
O    2.365326  -0.111319  0.781909
H    0.531862  0.101663  -0.475610
H    -1.102173  -0.042153  -0.212008
H    -0.405877  0.659050  2.207727
C    -0.474832  -1.475114  1.857296
C    -0.222548  -1.872869  3.273175
N    0.744552  -2.787663  3.645404
C    -0.737382  -1.416348  4.474393
C    0.768201  -2.843018  5.011598
N    -0.119014  -2.025490  5.544451
H    -0.025147  -2.198054  1.160294
H    -1.557018  -1.473783  1.659224
H    -1.537458  -0.696341  4.618571
H    1.444629  -3.493351  5.556548
H    1.359496  -3.286407  3.012356
O    2.009737  0.129991  2.969297
H    1.245026  0.113143  3.580075
