20
Energy: -14935.5278391 eV PBE+vdW (tier 2 basis)
N    0.066981  2.070467  1.523443
C    -0.491287  0.754586  1.878321
C    0.678433  -0.094532  2.384845
O    1.256061  -0.965950  1.778226
H    0.462866  2.521157  2.349049
H    -0.677440  2.678950  1.180790
H    -1.233639  0.797290  2.699675
C    -1.143366  0.107454  0.645060
C    -1.970124  -1.093672  0.962852
N    -3.296248  -1.013554  1.356920
C    -1.685469  -2.443120  1.003075
C    -3.737991  -2.285870  1.600879
N    -2.785073  -3.173840  1.396927
H    -0.351130  -0.165241  -0.063145
H    -1.762655  0.872100  0.147966
H    -0.736747  -2.916306  0.773722
H    -4.754750  -2.498868  1.915560
H    -3.845675  -0.165127  1.423970
O    1.030876  0.291607  3.645969
H    1.804378  -0.253530  3.889895
