20
Energy: -14935.6620786 eV PBE+vdW (tier 2 basis)
N    1.090526  1.537796  3.491512
C    1.201349  0.231315  2.826334
C    0.935764  0.388658  1.329219
O    1.780079  0.623304  0.492796
H    0.152513  1.925084  3.373582
H    -0.452938  0.577781  0.066080
H    2.246835  -0.095041  2.904646
C    0.303487  -0.790391  3.547209
C    0.414135  -2.190462  3.044651
N    -0.203198  -2.643353  1.892193
C    1.093694  -3.292510  3.522563
C    0.125223  -3.961283  1.733641
N    0.909501  -4.385547  2.705967
H    -0.741947  -0.444150  3.510225
H    0.600297  -0.770593  4.603990
H    -0.780242  -2.076271  1.281254
H    1.700557  -3.351809  4.420910
H    -0.234812  -4.555066  0.899486
O    -0.404299  0.343229  1.013638
H    1.748474  2.204310  3.086105
