20
Energy: -14935.6304149 eV PBE+vdW (tier 2 basis)
N    1.187630  0.535362  3.572703
C    0.634644  0.110626  2.298650
C    -0.265379  1.157460  1.639507
O    -0.882800  2.020279  2.227145
H    1.931970  1.217577  3.431497
H    -0.957262  1.666941  -0.041384
H    1.461225  -0.104939  1.606664
C    -0.198595  -1.197586  2.479125
C    0.634840  -2.391367  2.784635
N    1.258884  -3.141786  1.801842
C    1.024838  -2.985947  3.966002
C    1.970628  -4.132606  2.422788
N    1.848457  -4.064825  3.734347
H    -0.801112  -1.370958  1.574046
H    -0.908526  -1.030196  3.301417
H    1.178326  -2.996289  0.802281
H    0.757370  -2.679591  4.971810
H    2.545883  -4.869501  1.871242
O    -0.331814  0.990904  0.286462
H    0.462794  1.008441  4.117222
