20
Energy: -14935.6550029 eV PBE+vdW (tier 2 basis)
N    0.435784  1.218432  3.785563
C    0.591319  0.196924  2.759788
C    0.006046  0.619477  1.407973
O    -0.792152  1.513030  1.235443
H    0.962487  2.055151  3.531162
H    0.014593  0.193443  -0.432531
H    1.665357  0.005940  2.621508
C    -0.076919  -1.136888  3.230056
C    0.654827  -2.391748  2.895174
N    0.958415  -2.805928  1.611494
C    1.159473  -3.388724  3.706084
C    1.624223  -3.996686  1.707065
N    1.756203  -4.381683  2.962234
H    -1.118793  -1.172713  2.869062
H    -0.127760  -1.068630  4.324175
H    0.787907  -2.259403  0.773469
H    1.115670  -3.439254  4.789753
H    1.987582  -4.531429  0.835136
O    0.464930  -0.148523  0.365222
H    -0.542191  1.514211  3.831167
