20
Energy: -14935.7086288 eV PBE+vdW (tier 2 basis)
N    0.455065  -0.318245  -0.087624
C    -0.084937  -0.011993  1.241970
C    1.065351  0.218676  2.217069
O    1.129983  -0.175498  3.366135
H    1.131423  0.388930  -0.374072
H    -0.300608  -0.308693  -0.772762
H    -0.667591  0.935124  1.278058
C    -1.022115  -1.152086  1.696808
C    -1.996003  -0.802973  2.771945
N    -1.638915  -0.541660  4.079589
C    -3.371133  -0.672893  2.757140
C    -2.781601  -0.266497  4.774144
N    -3.852263  -0.340737  4.003238
H    -0.409202  -2.024233  1.970290
H    -1.606588  -1.452686  0.816086
H    -4.037673  -0.813677  1.911239
H    -2.775899  -0.020748  5.831340
H    -0.674165  -0.511379  4.400518
O    2.043838  0.980733  1.664692
H    2.725569  1.095999  2.355156
