20
Energy: -14935.5276342 eV PBE+vdW (tier 2 basis)
N    0.946165  1.550377  1.786950
C    -0.042217  0.473706  1.849284
C    0.638244  -0.896172  1.895788
O    0.411392  -1.732754  2.745234
H    0.475783  2.449126  1.672998
H    1.483053  1.603477  2.652734
H    -0.666359  0.491867  2.762420
C    -0.964040  0.565230  0.609840
C    -1.881922  -0.593805  0.427001
N    -2.861044  -0.961477  1.333536
C    -1.980575  -1.531722  -0.579629
C    -3.482092  -2.078301  0.844786
N    -2.976262  -2.445435  -0.315987
H    -0.326257  0.646267  -0.280053
H    -1.529210  1.510773  0.685843
H    -1.381774  -1.588091  -1.483364
H    -4.287604  -2.574558  1.376608
H    -3.041586  -0.521186  2.227728
O    1.502941  -1.090699  0.870719
H    1.835365  -2.003623  0.973566
