20
Energy: -14935.6075989 eV PBE+vdW (tier 2 basis)
N    0.582273  -1.036292  0.127896
C    -0.095694  -0.186057  1.099570
C    0.842456  0.886930  1.638750
O    0.556898  2.055665  1.769206
H    1.191563  -1.707847  0.598683
H    2.574914  1.172514  2.320723
H    -0.862011  0.389495  0.565279
C    -0.822346  -0.918762  2.287642
C    -0.114391  -2.108794  2.838231
N    1.126572  -2.076845  3.449983
C    -0.480165  -3.439808  2.880520
C    1.442801  -3.356417  3.814408
N    0.486235  -4.205851  3.491519
H    -1.790433  -1.272152  1.907168
H    -1.054004  -0.181334  3.074292
H    1.730027  -1.262275  3.498312
H    -1.401997  -3.878987  2.510819
H    2.376842  -3.606183  4.307761
O    2.064574  0.393741  2.022999
H    -0.107113  -1.585740  -0.385761
