20
Energy: -14935.5420608 eV PBE+vdW (tier 2 basis)
N    -0.732483  -0.716550  0.268011
C    -0.059876  -0.142351  1.437288
C    1.480906  0.000686  1.376850
O    2.085475  -0.436914  0.238892
H    -0.677274  -0.151885  -0.576591
H    -0.481169  -1.686108  0.077781
H    -0.433339  0.886896  1.554546
C    -0.446631  -0.929595  2.708890
C    -1.865603  -0.749940  3.130689
N    -2.939302  -0.869462  2.268495
C    -2.435134  -0.475352  4.357656
C    -4.077955  -0.653953  2.993640
N    -3.807971  -0.420114  4.264504
H    0.205981  -0.602187  3.526571
H    -0.215209  -1.996849  2.533350
H    -2.837080  -0.990079  1.264438
H    -1.923329  -0.317940  5.302032
H    -5.066937  -0.676603  2.547020
O    2.125043  0.479916  2.277802
H    1.385888  -0.776617  -0.353864
