20
Energy: -14935.7846873 eV PBE+vdW (tier 2 basis)
N    -0.957450  -0.117612  2.080222
C    0.461081  0.157140  1.842413
C    0.874813  -0.121991  0.391948
O    1.603752  -1.008544  -0.018004
H    -1.129138  -1.124914  2.064929
H    -1.547712  0.323633  1.376270
H    0.620493  1.236541  1.997805
C    1.325169  -0.605189  2.867242
C    1.044771  -2.067972  2.988717
N    1.401352  -3.002531  2.035042
C    0.434970  -2.807369  3.984228
C    0.994846  -4.226109  2.482159
N    0.409256  -4.145888  3.664280
H    1.128266  -0.150232  3.846413
H    2.386903  -0.428670  2.637687
H    0.022090  -2.437751  4.917925
H    1.150514  -5.136135  1.911325
H    1.800906  -2.754408  1.132810
O    0.283179  0.763903  -0.455245
H    0.549939  0.502098  -1.358165
