20
Energy: -14935.7001653 eV PBE+vdW (tier 2 basis)
N    1.257275  1.340916  3.493262
C    1.078966  0.208990  2.593636
C    0.474368  0.509988  1.213076
O    0.305776  -0.309120  0.324970
H    1.815703  2.072231  3.053602
H    -0.247627  1.877634  0.151689
H    2.074797  -0.213614  2.383340
C    0.243647  -0.900484  3.301543
C    0.592424  -2.310097  2.959119
N    0.586221  -2.824267  1.677902
C    0.951057  -3.375964  3.760996
C    0.942789  -4.139696  1.761436
N    1.164367  -4.509675  3.010315
H    -0.830008  -0.706049  3.135251
H    0.426002  -0.768165  4.375546
H    0.427674  -2.255957  0.846148
H    1.060250  -3.380885  4.841357
H    1.027821  -4.775842  0.886109
O    0.126050  1.810989  1.052858
H    0.357450  1.766065  3.721844
