20
Energy: -14935.6944086 eV PBE+vdW (tier 2 basis)
N    -0.530776  -0.309651  3.704963
C    0.266992  -0.027576  2.526874
C    -0.380573  1.104196  1.750177
O    -1.568526  1.346615  1.731721
H    -1.522882  -0.246089  3.468780
H    0.021241  2.460403  0.507756
H    1.271030  0.308157  2.833480
C    0.453427  -1.235129  1.537252
C    1.081047  -2.409352  2.198134
N    2.430893  -2.485821  2.495573
C    0.552748  -3.574127  2.719665
C    2.647146  -3.665274  3.155709
N    1.529483  -4.347543  3.307319
H    1.047949  -0.904452  0.670836
H    -0.536939  -1.528284  1.161648
H    3.132162  -1.795489  2.253777
H    -0.483142  -3.897372  2.684992
H    3.632467  -3.970463  3.493477
O    0.531003  1.797684  1.013593
H    -0.340748  -1.254434  4.043276
