20
Energy: -14935.9603465 eV PBE+vdW (tier 2 basis)
N    -0.196636  -0.689293  -0.027256
C    0.048666  -0.087573  1.291788
C    1.566689  0.187360  1.428496
O    2.117938  0.404672  2.490116
H    -0.189549  -1.711186  0.049523
H    1.495861  -0.109982  -0.390571
H    -0.424829  0.907345  1.303612
C    -0.484319  -0.895773  2.497870
C    0.086466  -2.270977  2.572538
N    1.378570  -2.528890  2.992366
C    -0.417062  -3.510672  2.226436
C    1.587609  -3.874152  2.883992
N    0.519287  -4.500433  2.425586
H    -1.576835  -0.970536  2.411927
H    -0.268193  -0.329729  3.415043
H    2.044805  -1.814920  3.275874
H    -1.416675  -3.739115  1.867827
H    2.530213  -4.339592  3.153681
O    2.209997  0.172194  0.254851
H    -1.100004  -0.413746  -0.407701
