20
Energy: -14935.7051826 eV PBE+vdW (tier 2 basis)
N    0.490886  -0.251374  0.004993
C    0.034159  -0.102146  1.385492
C    1.109868  0.108239  2.458349
O    0.875911  0.440090  3.601220
H    0.780045  0.651302  -0.370149
H    1.320807  -0.845439  -0.023075
H    -0.608601  0.788537  1.441449
C    -0.844832  -1.312947  1.813670
C    -0.149175  -2.626964  1.719984
N    0.054006  -3.289688  0.522090
C    0.453429  -3.434639  2.663792
C    0.750973  -4.434949  0.792344
N    1.007529  -4.552767  2.081571
H    -1.739809  -1.300644  1.174748
H    -1.174216  -1.154979  2.848205
H    0.506214  -3.265200  3.734831
H    1.035606  -5.140770  0.018492
H    -0.242333  -2.948580  -0.385789
O    2.367684  -0.146067  2.005042
H    2.956942  -0.038256  2.777035
