20
Energy: -14935.606367 eV PBE+vdW (tier 2 basis)
N    0.691032  1.542606  3.536694
C    1.012279  0.245094  2.925673
C    1.100331  0.358392  1.401934
O    2.131364  0.454319  0.770264
H    -0.187402  1.905874  3.162171
H    0.032206  0.558462  -0.137057
H    2.021842  -0.030499  3.258678
C    0.008684  -0.808543  3.404023
C    0.305952  -2.189513  2.915177
N    -0.615134  -3.215851  3.015159
C    1.410648  -2.779232  2.332347
C    -0.039573  -4.348628  2.504281
N    1.185750  -4.116740  2.081079
H    -1.001252  -0.505961  3.080965
H    0.010087  -0.768962  4.505317
H    -1.549569  -3.136443  3.398522
H    2.355492  -2.314134  2.070531
H    -0.560221  -5.300248  2.467393
O    -0.132369  0.434781  0.817613
H    1.415854  2.226227  3.316234
