20
Energy: -14935.6334239 eV PBE+vdW (tier 2 basis)
N    1.798957  1.220136  3.379787
C    1.308295  0.122727  2.553297
C    0.670518  0.729281  1.311384
O    0.841140  1.864776  0.925993
H    2.073929  2.005828  2.788937
H    -0.437876  0.342978  -0.159146
H    2.116466  -0.528756  2.156475
C    0.354448  -0.794147  3.380587
C    0.409385  -2.250376  3.065278
N    0.004988  -2.809082  1.867798
C    0.842293  -3.326581  3.814899
C    0.211250  -4.158155  1.946605
N    0.714796  -4.505841  3.116076
H    -0.672352  -0.401224  3.320799
H    0.657183  -0.674798  4.428340
H    -0.331835  -2.275767  1.073682
H    1.230672  -3.307494  4.828844
H    -0.021810  -4.831882  1.128066
O    -0.117060  -0.151835  0.619773
H    2.608612  0.927213  3.923528
