20
Energy: -14935.6545954 eV PBE+vdW (tier 2 basis)
N    -0.686885  -0.189976  0.270633
C    0.078158  -0.061123  1.497340
C    1.522949  -0.424581  1.199988
O    1.874859  -1.251298  0.384683
H    -0.474475  -1.074630  -0.192565
H    -1.687340  -0.133711  0.455165
H    0.041513  0.985126  1.833792
C    -0.384579  -0.953571  2.706209
C    -1.815190  -0.746875  3.060917
N    -2.849096  -1.482984  2.504998
C    -2.452021  0.161113  3.884046
C    -4.025889  -1.005256  3.015459
N    -3.817721  -0.006187  3.851132
H    0.242222  -0.717388  3.577777
H    -0.197680  -2.008687  2.450611
H    -1.989969  0.922773  4.504474
H    -4.990628  -1.423140  2.746286
H    -2.739914  -2.262841  1.867161
O    2.391093  0.240290  2.007923
H    3.280949  -0.099878  1.789210
