20
Energy: -14935.7837176 eV PBE+vdW (tier 2 basis)
N    -0.303088  -0.798794  0.096566
C    0.037012  -0.136619  1.365420
C    1.570909  0.053074  1.456359
O    2.204032  -0.201222  0.298412
H    -0.419522  -1.804586  0.232685
H    1.463652  -0.480985  -0.312774
H    -0.370042  0.886453  1.322278
C    -0.504479  -0.828777  2.637026
C    -1.990867  -0.813727  2.721118
N    -2.713080  0.283963  3.155942
C    -2.955466  -1.727426  2.347433
C    -4.043903  -0.017164  3.037567
N    -4.223759  -1.227769  2.547728
H    -0.040142  -0.347666  3.509732
H    -0.155913  -1.872970  2.643612
H    -2.321028  1.136691  3.538928
H    -2.797373  -2.728909  1.958176
H    -4.825829  0.677049  3.328519
O    2.134614  0.421311  2.463137
H    -1.184729  -0.454927  -0.279864
