20
Energy: -14935.7416059 eV PBE+vdW (tier 2 basis)
N    -0.515153  0.363565  0.435093
C    0.180389  0.083494  1.703189
C    1.645607  -0.312786  1.406429
O    1.869334  -0.568660  0.105031
H    -0.486477  1.357775  0.211094
H    -1.501020  0.104714  0.498900
H    0.221681  0.957666  2.372665
C    -0.475197  -1.086182  2.456495
C    -1.886423  -0.815631  2.871090
N    -2.761900  -1.831523  3.208307
C    -2.626291  0.338855  3.042667
C    -3.953123  -1.259322  3.566306
N    -3.904210  0.053801  3.472563
H    0.158839  -1.306344  3.328810
H    -0.438745  -1.981439  1.811731
H    -2.546918  -2.821935  3.207056
H    -2.306690  1.363731  2.882943
H    -4.810450  -1.846835  3.878735
O    2.490368  -0.411271  2.267575
H    0.982824  -0.382105  -0.321122
