20
Energy: -14935.6714785 eV PBE+vdW (tier 2 basis)
N    -0.939156  -0.672941  0.509390
C    -0.413945  0.172418  1.600465
C    1.082081  0.461578  1.376127
O    1.666105  1.352845  1.944788
H    -1.858045  -1.041216  0.761722
H    0.986693  -0.998868  0.205085
H    -0.908064  1.155831  1.658794
C    -0.603334  -0.528853  2.966472
C    0.211076  -1.758717  3.191607
N    0.154569  -2.895918  2.402030
C    1.132792  -2.068230  4.170161
C    1.031809  -3.806712  2.925096
N    1.633518  -3.338669  4.000777
H    -1.681999  -0.735206  3.089728
H    -0.337153  0.193141  3.748391
H    -0.368315  -2.984698  1.538461
H    1.459422  -1.432824  4.987419
H    1.188675  -4.784370  2.480436
O    1.689761  -0.373819  0.504730
H    -1.079488  -0.119770  -0.337678
