20
Energy: -14935.7321177 eV PBE+vdW (tier 2 basis)
N    -1.143219  -0.084398  2.191667
C    0.242372  0.130148  1.816907
C    0.567283  -0.318330  0.384352
O    -0.248202  -0.629625  -0.454193
H    -1.292262  -1.081087  2.370159
H    -1.756798  0.158054  1.412741
H    0.440738  1.217987  1.813825
C    1.186821  -0.488310  2.878162
C    1.095764  -1.973793  2.979159
N    1.743151  -2.836585  2.111773
C    0.391456  -2.807698  3.825331
C    1.410263  -4.114428  2.468500
N    0.592532  -4.131604  3.503103
H    0.897799  -0.055232  3.844250
H    2.218808  -0.171650  2.675301
H    -0.241506  -2.514741  4.657444
H    1.793609  -4.984020  1.944180
H    2.355194  -2.554160  1.354651
O    1.912088  -0.279891  0.112557
H    1.992108  -0.485638  -0.839871
