20
Energy: -14935.6665618 eV PBE+vdW (tier 2 basis)
N    2.630451  0.948190  2.642351
C    1.685243  -0.075046  2.216964
C    0.754940  0.450558  1.131518
O    0.087174  -0.250949  0.389749
H    3.258669  0.569246  3.350420
H    0.017339  2.018343  0.413920
H    2.258303  -0.891083  1.751868
C    0.803265  -0.714121  3.353275
C    0.403077  -2.137251  3.147210
N    -0.221275  -2.614096  2.011335
C    0.529025  -3.243324  3.965636
C    -0.429085  -3.952366  2.188189
N    0.006153  -4.365626  3.365201
H    -0.072979  -0.067037  3.532317
H    1.402507  -0.674850  4.273057
H    -0.383455  -2.051708  1.175628
H    0.963633  -3.281897  4.960229
H    -0.894822  -4.573239  1.429493
O    0.673105  1.799886  1.105181
H    2.152733  1.752371  3.049458
