20
Energy: -14935.7335103 eV PBE+vdW (tier 2 basis)
N    -0.511794  0.216014  0.284811
C    0.136999  -0.020914  1.586191
C    1.644352  -0.300924  1.358388
O    2.052208  0.008343  0.115908
H    -1.255268  0.908033  0.356095
H    -0.944356  -0.640130  -0.065952
H    0.111949  0.928058  2.146169
C    -0.482054  -1.123426  2.455721
C    -1.873956  -0.816259  2.903643
N    -2.732769  -1.794487  3.369285
C    -2.607765  0.349869  3.000746
C    -3.909795  -1.189690  3.722844
N    -3.866450  0.109193  3.508770
H    0.189235  -1.283814  3.313533
H    -0.465805  -2.068450  1.883896
H    -2.515025  -2.780607  3.454000
H    -2.298242  1.358153  2.742833
H    -4.752727  -1.744552  4.122002
O    2.380525  -0.727568  2.219859
H    1.208738  0.300158  -0.336745
