20
Energy: -14935.578501 eV PBE+vdW (tier 2 basis)
N    -0.356229  0.240235  0.137095
C    0.115546  -0.147143  1.478045
C    1.641990  -0.400476  1.398195
O    2.228539  0.244063  0.368774
H    -1.200013  0.808928  0.184098
H    -0.570068  -0.580551  -0.432057
H    0.008384  0.741363  2.120926
C    -0.629022  -1.328329  2.157859
C    -0.721143  -1.231137  3.647285
N    -1.890792  -0.858059  4.291325
C    0.191474  -1.401226  4.668917
C    -1.637952  -0.832909  5.636169
N    -0.385731  -1.153722  5.895248
H    -0.135172  -2.269392  1.877271
H    -1.646250  -1.366394  1.738584
H    -2.783147  -0.679400  3.846237
H    1.235081  -1.676184  4.568056
H    -2.399288  -0.579977  6.367348
O    2.257584  -1.084568  2.182084
H    1.465916  0.632173  -0.138521
