20
Energy: -14935.5758784 eV PBE+vdW (tier 2 basis)
N    0.117438  2.184269  2.034744
C    -0.701634  0.978891  2.151812
C    0.065968  -0.095372  2.915637
O    -0.341461  -0.686776  3.889644
H    0.939158  2.002457  1.456611
H    -0.413236  2.930813  1.585099
H    -1.558504  1.221388  2.795662
C    -1.223612  0.399802  0.800009
C    -1.904756  -0.922245  0.894279
N    -3.063724  -1.149586  1.615383
C    -1.578720  -2.158904  0.376085
C    -3.369399  -2.478894  1.503994
N    -2.492571  -3.116651  0.753970
H    -0.367524  0.288475  0.119928
H    -1.884544  1.162273  0.353591
H    -0.730012  -2.401324  -0.256171
H    -4.235462  -2.918392  1.988369
H    -3.562420  -0.468994  2.175667
O    1.278835  -0.340907  2.345857
H    1.690180  -1.049324  2.877829
