20
Energy: -14935.6451198 eV PBE+vdW (tier 2 basis)
N    -0.253183  0.450470  0.252457
C    0.324604  -0.089289  1.485369
C    1.739095  -0.649251  1.309920
O    2.741325  -0.183788  1.808725
H    -0.290941  -0.271849  -0.468778
H    0.323358  1.208541  -0.113684
H    0.438898  0.745785  2.190789
C    -0.628209  -1.144453  2.086789
C    -0.114803  -1.792352  3.327188
N    0.023281  -1.134423  4.537079
C    0.352133  -3.065881  3.578178
C    0.551015  -2.021055  5.436093
N    0.759549  -3.201161  4.886529
H    -0.801136  -1.931947  1.339890
H    -1.597349  -0.648860  2.252224
H    0.411379  -3.891549  2.875901
H    0.757909  -1.750434  6.466573
H    -0.214371  -0.166751  4.719723
O    1.760328  -1.727317  0.472756
H    2.694657  -2.005266  0.414943
