20
Energy: -14935.6863189 eV PBE+vdW (tier 2 basis)
N    0.101688  0.444820  0.295083
C    0.228822  -0.111058  1.646456
C    1.634165  -0.712012  1.719217
O    1.916260  -1.860884  1.427183
H    -0.710978  1.056919  0.235236
H    -0.024504  -0.303542  -0.388032
H    0.195430  0.727498  2.355297
C    -0.849002  -1.152884  2.033183
C    -0.739823  -1.697191  3.418044
N    0.188284  -2.654362  3.786332
C    -1.431376  -1.425191  4.581972
C    0.019524  -2.905555  5.118778
N    -0.956173  -2.178478  5.631597
H    -0.820311  -1.968521  1.292709
H    -1.827311  -0.662942  1.929455
H    -2.256154  -0.730644  4.710817
H    0.629005  -3.623904  5.657751
H    0.887159  -3.048129  3.163446
O    2.554838  0.190274  2.122384
H    3.421492  -0.260898  2.084734
