20
Energy: -14935.6515795 eV PBE+vdW (tier 2 basis)
N    0.526673  0.187471  3.544031
C    0.604452  -0.094513  2.119073
C    -0.109147  0.955940  1.285180
O    0.214432  1.278612  0.161719
H    -0.445640  0.288699  3.837743
H    -1.617175  2.082388  1.279486
H    1.659278  -0.036643  1.812392
C    0.060003  -1.500350  1.672213
C    0.810624  -2.616306  2.305266
N    2.054357  -3.038448  1.867448
C    0.565319  -3.388851  3.423710
C    2.482054  -4.026404  2.712858
N    1.602936  -4.261551  3.666935
H    0.103580  -1.567353  0.573605
H    -0.998155  -1.571942  1.960851
H    2.544685  -2.690953  1.051387
H    -0.317614  -3.366872  4.055149
H    3.431291  -4.535595  2.579797
O    -1.213852  1.452598  1.907929
H    0.921901  -0.595927  4.068228
