20
Energy: -14935.6153404 eV PBE+vdW (tier 2 basis)
N    0.474574  -0.607221  -0.303083
C    0.712547  -0.664560  1.130305
C    2.184995  -0.358301  1.352218
O    3.068116  -0.557837  0.549343
H    -0.415983  -1.040314  -0.541721
H    1.219511  -1.092005  -0.805514
H    0.115303  0.114927  1.627858
C    0.366258  -2.038635  1.823802
C    -0.175524  -1.956549  3.210273
N    0.477940  -1.368560  4.277101
C    -1.363967  -2.413344  3.745825
C    -0.330142  -1.486504  5.374220
N    -1.450591  -2.122079  5.088161
H    1.243506  -2.704819  1.765142
H    -0.409577  -2.510778  1.206090
H    -2.156578  -2.946079  3.228830
H    -0.052644  -1.090653  6.346038
H    1.352152  -0.857335  4.208269
O    2.443298  0.129852  2.606959
H    3.412806  0.250793  2.644882
