21
Energy: -567870.698444 eV PBE+vdW (tier 2 basis)
N    0.814657  1.195722  0.252979
C    0.397450  1.028008  1.706222
C    1.765530  1.295284  2.456730
O    1.798881  1.713003  3.713123
H    0.661610  2.153150  -0.093742
H    0.356038  0.543225  -0.396676
H    -0.329973  1.822843  1.922572
C    -0.238118  -0.389537  1.833631
C    -0.697705  -0.997854  3.193431
C    -1.911672  -0.419483  3.913436
O    -1.846354  0.565065  4.751860
N    -3.096290  -0.962355  3.727536
H    0.498189  -1.110349  1.445915
H    -1.097971  -0.413329  1.146568
H    0.134501  -1.041144  3.915004
H    -0.916140  -2.052751  2.972842
H    -3.232092  -1.785352  3.145975
H    -3.908353  -0.604164  4.233228
O    2.789747  1.160037  1.816316
H    1.860687  1.030436  0.278264
Hg    0.031473  1.486579  4.711400
