21
Energy: -567869.423171 eV PBE+vdW (tier 2 basis)
N    -0.236747  0.029860  0.531786
C    -0.237078  -0.282281  2.007231
C    1.194520  -0.386017  2.571686
O    1.408153  -0.876117  3.651763
H    0.421100  0.794108  0.316486
H    0.033618  -0.775415  -0.049410
H    -0.674227  0.611367  2.480660
C    -1.060663  -1.531864  2.363894
C    -2.447481  -1.703523  1.682847
C    -3.290124  -0.460138  1.603570
O    -4.295113  -0.159129  2.402389
N    -2.955477  0.505842  0.802475
H    -1.171069  -1.514955  3.456044
H    -0.478900  -2.436933  2.138443
H    -2.975383  -2.503232  2.214779
H    -2.321596  -2.056286  0.647596
H    -1.233177  0.333330  0.297753
H    -3.632085  1.267413  0.661540
O    2.095863  0.155517  1.741432
H    2.992140  0.120084  2.142856
Hg    -5.737772  -1.475113  3.334078
