21
Energy: -567869.917332 eV PBE+vdW (tier 2 basis)
N    0.820782  -0.302275  -0.036359
C    -0.086422  -0.507795  1.015980
C    0.642903  -0.714635  2.426794
O    -0.015027  -0.871609  3.433398
H    1.267699  -1.092403  -0.499879
H    1.304535  0.589131  -0.132636
H    -0.631968  0.436072  1.191993
C    -1.055863  -1.707365  0.786920
C    -2.529698  -1.330127  0.579804
C    -3.348983  -0.874127  1.772261
O    -4.610590  -0.655013  1.691946
N    -2.803397  -0.689812  2.958455
H    -0.969624  -2.439554  1.600134
H    -0.725899  -2.234568  -0.116929
H    -3.053754  -2.223241  0.197926
H    -2.632481  -0.555374  -0.197868
H    -1.800847  -0.857594  3.157918
H    -3.395490  -0.396499  3.736463
O    1.953217  -0.671190  2.329875
H    2.374780  -0.782080  3.213097
Hg    -5.942411  -0.858998  -0.111020
