21
Energy: -567870.725544 eV PBE+vdW (tier 2 basis)
N    0.122342  1.339598  1.526842
C    0.156722  0.166446  2.490061
C    1.422041  0.492060  3.390456
O    1.878844  -0.358374  4.299326
H    -0.817315  1.740238  1.408102
H    0.502467  1.127548  0.595738
H    -0.686720  0.334692  3.178822
C    -0.109817  -1.202173  1.821079
C    0.986255  -1.864660  0.921088
C    1.183082  -3.356111  1.185402
O    1.587405  -3.818232  2.323535
N    0.961089  -4.228986  0.228183
H    -1.031858  -1.106441  1.229007
H    -0.418656  -1.883116  2.629719
H    1.979511  -1.402803  1.063335
H    0.747019  -1.716813  -0.139072
H    0.645006  -3.953776  -0.698089
H    1.125821  -5.223613  0.394205
O    1.857090  1.625093  3.316340
H    0.766262  2.042704  1.992467
Hg    1.903613  -2.311065  3.734871
