21
Energy: -567870.94235 eV PBE+vdW (tier 2 basis)
N    -0.903371  0.093034  -0.178982
C    -0.366511  -0.157553  1.220288
C    1.146221  0.129279  1.085662
O    1.618500  0.454618  0.014001
H    -0.091209  0.505692  -0.702699
H    -1.703713  0.735460  -0.191754
H    -0.804723  0.614362  1.871555
C    -0.703704  -1.534988  1.856109
C    0.114290  -2.796349  1.388920
C    -0.670815  -3.941591  0.762404
O    -1.333748  -3.826662  -0.349724
N    -0.658599  -5.128732  1.322771
H    -1.791707  -1.700599  1.792279
H    -0.518958  -1.415592  2.931354
H    0.675989  -3.178653  2.249158
H    0.892082  -2.536280  0.647307
H    -1.147360  -5.911111  0.883519
H    -0.149209  -5.316061  2.183093
O    1.780741  -0.029482  2.235981
H    2.726186  0.221504  2.141735
Hg    -1.374715  -1.828546  -0.951280
