21
Energy: -567869.880823 eV PBE+vdW (tier 2 basis)
N    0.149403  0.703168  0.535345
C    -0.580890  0.405505  1.697795
C    0.363363  0.276396  2.969485
O    -0.093133  0.365070  4.090246
H    0.752840  0.008165  0.097370
H    0.296995  1.667947  0.245184
H    -1.239545  1.254564  1.926882
C    -1.405472  -0.919227  1.533789
C    -2.220395  -1.429559  2.739234
C    -3.314263  -0.509444  3.258378
O    -4.556735  -0.637095  2.988558
N    -2.968354  0.499922  4.039137
H    -0.710037  -1.722160  1.250304
H    -2.065085  -0.746995  0.672633
H    -1.566167  -1.694779  3.580934
H    -2.706976  -2.364241  2.420276
H    -1.985888  0.612503  4.322212
H    -3.679304  1.115904  4.432682
O    1.621089  0.057228  2.643689
H    2.184354  -0.023213  3.447125
Hg    -5.618960  -2.377432  1.982635
