21
Energy: -567869.614988 eV PBE+vdW (tier 2 basis)
N    0.398140  -0.575856  -0.137890
C    -0.327343  -0.564299  1.195245
C    0.756653  -0.010015  2.156523
O    1.858591  0.276020  1.727013
H    0.515884  -1.515352  -0.535203
H    1.358340  -0.190571  0.128493
H    -1.135013  0.178157  1.137350
C    -0.864054  -1.938079  1.625980
C    -2.168561  -2.423112  0.966600
C    -3.396533  -1.725313  1.471275
O    -4.643131  -2.013197  1.109095
N    -3.377542  -0.678294  2.208588
H    -1.016322  -1.889708  2.713400
H    -0.082576  -2.698800  1.475210
H    -2.283604  -3.498448  1.179411
H    -2.156882  -2.344107  -0.133183
H    -0.026724  0.032535  -0.846881
H    -4.216833  -0.307738  2.671884
O    0.320144  0.103831  3.397187
H    1.025444  0.478052  3.969153
Hg    -5.454126  -3.833885  0.300448
