21
Energy: -567870.635579 eV PBE+vdW (tier 2 basis)
N    0.729433  0.657919  1.276714
C    -0.017227  -0.159624  2.320277
C    0.901191  -1.289199  2.793026
O    0.536551  -1.883061  3.844593
H    1.403346  1.300813  1.721013
H    0.094412  1.228276  0.699045
H    -0.284199  0.520551  3.137051
C    -1.297208  -0.839873  1.757705
C    -1.113905  -2.134821  0.901257
C    -1.455234  -3.451254  1.596498
O    -0.607824  -4.300524  2.033194
N    -2.738329  -3.773503  1.698617
H    -1.852367  -0.091493  1.173715
H    -1.921063  -1.048980  2.636845
H    -0.097873  -2.230043  0.498159
H    -1.774251  -2.062072  0.026681
H    -3.004517  -4.652281  2.142089
H    -3.471470  -3.238524  1.241481
O    1.783174  -1.679133  1.975426
H    1.280788  0.024698  0.670797
Hg    1.385847  -3.864006  2.965766
