21
Energy: -567870.671592 eV PBE+vdW (tier 2 basis)
N    0.141695  -1.011341  -0.090206
C    0.151286  -0.185617  1.154654
C    1.637563  0.165881  1.523683
O    2.464950  0.171141  0.573582
H    0.909906  -0.762681  -0.727809
H    0.185380  -2.112287  0.244059
H    -0.254811  0.814149  0.923659
C    -0.677089  -0.825590  2.270622
C    -0.172631  -2.121447  2.937645
C    -0.180151  -3.384458  2.089057
O    0.069853  -3.345149  0.852036
N    -0.414418  -4.545471  2.686014
H    -1.689117  -0.986786  1.861140
H    -0.799270  -0.072335  3.058998
H    -0.777479  -2.282093  3.839618
H    0.864721  -1.994889  3.291499
H    -0.662473  -4.612876  3.667888
H    -0.383737  -5.406542  2.142483
O    1.885509  0.483042  2.716764
H    -0.748090  -0.895382  -0.592133
Hg    4.080252  1.034516  2.096194
