21
Energy: -567869.737359 eV PBE+vdW (tier 2 basis)
N    -0.598303  0.511089  0.411941
C    -0.252001  -0.075420  1.763511
C    1.092563  -0.796128  1.542453
O    1.642428  -0.779938  0.459067
H    0.247687  0.366845  -0.186896
H    -0.826698  1.510825  0.458829
H    -0.055938  0.766651  2.442701
C    -1.369202  -0.929332  2.390156
C    -1.651116  -2.331767  1.815105
C    -2.445250  -2.373815  0.546658
O    -2.872164  -3.491096  -0.027329
N    -2.671536  -1.344291  -0.199885
H    -2.296455  -0.337657  2.418184
H    -1.082287  -1.066196  3.441536
H    -2.217482  -2.897317  2.574050
H    -0.726121  -2.911660  1.658935
H    -1.404146  -0.011647  -0.014948
H    -3.351332  -1.429814  -0.967710
O    1.526891  -1.382371  2.651087
H    2.419802  -1.761729  2.499823
Hg    -3.303778  -5.378071  0.884996
