21
Energy: -567870.512408 eV PBE+vdW (tier 2 basis)
N    0.105392  -0.369509  -0.334831
C    0.107896  -0.010659  1.132807
C    1.556090  -0.299787  1.680731
O    2.487483  -0.163703  0.838998
H    -0.800958  -0.163922  -0.776619
H    0.843453  0.125515  -0.854815
H    0.037614  1.086424  1.212652
C    -1.046936  -0.645874  1.913311
C    -1.441462  -2.108006  1.634431
C    -0.277710  -3.075946  1.453205
O    0.701224  -2.714224  0.755034
N    -0.357543  -4.286456  1.996877
H    -1.935856  -0.023703  1.719244
H    -0.815603  -0.507893  2.976889
H    -2.033912  -2.184119  0.707221
H    -2.109563  -2.442149  2.438769
H    -1.167291  -4.586825  2.530645
H    0.356094  -4.981827  1.787638
O    1.692466  -0.522603  2.906136
H    0.310711  -1.409451  -0.344769
Hg    4.035410  -0.596282  2.562446
