21
Energy: -567869.708079 eV PBE+vdW (tier 2 basis)
N    -0.126945  0.784877  0.186424
C    -0.154271  0.001828  1.350640
C    1.178371  -0.888880  1.480455
O    1.445218  -1.773111  0.694094
H    -0.592231  0.503328  -0.672022
H    0.410634  1.649457  0.153351
H    -0.042331  0.680361  2.215659
C    -1.442802  -0.841874  1.542580
C    -1.598315  -2.263972  0.961810
C    -1.661406  -2.388447  -0.551921
O    -2.675557  -2.774884  -1.205836
N    -0.564383  -2.090812  -1.246492
H    -2.280065  -0.205417  1.222946
H    -1.550447  -0.958666  2.631896
H    -2.533419  -2.681162  1.361192
H    -0.795175  -2.926601  1.317713
H    -0.552351  -2.239269  -2.256311
H    0.333952  -2.032404  -0.735595
O    1.880429  -0.505591  2.523809
H    2.705198  -1.036816  2.611548
Hg    -4.802189  -3.328546  -0.465163
