21
Energy: -567870.84257 eV PBE+vdW (tier 2 basis)
N    1.043819  -0.425960  0.315168
C    0.138674  0.263890  1.317064
C    1.185335  1.100309  2.175785
O    0.825160  1.828684  3.218514
H    0.746801  -0.309633  -0.661698
H    1.170157  -1.429793  0.499535
H    -0.429903  1.009017  0.741337
C    -0.841601  -0.728987  2.021365
C    -2.364729  -0.344673  1.972532
C    -3.119101  -0.302601  3.295369
O    -2.803489  0.487495  4.271748
N    -4.187552  -1.049679  3.460759
H    -0.503179  -0.933387  3.049326
H    -0.755644  -1.706450  1.528800
H    -2.885177  -1.028736  1.291986
H    -2.506742  0.657347  1.532277
H    -4.731974  -0.981041  4.322654
H    -4.522847  -1.686600  2.742579
O    2.335128  1.114075  1.780045
H    1.979939  0.059406  0.481110
Hg    -1.005078  1.470318  4.001743
