21
Energy: -567870.66041 eV PBE+vdW (tier 2 basis)
N    1.250215  -0.051485  0.447845
C    0.297857  0.069781  1.621793
C    0.595490  -1.068451  2.602110
O    0.313901  -0.804328  3.818570
H    1.347559  -1.053471  0.198845
H    2.191048  0.300742  0.683837
H    0.438291  1.056086  2.077652
C    -1.163967  -0.162948  1.136599
C    -2.228300  -0.297707  2.273384
C    -2.877615  -1.673982  2.381967
O    -2.400182  -2.689554  2.994293
N    -4.048464  -1.839468  1.783202
H    -1.169318  -1.064005  0.505290
H    -1.441922  0.686913  0.498274
H    -3.021066  0.438209  2.096900
H    -1.799937  -0.046741  3.252693
H    -4.527679  -2.737375  1.841513
H    -4.518651  -1.083592  1.294478
O    0.840646  -2.192475  2.112683
H    0.922514  0.471455  -0.378555
Hg    -0.480417  -2.905605  4.138628
