21
Energy: -567869.642147 eV PBE+vdW (tier 2 basis)
N    0.194930  -0.484703  0.159963
C    -0.008918  -0.278828  1.649772
C    1.343244  -0.347535  2.382459
O    1.442897  -0.700707  3.532224
H    -0.565050  -0.058671  -0.386695
H    1.089484  -0.069900  -0.143996
H    -0.343084  0.764471  1.766890
C    -1.099708  -1.198371  2.225110
C    -0.736794  -2.637561  2.636754
C    -0.365752  -3.590036  1.547240
O    -0.077367  -4.867494  1.765436
N    -0.146626  -3.250668  0.318090
H    -1.957496  -1.200069  1.535816
H    -1.463771  -0.704133  3.136076
H    -1.611018  -3.061081  3.160340
H    0.077376  -2.632015  3.379578
H    -0.025498  -4.006916  -0.369127
H    0.195133  -1.529644  -0.027284
O    2.342093  0.077459  1.591598
H    3.185329  0.105358  2.093146
Hg    -0.706094  -6.090698  3.403519
