21
Energy: -567870.965895 eV PBE+vdW (tier 2 basis)
N    0.261707  -0.649927  -0.122719
C    0.187288  0.194207  1.086786
C    1.382043  -0.197632  1.973400
O    1.753540  -1.376201  2.104945
H    -0.534326  -0.512015  -0.750915
H    1.114283  -0.478953  -0.667956
H    0.290202  1.256398  0.821257
C    -1.122481  -0.031536  1.934514
C    -2.379471  -0.656965  1.263954
C    -2.700636  -2.101590  1.637641
O    -1.870597  -3.080960  1.589883
N    -3.933010  -2.383612  2.014414
H    -1.405050  0.955639  2.318352
H    -0.873448  -0.615348  2.834763
H    -2.352771  -0.626721  0.162392
H    -3.245233  -0.037426  1.526156
H    -4.652815  -1.670542  2.095499
H    -4.194786  -3.346649  2.227333
O    1.925595  0.813142  2.591882
H    2.657347  0.533858  3.189899
Hg    0.178785  -2.715141  0.993219
