21
Energy: -567870.800748 eV PBE+vdW (tier 2 basis)
N    -0.700831  1.046532  0.753146
C    -0.306747  0.161280  1.870624
C    1.231517  0.207221  2.021876
O    1.983395  0.363821  1.049522
H    -0.574289  2.040630  0.974734
H    -1.679563  0.908585  0.482701
H    -0.753284  0.547736  2.802547
C    -0.812781  -1.303888  1.692635
C    -0.060378  -2.321480  0.775718
C    -0.462143  -2.430924  -0.688442
O    -0.157760  -1.572931  -1.594725
N    -1.136729  -3.497247  -1.077035
H    -1.879871  -1.258542  1.427961
H    -0.793747  -1.745085  2.698113
H    -0.209801  -3.308084  1.232322
H    1.031541  -2.170015  0.798947
H    -1.382459  -3.615634  -2.060415
H    -1.380000  -4.248944  -0.437934
O    1.774241  0.013731  3.195393
H    1.137166  -0.028207  3.937627
Hg    0.746274  0.285955  -0.925141
