21
Energy: -567869.786108 eV PBE+vdW (tier 2 basis)
N    -0.002717  -0.282468  0.213181
C    -0.197271  -0.313129  1.605688
C    1.198897  -0.727401  2.305081
O    1.404287  -1.819396  2.786367
H    0.495992  0.497743  -0.211513
H    -0.073257  -1.119738  -0.358892
H    -0.288250  0.729289  1.959548
C    -1.414989  -1.102356  2.128026
C    -1.998855  -2.304911  1.372121
C    -1.459578  -3.711407  1.593252
O    -2.087442  -4.744039  1.179340
N    -0.318042  -3.915967  2.215245
H    -2.220514  -0.350618  2.124611
H    -1.262379  -1.343247  3.188920
H    -2.027096  -2.142007  0.281342
H    -3.058045  -2.374407  1.673006
H    0.289833  -3.136074  2.523519
H    0.008291  -4.871478  2.363739
O    2.033374  0.286481  2.239822
H    2.902160  0.060771  2.643678
Hg    -4.189351  -4.889221  0.303231
