23
Energy: -602162.165879 eV PBE+vdW (tier 2 basis)
N    0.707641  -0.406540  0.009091
C    -0.199016  -0.040911  1.174270
C    0.632900  0.605797  2.267336
O    0.105861  1.546676  2.946863
H    1.064841  0.425981  -0.482744
H    0.199292  -0.979578  -0.681483
H    -0.919461  0.696089  0.798892
C    -0.957758  -1.307464  1.703337
C    -1.733008  -1.003171  3.017156
C    -0.084570  -2.566172  1.794115
C    -1.019138  -1.212396  4.354871
H    -1.731972  -1.483851  0.938638
H    -2.591406  -1.692284  3.030996
H    -2.177298  0.001335  2.971460
H    0.265246  -2.922773  0.814647
H    -0.686185  -3.390276  2.197962
H    0.789056  -2.447163  2.448347
H    -0.649357  -2.233923  4.502444
H    -1.690305  -0.967849  5.186646
H    -0.116431  -0.557956  4.496060
O    1.776473  0.119886  2.568995
H    1.518762  -0.953667  0.339535
Pb    1.596834  1.180208  4.685568
