23
Energy: -602162.291859 eV PBE+vdW (tier 2 basis)
N    -0.006284  1.184301  3.114078
C    0.471209  -0.245664  3.303975
C    1.497688  -0.556521  2.235951
O    1.559302  0.172677  1.186515
H    -0.941556  1.297993  3.537680
H    0.626498  1.868359  3.552203
H    0.934116  -0.303886  4.297623
C    -0.713753  -1.260833  3.237475
C    -1.335214  -1.481589  1.835351
C    -1.787891  -0.870066  4.264016
C    -0.585548  -2.374750  0.833854
H    -0.256633  -2.206153  3.568939
H    -1.607145  -0.524682  1.360197
H    -2.301302  -1.976909  2.014004
H    -2.400526  -0.009936  3.943189
H    -1.366509  -0.658955  5.256314
H    -2.496752  -1.698177  4.386431
H    -1.264248  -2.745677  0.055856
H    -0.115299  -3.243062  1.313375
H    0.180824  -1.800022  0.254204
O    2.187651  -1.620918  2.351773
H    -0.056760  1.412766  2.107940
Pb    2.670133  -1.623295  0.090058
