23
Energy: -602162.253273 eV PBE+vdW (tier 2 basis)
N    0.488114  -1.066071  0.039063
C    0.056514  -0.381824  1.325682
C    1.301305  0.084050  2.058717
O    2.393304  -0.581216  1.947459
H    0.839778  -0.408301  -0.670866
H    1.231876  -1.754902  0.230079
H    -0.539061  0.499240  1.049572
C    -0.813751  -1.380261  2.161422
C    -2.241000  -1.508934  1.578137
C    -0.884358  -0.989080  3.642311
C    -2.392323  -1.920791  0.109703
H    -0.304355  -2.359797  2.092903
H    -2.779913  -0.565197  1.754544
H    -2.745469  -2.260495  2.201631
H    0.088562  -1.062346  4.147287
H    -1.557653  -1.680750  4.161607
H    -1.279542  0.025433  3.783041
H    -3.440753  -2.160970  -0.107280
H    -1.830425  -2.838792  -0.138124
H    -2.150494  -1.114903  -0.606240
O    1.241668  1.116784  2.807755
H    -0.336469  -1.559147  -0.358863
Pb    3.432413  0.860000  3.499531
