23
Energy: -602161.883465 eV PBE+vdW (tier 2 basis)
N    0.874750  -0.407381  0.234209
C    0.064250  0.033544  1.412639
C    1.035449  0.474430  2.499076
O    2.166921  -0.062738  2.607886
H    1.211391  0.406109  -0.296915
H    0.274747  -0.932935  -0.413122
H    -0.586841  0.873104  1.125366
C    -0.842814  -1.140972  1.919827
C    -1.795902  -0.676255  3.045616
C    -0.052065  -2.391906  2.318458
C    -2.958753  -1.640373  3.299300
H    -1.468731  -1.388745  1.044379
H    -2.214207  0.305207  2.763852
H    -1.230500  -0.532774  3.981122
H    0.549306  -2.826237  1.479721
H    -0.730586  -3.227729  2.541017
H    0.562862  -2.254593  3.221603
H    -3.635042  -1.215207  4.049716
H    -2.623187  -2.610414  3.687468
H    -3.545664  -1.814315  2.387743
O    0.718113  1.364522  3.388913
H    -0.167937  1.764393  3.263344
Pb    2.768503  -1.709527  1.153837
