23
Energy: -602161.702567 eV PBE+vdW (tier 2 basis)
N    1.107204  -1.271946  0.757122
C    0.276483  -0.458742  1.699496
C    1.181244  -0.030152  2.844162
O    2.076878  -0.808647  3.271427
H    0.469135  -1.784799  0.129458
H    1.676349  -0.666880  0.150286
H    -0.133489  0.424284  1.183590
C    -0.899926  -1.335283  2.258606
C    -2.035147  -1.531233  1.229158
C    -1.466443  -0.793200  3.576134
C    -1.703193  -2.127635  -0.140597
H    -0.443135  -2.334726  2.469297
H    -2.543083  -0.562358  1.096991
H    -2.772223  -2.179083  1.725267
H    -0.737341  -0.771762  4.397081
H    -2.296681  -1.428875  3.905017
H    -1.880788  0.218170  3.449080
H    -1.166735  -1.433663  -0.808938
H    -2.631334  -2.363803  -0.675939
H    -1.155430  -3.082852  -0.068724
O    1.051461  1.102858  3.460700
H    0.346669  1.681631  3.102246
Pb    2.512265  -2.730085  2.163765
