23
Energy: -602162.290239 eV PBE+vdW (tier 2 basis)
N    -0.899708  0.790937  3.814578
C    0.030700  -0.411746  3.820088
C    1.378570  0.011467  3.257741
O    1.630543  1.251834  3.041069
H    -1.555955  0.759016  4.606485
H    -1.461471  0.786337  2.946846
H    0.227530  -0.649173  4.878614
C    -0.647629  -1.645457  3.165266
C    -1.205529  -1.370000  1.754786
C    -1.726665  -2.205621  4.103196
C    -0.214059  -0.873175  0.701969
H    0.162505  -2.386978  3.082392
H    -2.082007  -0.694048  1.807560
H    -1.645954  -2.317662  1.413883
H    -2.578414  -1.518653  4.228252
H    -1.326984  -2.449890  5.096281
H    -2.139994  -3.129853  3.682463
H    -0.695434  -0.826124  -0.282171
H    0.645549  -1.551275  0.612178
H    0.159350  0.145190  0.901648
O    2.279975  -0.874960  3.081255
H    -0.366546  1.674493  3.849856
Pb    3.843625  0.695341  2.432765
