23
Energy: -602161.93652 eV PBE+vdW (tier 2 basis)
N    -0.397346  0.242951  0.174739
C    -0.065246  -0.094134  1.591916
C    1.387851  -0.544928  1.638275
O    1.930315  -1.086951  0.645269
H    -0.034400  1.172427  -0.070158
H    -1.418765  0.304877  0.079865
H    -0.202367  0.794136  2.228064
C    -1.005438  -1.233261  2.124074
C    -0.781938  -2.588613  1.417983
C    -2.464043  -0.754201  2.106606
C    -1.732322  -3.715761  1.830815
H    -0.710879  -1.382765  3.176517
H    0.254369  -2.932698  1.561786
H    -0.949503  -2.461519  0.299280
H    -2.569430  0.247673  2.542756
H    -3.088360  -1.427581  2.704442
H    -2.904844  -0.747156  1.096918
H    -1.442041  -4.660788  1.358466
H    -2.774569  -3.507086  1.567633
H    -1.671639  -3.859626  2.919459
O    2.094647  -0.457182  2.726210
H    1.656630  0.017571  3.462908
Pb    0.652842  -1.513986  -1.206520
