23
Energy: -602161.910155 eV PBE+vdW (tier 2 basis)
N    0.911150  -0.545961  0.211398
C    0.351448  -0.237663  1.564063
C    1.493493  -0.291459  2.566498
O    2.484223  -1.044597  2.382522
H    0.143201  -0.775114  -0.431228
H    1.366785  0.285425  -0.186260
H    -0.095691  0.766919  1.560999
C    -0.760663  -1.276502  1.941662
C    -1.456834  -0.952255  3.283484
C    -0.260751  -2.726048  1.931228
C    -2.019898  0.464900  3.412245
H    -1.514023  -1.157444  1.143297
H    -0.783507  -1.187200  4.123982
H    -2.287248  -1.666104  3.379671
H    0.457450  -2.946710  2.736395
H    0.134344  -3.055660  0.937691
H    -1.095871  -3.427161  2.075553
H    -1.255385  1.262469  3.461279
H    -2.600284  0.554603  4.337781
H    -2.688865  0.720892  2.579329
O    1.456612  0.380003  3.675483
H    0.657174  0.945066  3.768244
Pb    2.542966  -2.376472  0.538943
