23
Energy: -602160.464462 eV PBE+vdW (tier 2 basis)
N    0.140754  -0.540813  -0.278312
C    0.036943  -0.272940  1.140609
C    1.531984  -0.374494  1.410865
O    2.309256  0.639585  1.268848
H    -0.118294  0.193583  -0.929867
H    -0.065090  -1.483254  -0.600225
H    -0.268515  0.767442  1.309887
C    -0.833685  -1.228810  1.975417
C    -2.293728  -1.234249  1.458255
C    -0.719451  -0.889376  3.467491
C    -3.030201  0.105285  1.510671
H    -0.460588  -2.265463  1.815322
H    -2.834110  -1.977634  2.061862
H    -2.312770  -1.626310  0.429765
H    0.310893  -0.953682  3.850387
H    -1.318790  -1.590561  4.060533
H    -1.090316  0.121392  3.680159
H    -3.090676  0.514300  2.526937
H    -4.060607  -0.028654  1.160640
H    -2.578416  0.868652  0.859864
O    2.122705  -1.505412  1.700767
H    1.463001  -2.214921  1.880697
Pb    4.396352  1.175453  1.543138
