23
Energy: -602162.290474 eV PBE+vdW (tier 2 basis)
N    0.493732  -0.282932  0.098609
C    -0.048226  0.143491  1.455073
C    1.084806  0.740634  2.273017
O    2.256142  0.873116  1.768971
H    -0.276358  -0.379473  -0.578622
H    1.186868  0.382661  -0.273310
H    -0.763640  0.958982  1.262578
C    -0.781327  -1.033812  2.149178
C    0.180066  -2.202710  2.449102
C    -2.020944  -1.440487  1.340279
C    -0.431099  -3.289739  3.337960
H    -1.118303  -0.607793  3.107762
H    1.090631  -1.815186  2.939860
H    0.514952  -2.681411  1.508191
H    -2.659295  -0.579599  1.099150
H    -2.635454  -2.136312  1.921716
H    -1.766440  -1.967613  0.407000
H    0.319878  -4.050568  3.579706
H    -1.264293  -3.803411  2.844315
H    -0.800269  -2.868634  4.282461
O    0.838120  1.138238  3.461711
H    0.952429  -1.204948  0.178610
Pb    2.995509  1.906531  3.764186
