23
Energy: -602162.245896 eV PBE+vdW (tier 2 basis)
N    -0.005695  0.481054  0.645534
C    0.196120  -0.450743  1.828829
C    1.575348  -1.066908  1.707336
O    2.157875  -1.534631  2.743271
H    -1.022844  0.605583  0.497992
H    0.403307  0.068257  -0.208214
H    0.149614  0.158035  2.741871
C    -0.950320  -1.518084  1.854307
C    -2.337457  -0.827925  1.762283
C    -0.836195  -2.413704  3.094338
C    -2.675016  0.192725  2.850065
H    -0.829558  -2.144883  0.953502
H    -3.072417  -1.646004  1.782421
H    -2.497804  -0.390053  0.756287
H    0.070805  -3.028488  3.093129
H    -1.690205  -3.100932  3.115886
H    -0.848826  -1.835905  4.026953
H    -2.623540  -0.243452  3.854668
H    -3.698389  0.560674  2.710792
H    -2.024297  1.082303  2.841126
O    2.137364  -1.144808  0.554125
H    0.419637  1.407683  0.784417
Pb    3.979492  -2.260796  1.520082
