23
Energy: -602162.2423 eV PBE+vdW (tier 2 basis)
N    -0.243389  1.198136  0.867677
C    0.158204  0.119446  1.864781
C    1.556703  -0.356198  1.524204
O    2.139632  -1.184750  2.302575
H    -1.060862  1.717964  1.218720
H    -0.508989  0.773031  -0.034765
H    0.195900  0.600065  2.854676
C    -0.927192  -1.000054  1.883807
C    -0.857955  -1.855161  3.164628
C    -0.909361  -1.848152  0.607896
C    -0.950931  -1.077514  4.476405
H    -1.882442  -0.443792  1.930859
H    0.048195  -2.478621  3.148271
H    -1.700917  -2.558440  3.096849
H    -0.015989  -2.487076  0.557405
H    -0.966326  -1.266902  -0.327179
H    -1.778814  -2.516051  0.596924
H    -1.046016  -1.771379  5.319869
H    -1.830995  -0.419348  4.504034
H    -0.055940  -0.470782  4.684013
O    2.147787  0.072816  0.468777
H    0.514382  1.870306  0.677313
Pb    4.044313  -1.231544  0.993263
