23
Energy: -602160.443217 eV PBE+vdW (tier 2 basis)
N    0.758542  -0.511088  -0.051735
C    0.139778  -0.200532  1.220436
C    1.466255  0.089393  1.916727
O    2.003237  1.254862  1.871252
H    0.885330  -1.490425  -0.293366
H    0.581788  0.102021  -0.841710
H    -0.420993  0.740998  1.150983
C    -0.719566  -1.280466  1.900969
C    -2.004882  -1.593624  1.099668
C    -1.068267  -0.832811  3.329511
C    -1.842717  -2.317216  -0.236499
H    -0.130665  -2.223661  1.942338
H    -2.572873  -0.658786  0.965021
H    -2.624136  -2.216021  1.762950
H    -1.598136  -1.634294  3.857080
H    -1.731538  0.042909  3.313432
H    -0.190699  -0.577456  3.943595
H    -1.424181  -1.679166  -1.027946
H    -2.823157  -2.645985  -0.603884
H    -1.219172  -3.218486  -0.144667
O    2.179427  -0.842448  2.500142
H    1.675284  -1.683450  2.583608
Pb    3.722204  2.310024  2.689532
