23
Energy: -602161.924735 eV PBE+vdW (tier 2 basis)
N    0.264659  0.461681  0.827448
C    -0.052662  -0.325780  2.060590
C    1.189477  -1.087789  2.499088
O    2.132275  -1.338488  1.710137
H    0.543205  1.416023  1.084453
H    -0.600265  0.568753  0.282524
H    -0.335470  0.376996  2.860333
C    -1.254479  -1.315894  1.857627
C    -0.942458  -2.604616  1.060351
C    -2.488076  -0.560166  1.343752
C    -0.536658  -2.483727  -0.406259
H    -1.495444  -1.653135  2.878976
H    -1.865626  -3.203968  1.082695
H    -0.205837  -3.222502  1.596561
H    -3.364346  -1.218051  1.399743
H    -2.415970  -0.251369  0.288636
H    -2.710720  0.329870  1.946860
H    0.572246  -2.301233  -0.528056
H    -1.083423  -1.724098  -0.979218
H    -0.641162  -3.439266  -0.938025
O    1.295122  -1.562095  3.705855
H    0.561523  -1.318658  4.307713
Pb    2.099962  -0.605798  -0.445043
