28
Energy: -569909.7592863  eV PBE+vdW (tier 2 basis)
N    2.462833  -0.718418  1.560509
C    1.000791  -0.826687  1.434372
C    0.359281  0.474587  0.854449
O    0.977844  1.472961  0.473235
H    2.779749  -0.648368  2.533613
H    2.970862  -1.477461  1.095698
H    0.793544  -1.568667  0.643226
C    0.303025  -1.245556  2.766327
C    0.434118  -2.748486  3.084570
C    -0.362293  -3.109202  4.361257
N    -0.324782  -4.542638  4.626344
C    -1.287964  -5.269168  5.260606
N    -1.194063  -6.602677  5.232213
N    -2.300516  -4.669217  5.882343
H    -0.758023  -0.983074  2.670325
H    0.700149  -0.626089  3.587766
H    1.490942  -3.029541  3.220723
H    0.041616  -3.343061  2.245918
H    -1.415214  -2.810331  4.247243
H    0.049284  -2.556131  5.225229
H    0.548739  -5.032795  4.441793
H    -1.768001  -7.186865  5.836919
H    -3.091139  -5.207602  6.228679
H    -2.245796  -3.706954  6.198194
H    -0.595366  -7.089816  4.570981
O    -0.938138  0.367598  0.766527
H    -1.351747  1.161042  0.350937
Hg    3.305264  1.300613  0.552003
