28
Energy: -569909.8428383  eV PBE+vdW (tier 2 basis)
N    -0.556077  0.500362  -0.073360
C    -0.196871  0.201591  1.378172
C    1.356875  0.283689  1.526441
O    1.845872  -0.102707  2.623103
H    -1.559187  0.729207  -0.163256
H    -0.010507  1.305873  -0.426000
H    -0.542511  1.082716  1.944759
C    -0.904980  -1.032230  1.952031
C    -0.577994  -2.428333  1.382661
C    -1.407397  -3.494650  2.129450
N    -1.178971  -4.839939  1.603737
C    -1.503110  -5.996258  2.242971
N    -1.120695  -7.155734  1.694123
N    -2.167338  -5.980156  3.396329
H    -1.987602  -0.836087  1.868222
H    -0.686964  -1.009594  3.030122
H    0.492592  -2.654190  1.497203
H    -0.817506  -2.483011  0.307357
H    -2.481392  -3.241424  2.057905
H    -1.136137  -3.493624  3.196548
H    -0.936631  -4.930102  0.619716
H    -1.469888  -8.046209  2.041215
H    -2.288334  -6.829924  3.941629
H    -2.698202  -5.174194  3.706196
H    -0.428731  -7.201363  0.951908
O    1.994488  0.815228  0.580562
H    -0.355424  -0.289047  -0.705370
Hg    3.948623  0.719106  2.005627
