28
Energy: -569909.1670332  eV PBE+vdW (tier 2 basis)
N    0.020698  -0.075879  -0.833892
C    -0.270567  0.382656  0.538549
C    1.022787  0.536036  1.401185
O    2.164765  0.309511  0.982901
H    -0.194039  -1.066644  -0.989439
H    -0.469206  0.478466  -1.545149
H    -0.652599  1.413390  0.443683
C    -1.374550  -0.470829  1.249394
C    -1.013343  -1.885275  1.749332
C    -2.232929  -2.525998  2.449819
N    -1.919346  -3.845016  2.997102
C    -2.836067  -4.786820  3.355343
N    -4.140006  -4.525851  3.325001
N    -2.390521  -5.995232  3.721319
H    -2.225063  -0.508435  0.552130
H    -1.740895  0.138306  2.092009
H    -0.172175  -1.834881  2.459269
H    -0.700576  -2.539884  0.920916
H    -3.061893  -2.640796  1.734433
H    -2.582884  -1.859112  3.259787
H    -0.967937  -4.008390  3.320395
H    -4.824744  -5.266533  3.457146
H    -3.011115  -6.683417  4.143179
H    -1.437306  -6.298999  3.542224
H    -4.505877  -3.580234  3.323153
O    0.905312  0.933081  2.638758
H    0.001021  1.187183  2.913890
Hg    2.350051  0.096594  -1.317437
