28
Energy: -569909.7284258  eV PBE+vdW (tier 2 basis)
N    0.691576  0.958494  0.429959
C    0.169516  0.497616  1.731682
C    1.236247  -0.330776  2.494189
O    2.441510  -0.344546  2.226842
H    0.455847  0.323625  -0.343441
H    0.370712  1.902397  0.186093
H    0.032225  1.396945  2.356287
C    -1.206226  -0.244212  1.546225
C    -2.180134  -0.060460  2.729920
C    -3.579352  -0.662770  2.381802
N    -4.553541  -0.406812  3.431084
C    -5.276743  -1.306432  4.158603
N    -6.342146  -0.857075  4.826026
N    -4.937334  -2.592914  4.207336
H    -1.021212  -1.307763  1.338116
H    -1.674572  0.181649  0.646298
H    -2.309559  1.011999  2.940090
H    -1.792732  -0.527718  3.643956
H    -3.516554  -1.740873  2.191621
H    -3.957164  -0.199427  1.456364
H    -4.816084  0.568261  3.568565
H    -6.757799  0.051082  4.636695
H    -5.550674  -3.280790  4.636993
H    -4.035827  -2.930597  3.894949
H    -6.850586  -1.452383  5.476294
O    0.731815  -0.989466  3.506558
H    1.435992  -1.455352  4.016131
Hg    3.069798  1.013299  0.397767
