28
Energy: -569909.1643660  eV PBE+vdW (tier 2 basis)
N    -0.074518  1.015170  0.750491
C    0.018266  0.359493  2.062590
C    1.507824  0.082533  2.482160
O    2.450376  0.039632  1.685934
H    -0.739171  0.568195  0.111960
H    -0.289449  2.017148  0.805345
H    -0.350296  1.083123  2.811481
C    -0.781447  -0.978448  2.129329
C    -2.311449  -0.766027  2.225175
C    -3.163614  -2.053651  2.195780
N    -3.317563  -2.701565  3.499147
C    -3.837476  -3.951035  3.685962
N    -3.901182  -4.429137  4.933416
N    -4.246337  -4.686712  2.656066
H    -0.422050  -1.559491  2.990517
H    -0.525248  -1.580054  1.241907
H    -2.661221  -0.159707  1.376109
H    -2.561247  -0.175691  3.121033
H    -2.743439  -2.787097  1.490656
H    -4.160546  -1.766475  1.811958
H    -3.371689  -2.088667  4.311229
H    -3.418260  -3.986208  5.709674
H    -4.512179  -5.660539  2.782557
H    -4.469910  -4.282062  1.753640
H    -4.410713  -5.283704  5.148691
O    1.765218  -0.159064  3.736727
H    1.013662  -0.033329  4.351442
Hg    2.034493  0.893984  -0.422083
