28
Energy: -569909.5868091  eV PBE+vdW (tier 2 basis)
N    -0.604383  1.848514  1.414455
C    0.870418  1.853711  1.503347
C    1.525195  1.987520  0.105433
O    0.946863  2.404036  -0.907731
H    -1.009174  0.907962  1.342595
H    -1.044014  2.332961  2.205261
H    1.144628  2.808764  1.986664
C    1.461721  0.724651  2.407417
C    1.380350  -0.742244  1.941742
C    2.098374  -1.645381  2.969330
N    2.072594  -3.054040  2.579920
C    2.314540  -4.105786  3.410882
N    2.122375  -5.343456  2.936769
N    2.713656  -3.913302  4.664815
H    0.975694  0.841405  3.387391
H    2.513373  1.009145  2.559436
H    1.861414  -0.859535  0.958325
H    0.337696  -1.083510  1.845922
H    1.616031  -1.555266  3.955278
H    3.146310  -1.308890  3.080235
H    2.046703  -3.270193  1.585396
H    2.428405  -6.163367  3.457081
H    2.761624  -4.687077  5.323502
H    3.118169  -3.038004  4.978371
H    1.608466  -5.521577  2.078250
O    2.796649  1.689030  0.117115
H    3.231527  1.892712  -0.744840
Hg    -1.294205  2.988214  -0.556356
