28
Energy: -569909.2866841  eV PBE+vdW (tier 2 basis)
N    1.263889  -0.070534  -0.117576
C    0.290014  0.441542  0.867032
C    1.000303  0.863589  2.191755
O    2.032581  0.325394  2.607748
H    0.895579  -0.844038  -0.682650
H    1.615650  0.657025  -0.752768
H    -0.147241  1.361781  0.439664
C    -0.816315  -0.620051  1.149463
C    -2.036731  -0.128533  1.960704
C    -3.151665  -1.199665  1.994557
N    -4.320795  -0.721242  2.731234
C    -5.267248  -1.504914  3.318502
N    -5.274872  -2.823885  3.142581
N    -6.182763  -0.914023  4.095800
H    -0.356176  -1.489385  1.646187
H    -1.164518  -0.958288  0.160583
H    -2.439485  0.787030  1.496758
H    -1.754287  0.110210  2.996374
H    -2.787067  -2.112199  2.489643
H    -3.443289  -1.467565  0.962771
H    -4.553087  0.267268  2.653747
H    -4.814747  -3.267427  2.355459
H    -7.006379  -1.416884  4.420658
H    -6.067840  0.034125  4.443845
H    -5.887945  -3.420003  3.693631
O    0.444589  1.776031  2.941095
H    -0.307223  2.245579  2.524990
Hg    3.187070  -0.911939  1.007213
