28
Energy: -569909.8481715  eV PBE+vdW (tier 2 basis)
N    1.042278  -1.682697  0.349828
C    0.914082  -0.409471  1.178904
C    2.350497  0.085794  1.543759
O    3.308932  -0.417523  0.901894
H    1.288336  -2.506072  0.919513
H    1.787495  -1.581741  -0.361048
H    0.564457  0.359515  0.469310
C    -0.117680  -0.507148  2.310543
C    0.116404  -1.502194  3.465172
C    -1.029851  -1.379589  4.493182
N    -0.898844  -2.344201  5.584142
C    -1.906021  -2.735266  6.410879
N    -1.676593  -3.743786  7.260479
N    -3.098778  -2.145660  6.365628
H    -1.087687  -0.713944  1.827392
H    -0.201471  0.515208  2.708464
H    1.077471  -1.290052  3.959725
H    0.148055  -2.542409  3.103670
H    -1.996957  -1.558591  3.998466
H    -1.046938  -0.351072  4.897402
H    0.039630  -2.616381  5.867824
H    -2.331771  -3.966346  8.006573
H    -0.882134  -4.368309  7.156728
H    -3.891230  -2.530810  6.873465
H    -3.233074  -1.224174  5.964907
O    2.435145  1.021500  2.385856
H    0.157841  -1.891774  -0.140650
Hg    4.724405  1.239194  1.956990
