28
Energy: -569909.2522205  eV PBE+vdW (tier 2 basis)
N    1.564485  -1.166285  -0.798955
C    0.350065  -0.457622  -0.346439
C    0.664976  0.517316  0.831531
O    1.594585  0.346477  1.627134
H    1.399366  -2.158590  -1.001889
H    1.998954  -0.734315  -1.624297
H    0.016452  0.174283  -1.188814
C    -0.762651  -1.474257  0.063647
C    -2.187951  -0.893765  0.205662
C    -3.238318  -2.032757  0.361248
N    -4.611236  -1.538686  0.320314
C    -5.604312  -1.738040  1.234149
N    -6.868155  -1.591399  0.828888
N    -5.330570  -2.064208  2.496421
H    -0.460068  -1.984246  0.991941
H    -0.777400  -2.235446  -0.732295
H    -2.441090  -0.311967  -0.694789
H    -2.267211  -0.221448  1.072011
H    -3.082453  -2.594218  1.290206
H    -3.122415  -2.753075  -0.465393
H    -4.920305  -1.148926  -0.568992
H    -7.127943  -1.600563  -0.154024
H    -4.417927  -1.918248  2.910028
H    -6.070138  -2.351060  3.132882
H    -7.637874  -1.563688  1.494418
O    -0.134898  1.528888  1.036473
H    -0.786963  1.687193  0.323651
Hg    3.233993  -1.140350  0.898286
