28
Energy: -569909.7089300  eV PBE+vdW (tier 2 basis)
N    1.873561  2.282207  1.062230
C    0.842701  1.270076  0.761583
C    -0.536035  1.914332  0.417313
O    -0.768698  3.126425  0.338067
H    2.145869  2.296138  2.051088
H    2.715523  2.189220  0.485411
H    1.126937  0.786005  -0.189110
C    0.694695  0.201838  1.885707
C    1.846222  -0.826033  1.930833
C    1.546098  -1.944107  2.949059
N    2.576193  -2.981891  2.924065
C    2.751726  -3.946155  3.868485
N    3.820738  -4.745896  3.764812
N    1.896499  -4.082478  4.877972
H    -0.252430  -0.322218  1.704493
H    0.580497  0.716279  2.854291
H    2.802720  -0.348421  2.192852
H    1.965936  -1.273670  0.930873
H    0.561265  -2.393994  2.721225
H    1.494158  -1.533552  3.970143
H    3.105519  -3.100077  2.062492
H    3.926676  -5.568817  4.354638
H    2.093424  -4.715160  5.649509
H    0.966298  -3.680184  4.859837
H    4.597101  -4.535262  3.143707
O    -1.437630  1.005911  0.166618
H    -2.301309  1.398112  -0.105002
Hg    1.073747  4.507371  0.647809
