28
Energy: -569909.1355493  eV PBE+vdW (tier 2 basis)
N    1.191173  -1.397266  1.299858
C    0.209333  -0.520303  0.646322
C    0.685159  0.976484  0.609051
O    1.545263  1.443774  1.362295
H    0.781959  -2.020826  2.002549
H    1.745764  -1.956857  0.641912
H    0.161756  -0.822876  -0.415453
C    -1.200100  -0.587567  1.315968
C    -2.013648  -1.833121  0.902568
C    -3.337182  -2.048000  1.695070
N    -4.485620  -1.231977  1.304591
C    -5.617434  -1.677429  0.686957
N    -6.724921  -0.933920  0.782262
N    -5.626848  -2.814907  -0.003655
H    -1.749538  0.329154  1.058083
H    -1.062621  -0.551102  2.409779
H    -1.422558  -2.746258  1.072738
H    -2.229320  -1.803987  -0.175946
H    -3.162939  -1.873609  2.767836
H    -3.623202  -3.103633  1.602588
H    -4.560567  -0.306602  1.719982
H    -6.835267  -0.213646  1.491046
H    -4.778812  -3.291492  -0.285175
H    -6.499276  -3.222800  -0.330401
H    -7.550130  -1.139091  0.222542
O    0.110955  1.790189  -0.230918
H    -0.505419  1.373045  -0.867543
Hg    2.808042  -0.098377  2.530092
