28
Energy: -569909.8431103  eV PBE+vdW (tier 2 basis)
N    1.321066  -1.756086  0.355084
C    0.805909  -0.504528  1.057309
C    2.036572  0.340008  1.520965
O    3.156441  0.032420  1.035394
H    0.571475  -2.201105  -0.198756
H    1.687673  -2.460657  1.012416
H    0.373827  0.116097  0.254157
C    -0.300061  -0.778954  2.084031
C    0.024308  -1.604444  3.346198
C    -1.241710  -1.725134  4.220926
N    -1.016798  -2.554660  5.403822
C    -1.819951  -2.589778  6.501378
N    -1.420806  -3.306861  7.558826
N    -2.966021  -1.913635  6.535284
H    -1.128664  -1.251340  1.529298
H    -0.672141  0.214960  2.373952
H    0.825603  -1.126993  3.929563
H    0.365778  -2.618331  3.077532
H    -2.066368  -2.147862  3.617582
H    -1.555486  -0.724984  4.557976
H    -0.323595  -3.296546  5.337913
H    -2.047000  -3.493584  8.338803
H    -0.467406  -3.643437  7.656263
H    -3.498757  -1.830947  7.397537
H    -3.428949  -1.587682  5.694428
O    1.801768  1.325430  2.272126
H    2.097700  -1.520644  -0.286987
Hg    4.021591  2.042274  2.065982
