28
Energy: -569909.2789543  eV PBE+vdW (tier 2 basis)
N    1.433595  -0.639658  -0.884632
C    0.287939  -0.086708  -0.136104
C    0.746829  0.548822  1.215764
O    1.741311  0.168716  1.841681
H    1.226162  -1.539020  -1.333005
H    1.799132  0.003226  -1.598518
H    -0.122255  0.741907  -0.741179
C    -0.788965  -1.188755  0.108374
C    -2.152588  -0.700465  0.644465
C    -3.172672  -1.873250  0.701192
N    -4.423888  -1.499100  1.350762
C    -5.693679  -1.647629  0.872665
N    -6.697778  -1.670776  1.750785
N    -5.930515  -1.762129  -0.433975
H    -0.371025  -1.951835  0.784849
H    -0.944661  -1.674101  -0.868068
H    -2.560601  0.096598  0.003739
H    -2.043690  -0.289527  1.659305
H    -2.735856  -2.706940  1.277537
H    -3.387135  -2.267173  -0.299481
H    -4.363250  -1.258301  2.339020
H    -6.549570  -1.847868  2.740763
H    -6.854369  -2.016140  -0.775399
H    -5.262394  -1.466315  -1.135326
H    -7.667444  -1.606018  1.448125
O    0.006825  1.481388  1.751939
H    -0.703726  1.825359  1.172837
Hg    3.257270  -1.084306  0.588883
