28
Energy: -569909.5863286  eV PBE+vdW (tier 2 basis)
N    -0.317777  2.331686  2.633819
C    1.050672  2.109002  2.122719
C    1.112907  2.247465  0.580889
O    0.259877  2.819564  -0.111362
H    -0.868799  1.470399  2.723819
H    -0.321474  2.816960  3.538142
H    1.649152  2.973026  2.463560
C    1.751455  0.839081  2.703407
C    1.254344  -0.559040  2.286785
C    2.149570  -1.635911  2.938158
N    1.757047  -2.989101  2.548634
C    2.142768  -4.133002  3.179123
N    1.600219  -5.289876  2.778113
N    3.020533  -4.104712  4.177702
H    1.711187  0.949020  3.797314
H    2.810996  0.953517  2.430522
H    1.295524  -0.668565  1.192004
H    0.213135  -0.733398  2.600308
H    2.090948  -1.565240  4.035818
H    3.202588  -1.456933  2.649772
H    1.306737  -3.109627  1.643599
H    1.953484  -6.184735  3.111393
H    3.209693  -4.935876  4.732915
H    3.632903  -3.313425  4.341352
H    0.777688  -5.325403  2.182228
O    2.216688  1.762098  0.078625
H    2.302875  1.962079  -0.883674
Hg    -1.528946  3.704947  1.115320
