28
Energy: -569910.0181175  eV PBE+vdW (tier 2 basis)
N    -0.412467  0.117816  0.012804
C    -0.044312  0.068281  1.492547
C    1.438647  0.544464  1.638289
O    1.981641  1.009189  0.596263
H    -1.435861  0.074241  -0.117328
H    0.002745  -0.665845  -0.516917
H    -0.642383  0.857228  1.976749
C    -0.358631  -1.317570  2.086602
C    -0.550185  -1.326129  3.615777
C    -0.965844  -2.732471  4.110147
N    -1.214591  -2.730428  5.548977
C    -2.058510  -3.563582  6.216227
N    -2.335344  -3.295538  7.496750
N    -2.609048  -4.611952  5.605541
H    0.418603  -2.037249  1.784309
H    -1.295336  -1.657444  1.611220
H    -1.328911  -0.602142  3.898733
H    0.382325  -1.023878  4.114614
H    -0.171666  -3.460388  3.864838
H    -1.888798  -3.057271  3.607522
H    -0.610765  -2.151458  6.129525
H    -2.804784  -3.975983  8.090056
H    -2.148484  -2.387123  7.911588
H    -3.349944  -5.145232  6.053950
H    -2.198297  -5.029493  4.777729
O    1.965901  0.474588  2.775065
H    -0.069557  0.987607  -0.429487
Hg    3.927858  1.511759  1.852910
