28
Energy: -569910.0251588  eV PBE+vdW (tier 2 basis)
N    1.630899  -1.441028  -0.545380
C    0.908380  -0.890855  0.680173
C    1.799256  0.251490  1.280552
O    1.399274  0.774610  2.356832
H    2.003836  -0.673358  -1.129688
H    2.438114  -2.029909  -0.285047
H    0.015171  -0.372164  0.295596
C    0.526541  -1.976635  1.695061
C    -0.600696  -2.924730  1.226270
C    -1.075345  -3.836371  2.387851
N    -2.178685  -4.694558  1.969053
C    -2.427621  -5.959790  2.406064
N    -3.359884  -6.677513  1.772612
N    -1.749494  -6.478306  3.429766
H    0.200258  -1.434280  2.594427
H    1.424666  -2.543431  1.989482
H    -0.275541  -3.569579  0.395174
H    -1.453680  -2.326568  0.868369
H    -1.390770  -3.207028  3.237912
H    -0.249973  -4.477127  2.727165
H    -2.930809  -4.258230  1.438621
H    -3.727806  -7.537997  2.171730
H    -1.831040  -7.465708  3.658835
H    -1.309739  -5.894043  4.132318
H    -3.709789  -6.419047  0.854589
O    2.811945  0.595733  0.622593
H    0.999849  -2.009195  -1.130155
Hg    3.141685  2.311617  2.328229
