28
Energy: -569909.8651625  eV PBE+vdW (tier 2 basis)
N    -0.441528  1.227992  2.072687
C    0.477469  0.032043  2.306543
C    1.832832  0.328819  1.585365
O    2.683235  -0.602518  1.564144
H    -0.850761  1.223764  1.124637
H    -1.217034  1.249095  2.751978
H    0.722689  0.049018  3.381127
C    -0.157966  -1.309738  1.902043
C    -1.394451  -1.693027  2.740186
C    -2.096444  -3.015108  2.317368
N    -1.535112  -4.214477  2.934044
C    -2.253984  -5.289248  3.365225
N    -1.639348  -6.203580  4.122607
N    -3.541327  -5.423330  3.050954
H    0.645989  -2.052587  2.010625
H    -0.408614  -1.288793  0.828570
H    -2.178840  -0.926425  2.638404
H    -1.144955  -1.740425  3.810905
H    -2.085718  -3.110452  1.217968
H    -3.144799  -2.948597  2.632983
H    -0.526273  -4.342708  2.917355
H    -0.770866  -6.005400  4.610145
H    -4.117001  -6.128142  3.505398
H    -3.950903  -4.968631  2.241895
H    -2.066532  -7.107971  4.308960
O    1.995553  1.487067  1.122288
H    0.085551  2.113924  2.161699
Hg    4.233138  0.797435  0.511895
