28
Energy: -569909.1346629  eV PBE+vdW (tier 2 basis)
N    2.079350  0.799562  2.624846
C    1.600134  -0.556645  2.323311
C    1.613125  -0.859898  0.781888
O    1.623426  0.013895  -0.090946
H    1.470361  1.317867  3.265567
H    3.040070  0.826434  2.985148
H    2.335173  -1.262037  2.751340
C    0.166452  -0.827966  2.880478
C    0.147287  -1.136322  4.393200
C    -1.271278  -1.214248  5.031269
N    -2.030669  -2.445031  4.816560
C    -2.330703  -3.381101  5.762486
N    -3.365701  -4.197859  5.539115
N    -1.611628  -3.493523  6.876516
H    -0.271187  -1.663775  2.315984
H    -0.463574  0.047041  2.647888
H    0.671524  -0.343741  4.949269
H    0.696020  -2.068012  4.596796
H    -1.891189  -0.381169  4.666338
H    -1.167647  -1.063392  6.113510
H    -2.577612  -2.510145  3.961534
H    -3.540768  -5.005331  6.133819
H    -1.925134  -4.079842  7.646054
H    -0.704616  -3.057525  6.988997
H    -4.082554  -3.988690  4.849454
O    1.562878  -2.102176  0.392655
H    1.638465  -2.770490  1.104578
Hg    2.123992  2.151117  0.628344
