28
Energy: -569909.8715758  eV PBE+vdW (tier 2 basis)
N    2.364087  -0.622707  0.544660
C    1.924389  -0.692422  2.002984
C    2.097856  -2.177449  2.471525
O    2.697812  -2.952133  1.680016
H    3.212990  -1.193507  0.387571
H    2.569888  0.347941  0.260816
H    2.683670  -0.132910  2.573501
C    0.525909  -0.072023  2.181197
C    0.150808  0.225687  3.647005
C    -1.262228  0.796074  3.863810
N    -1.359971  2.238848  3.612727
C    -2.528567  2.940436  3.601252
N    -2.478545  4.258160  3.372812
N    -3.696511  2.330367  3.784956
H    -0.228288  -0.728723  1.718278
H    0.519804  0.866085  1.599215
H    0.897439  0.891142  4.109286
H    0.193611  -0.707230  4.226780
H    -1.545524  0.588916  4.911210
H    -1.991094  0.280207  3.219308
H    -0.523840  2.791720  3.791675
H    -1.633185  4.721539  3.054147
H    -3.301557  4.846817  3.479309
H    -3.766879  1.401506  4.184329
H    -4.573808  2.829071  3.660064
O    1.680214  -2.481269  3.621157
H    1.641103  -0.988600  -0.095803
Hg    2.555417  -4.661546  3.364212
