28
Energy: -569909.9936386  eV PBE+vdW (tier 2 basis)
N    3.156698  0.031795  2.189449
C    2.138932  -0.674480  3.080208
C    2.471953  -2.208836  3.056625
O    3.516519  -2.556621  2.451997
H    3.159973  1.049387  2.355586
H    2.967706  -0.126445  1.186695
H    2.366166  -0.354454  4.109885
C    0.685200  -0.363092  2.703482
C    0.252951  1.099871  2.949484
C    -1.275237  1.264788  2.694955
N    -1.722910  2.648664  2.782046
C    -2.646761  3.175898  3.633647
N    -3.227719  4.329830  3.300556
N    -2.965559  2.560635  4.772879
H    0.074165  -1.042332  3.316026
H    0.501400  -0.652822  1.655817
H    0.785057  1.791196  2.276928
H    0.486794  1.405697  3.980509
H    -1.858228  0.652219  3.393626
H    -1.515730  0.901244  1.682945
H    -1.433870  3.265595  2.025216
H    -3.212060  4.689531  2.350330
H    -3.792562  4.850108  3.967717
H    -2.372544  1.855945  5.192971
H    -3.756615  2.872709  5.329938
O    1.687960  -2.968493  3.685801
H    4.111803  -0.322956  2.367000
Hg    3.016522  -4.823580  3.191680
