28
Energy: -569909.8401495  eV PBE+vdW (tier 2 basis)
N    0.943169  -0.635618  0.343173
C    0.276352  0.531120  1.064803
C    1.405762  1.418867  1.683743
O    2.590869  1.148130  1.368304
H    0.280844  -1.112596  -0.287641
H    1.316772  -1.337651  1.001255
H    -0.162717  1.158866  0.271714
C    -0.807914  0.093745  2.064428
C    -2.033651  -0.556251  1.384194
C    -3.368283  -0.488761  2.178039
N    -3.526158  -1.509610  3.211269
C    -4.688599  -2.160953  3.501758
N    -4.638902  -3.214814  4.322896
N    -5.846607  -1.769052  2.973582
H    -1.109994  1.019406  2.576487
H    -0.362730  -0.554886  2.835635
H    -1.844019  -1.604809  1.108266
H    -2.249051  -0.016596  0.448007
H    -4.177906  -0.632269  1.451968
H    -3.486710  0.517215  2.615113
H    -2.784723  -1.620075  3.898725
H    -5.485638  -3.612939  4.722321
H    -3.772369  -3.705865  4.519795
H    -6.677694  -2.350059  3.053200
H    -5.995182  -0.824370  2.635146
O    1.033019  2.381666  2.411545
H    1.744357  -0.308825  -0.223744
Hg    3.216704  3.128985  2.647021
