28
Energy: -569909.6299862  eV PBE+vdW (tier 2 basis)
N    0.038255  0.798421  0.374403
C    -0.080125  0.394980  1.790564
C    1.322244  0.166196  2.413596
O    2.379298  0.597400  1.942612
H    0.003147  0.002031  -0.274497
H    -0.679540  1.477342  0.096872
H    -0.470022  1.271668  2.337061
C    -1.080207  -0.806022  1.947970
C    -1.758408  -0.857604  3.341682
C    -3.019967  -1.738778  3.427206
N    -2.769649  -3.172153  3.522890
C    -3.712570  -4.142490  3.332744
N    -3.326788  -5.420597  3.393590
N    -4.978094  -3.824534  3.073345
H    -0.570481  -1.749429  1.704955
H    -1.861625  -0.653366  1.189588
H    -2.097184  0.152123  3.615663
H    -1.035664  -1.149996  4.115737
H    -3.691980  -1.557308  2.573999
H    -3.558208  -1.402137  4.335560
H    -1.945626  -3.463132  4.046602
H    -2.348597  -5.693252  3.379152
H    -5.652171  -4.539653  2.810301
H    -5.365862  -2.915424  3.301698
H    -4.005501  -6.178425  3.424886
O    1.275615  -0.490300  3.544776
H    2.167755  -0.550843  3.961458
Hg    2.145950  1.814283  -0.065414
