28
Energy: -569909.1478724  eV PBE+vdW (tier 2 basis)
N    1.814634  -1.051129  0.407258
C    0.407269  -0.670156  0.644551
C    0.283088  0.854702  0.968059
O    1.179371  1.507633  1.516207
H    2.057494  -1.963235  0.809020
H    2.070264  -1.054539  -0.588210
H    -0.133890  -0.824069  -0.305977
C    -0.209678  -1.541504  1.785089
C    -1.724857  -1.348406  2.024058
C    -2.339539  -2.229459  3.133174
N    -2.684646  -3.586408  2.702832
C    -3.095076  -4.578884  3.546200
N    -3.187869  -4.372515  4.856443
N    -3.379080  -5.777451  3.023097
H    0.338954  -1.336962  2.718479
H    -0.006688  -2.588025  1.509443
H    -2.289009  -1.496941  1.088417
H    -1.923817  -0.315886  2.343827
H    -3.253890  -1.713105  3.478887
H    -1.660139  -2.298784  3.996865
H    -2.963715  -3.704295  1.730383
H    -3.376648  -5.141393  5.495396
H    -3.821841  -6.507247  3.577945
H    -3.139822  -6.023438  2.066941
H    -3.230028  -3.443146  5.260023
O    -0.839243  1.467000  0.711503
H    -1.488327  0.947961  0.193161
Hg    3.278728  0.523679  1.445930
