28
Energy: -569909.8851258  eV PBE+vdW (tier 2 basis)
N    1.018775  -1.743713  -0.076031
C    0.457653  -0.689211  0.873903
C    1.581015  -0.336269  1.910791
O    2.712412  -0.855794  1.718494
H    0.446019  -1.824959  -0.930028
H    1.064796  -2.676719  0.364160
H    0.341932  0.225446  0.269874
C    -0.875307  -1.106809  1.512046
C    -2.036427  -1.225688  0.495928
C    -3.402822  -1.616960  1.101719
N    -4.116324  -0.504714  1.727274
C    -5.179516  -0.643205  2.571109
N    -5.719321  0.459611  3.099152
N    -5.654560  -1.846939  2.884170
H    -1.102590  -0.341729  2.267431
H    -0.742668  -2.053372  2.060275
H    -1.825648  -2.012154  -0.244503
H    -2.141582  -0.291383  -0.078709
H    -3.281511  -2.416917  1.847019
H    -4.010931  -2.025932  0.274425
H    -4.051266  0.398959  1.261536
H    -6.608787  0.430390  3.592011
H    -5.262519  1.364769  3.046059
H    -6.358446  -1.956294  3.610036
H    -5.484459  -2.662829  2.306632
O    1.286664  0.477154  2.823240
H    1.983616  -1.506499  -0.362973
Hg    3.510802  0.410764  3.599960
