28
Energy: -569909.5929307  eV PBE+vdW (tier 2 basis)
N    0.343454  0.197529  -0.013134
C    -0.186354  0.259993  1.362795
C    0.929912  0.683486  2.354783
O    2.138805  0.508962  2.176863
H    -0.102465  -0.531110  -0.581801
H    0.279224  1.091913  -0.515130
H    -0.924662  1.081495  1.400790
C    -0.819006  -1.099771  1.775153
C    -1.718876  -1.146988  3.033810
C    -3.167833  -0.664404  2.814075
N    -3.962276  -0.893789  4.018140
C    -5.291822  -1.185663  4.076025
N    -5.793202  -1.614917  5.238924
N    -6.069291  -1.059986  3.002393
H    -0.007282  -1.830555  1.921303
H    -1.397052  -1.457705  0.908210
H    -1.257374  -0.590670  3.862312
H    -1.753440  -2.198705  3.350552
H    -3.634074  -1.221855  1.988083
H    -3.194328  0.410228  2.551099
H    -3.501071  -0.753557  4.915516
H    -5.201685  -1.961681  5.989655
H    -7.023353  -1.413119  3.006272
H    -5.820787  -0.458811  2.224739
H    -6.797847  -1.679294  5.391100
O    0.437248  1.225601  3.438573
H    1.145331  1.484066  4.076006
Hg    2.672111  -0.296694  0.021893
