28
Energy: -569909.7178442  eV PBE+vdW (tier 2 basis)
N    1.611700  -0.787148  0.302822
C    0.690682  -0.351131  1.437013
C    1.577448  0.018329  2.670508
O    0.977665  0.229514  3.760979
H    1.107715  -0.793772  -0.598301
H    2.415439  -0.141418  0.214545
H    0.283216  0.623566  1.120200
C    -0.483805  -1.309812  1.690261
C    -0.166563  -2.743969  2.156208
C    -1.382877  -3.511916  2.736522
N    -2.403534  -3.933853  1.773843
C    -2.848019  -5.207053  1.571315
N    -4.066957  -5.380393  1.053095
N    -2.085207  -6.259211  1.865486
H    -1.083597  -1.319375  0.765096
H    -1.101211  -0.798328  2.444470
H    0.565653  -2.714511  2.978517
H    0.279269  -3.342955  1.346908
H    -1.879622  -2.886517  3.496832
H    -1.021491  -4.399439  3.268204
H    -3.014954  -3.209888  1.403822
H    -4.772097  -4.648991  1.069858
H    -2.468905  -7.200705  1.861076
H    -1.085686  -6.183903  2.009922
H    -4.375386  -6.291337  0.720954
O    2.810962  0.161719  2.469150
H    2.006141  -1.728428  0.451251
Hg    2.959020  0.962925  4.749444
