28
Energy: -569909.1295777  eV PBE+vdW (tier 2 basis)
 N    0.19326   -0.20173   -0.63856
 C   -0.03335   -0.05265    0.80842
 C    1.17586    0.64716    1.52288
 O    2.32310    0.67783    1.06380
 H   -0.04554   -1.13106   -0.99793
 H   -0.29065    0.50530   -1.20408
 H   -0.87986    0.64600    0.93379
 C   -0.32252   -1.41319    1.51314
 C   -1.74113   -1.96220    1.22410
 C   -2.03414   -3.38827    1.74625
 N   -2.50570   -3.44379    3.13131
 C   -3.30545   -4.42096    3.64369
 N   -3.56799   -5.52645    2.95235
 N   -3.83603   -4.23599    4.85917
 H   -0.16998   -1.27637    2.59369
 H    0.44847   -2.13700    1.20049
 H   -1.90268   -2.01595    0.13632
 H   -2.50844   -1.26906    1.60060
 H   -1.14542   -4.03354    1.62208
 H   -2.83072   -3.81374    1.11898
 H   -2.12387   -2.78812    3.80774
 H   -4.28843   -6.17603    3.25918
 H   -4.30099   -4.99502    5.35357
 H   -3.88366   -3.31988    5.29604
 H   -2.98611   -5.83967    2.18317
 O    0.98144    1.18594    2.69317
 H    0.04880    1.22462    2.98936
Hg    2.52970    0.08180   -1.15572
