28
Energy: -569909.6135147  eV PBE+vdW (tier 2 basis)
N    0.425817  2.480410  1.719571
C    0.849506  1.268843  0.998297
C    0.128300  1.125629  -0.378047
O    -0.619077  1.967036  -0.886945
H    -0.211060  2.284301  2.499911
H    1.209769  3.044563  2.062259
H    1.904135  1.416864  0.706829
C    0.703793  -0.035003  1.849968
C    1.737071  -0.120419  2.993441
C    1.626807  -1.382694  3.876075
N    2.345922  -2.543571  3.355101
C    2.225339  -3.814520  3.837742
N    2.923349  -4.786964  3.240707
N    1.418242  -4.086591  4.859386
H    0.811358  -0.884796  1.165152
H    -0.323024  -0.083027  2.247467
H    1.617485  0.732524  3.677585
H    2.760907  -0.036876  2.595025
H    0.573927  -1.665319  4.032153
H    2.040521  -1.116444  4.867529
H    3.191854  -2.359430  2.818013
H    2.985320  -5.719610  3.643772
H    1.234452  -5.047175  5.139231
H    1.085183  -3.369644  5.494401
H    3.388731  -4.651488  2.347950
O    0.451092  0.013234  -0.980141
H    0.046441  -0.052586  -1.877529
Hg    -0.852157  3.955752  0.316098
