28
Energy: -569909.7667808  eV PBE+vdW (tier 2 basis)
N    1.048746  0.070499  0.118563
C    0.424186  -0.042984  1.505476
C    1.559508  0.170803  2.564280
O    1.270457  -0.061828  3.768214
H    1.598842  -0.762574  -0.140181
H    0.322987  0.208298  -0.602467
H    -0.193823  0.863050  1.620035
C    -0.473949  -1.272580  1.687105
C    0.186858  -2.665188  1.616622
C    -0.694316  -3.818076  2.133657
N    -1.805606  -4.166634  1.243281
C    -2.864657  -4.948833  1.601679
N    -3.833174  -5.158660  0.703690
N    -2.950170  -5.470110  2.823126
H    -1.290807  -1.188000  0.951193
H    -0.948737  -1.134174  2.669679
H    1.086936  -2.685680  2.249878
H    0.528512  -2.904590  0.595801
H    -1.112107  -3.554120  3.116983
H    -0.041818  -4.698200  2.275835
H    -1.627832  -4.116712  0.241886
H    -3.909374  -4.612707  -0.149076
H    -3.798668  -5.936981  3.133751
H    -2.141980  -5.571592  3.426883
H    -4.564409  -5.847771  0.864427
O    2.649761  0.638579  2.143352
H    1.698365  0.875022  0.076466
Hg    3.339269  0.815744  4.449865
