28
Energy: -569909.1481022  eV PBE+vdW (tier 2 basis)
N    0.678871  -0.735015  -0.153035
C    0.153231  -0.492025  1.205936
C    1.315044  -0.260791  2.226512
O    2.438271  -0.763835  2.101885
H    0.157918  -1.457195  -0.662306
H    0.711012  0.113630  -0.731929
H    -0.412235  0.456112  1.169076
C    -0.765827  -1.672696  1.655183
C    -1.505313  -1.466370  2.997012
C    -2.431973  -2.623595  3.428664
N    -3.758532  -2.596649  2.808247
C    -4.678634  -3.599745  2.917797
N    -5.855906  -3.449626  2.299496
N    -4.407679  -4.709494  3.598414
H    -0.157749  -2.590066  1.707363
H    -1.497741  -1.811550  0.844383
H    -2.080929  -0.526032  2.984036
H    -0.776738  -1.371098  3.814349
H    -2.541348  -2.550732  4.526340
H    -1.965067  -3.597148  3.213183
H    -4.144162  -1.680505  2.585597
H    -6.023675  -2.711167  1.622365
H    -5.043774  -5.503323  3.579743
H    -3.656223  -4.762447  4.277307
H    -6.626806  -4.094430  2.462103
O    1.084069  0.442161  3.300245
H    0.219540  0.902270  3.319289
Hg    2.930231  -1.523011  -0.034176
