28
Energy: -569909.7851045  eV PBE+vdW (tier 2 basis)
N    2.503035  0.337656  2.292626
C    1.556662  -0.709440  1.859685
C    0.834013  -0.296643  0.548633
O    1.191350  0.619121  -0.198278
H    2.097893  0.981088  2.984094
H    3.372389  -0.048839  2.676917
H    2.160738  -1.586164  1.569518
C    0.573847  -1.090624  3.026723
C    0.111396  -2.563989  2.997528
C    -0.838994  -2.866380  4.189455
N    -1.246396  -4.264513  4.182954
C    -1.412309  -5.073028  5.268804
N    -1.546683  -6.386167  5.062640
N    -1.434146  -4.568120  6.501178
H    -0.284846  -0.403586  3.015912
H    1.116959  -0.914703  3.966653
H    0.978832  -3.237419  3.062342
H    -0.406007  -2.778171  2.052448
H    -1.730938  -2.219547  4.121794
H    -0.338814  -2.655564  5.144483
H    -1.553462  -4.654937  3.293108
H    -1.877245  -7.007037  5.798615
H    -1.415611  -5.180986  7.313041
H    -1.685508  -3.601748  6.680674
H    -1.282270  -6.826491  4.185649
O    -0.191387  -1.063383  0.278217
H    -0.604310  -0.822145  -0.584588
Hg    3.127815  1.770759  0.495174
