28
Energy: -569909.9809102  eV PBE+vdW (tier 2 basis)
N    2.509455  -0.379697  1.288615
C    2.116171  -0.747829  2.715686
C    2.519005  -2.247204  2.944921
O    3.159700  -2.815496  2.027601
H    1.874247  -0.801610  0.592509
H    3.458315  -0.726202  1.065992
H    2.792173  -0.175333  3.371317
C    0.646651  -0.448728  3.038342
C    0.303211  1.055199  3.133061
C    -1.102552  1.262216  3.770215
N    -1.396770  2.666129  4.028741
C    -2.478707  3.388631  3.623879
N    -2.771130  4.509793  4.286220
N    -3.227998  2.998189  2.592722
H    0.460893  -0.928573  4.010718
H    -0.008411  -0.963252  2.316778
H    0.319839  1.547310  2.148290
H    1.049211  1.563668  3.763489
H    -1.139648  0.728577  4.734041
H    -1.893349  0.831154  3.144619
H    -0.816168  3.121751  4.730690
H    -2.390150  4.710626  5.206506
H    -3.464205  5.166965  3.936104
H    -2.910515  2.314047  1.917905
H    -4.108996  3.459999  2.383187
O    2.209399  -2.750222  4.059842
H    2.502414  0.641791  1.148124
Hg    3.270916  -4.746902  3.527886
