28
Energy: -569909.1726749  eV PBE+vdW (tier 2 basis)
N    2.243519  0.160711  1.960047
C    1.813127  -1.085259  1.297791
C    0.647516  -0.847850  0.287519
O    0.158143  0.262209  0.045321
H    1.885082  0.263954  2.915469
H    3.264766  0.260350  1.983380
H    2.657777  -1.403443  0.663258
C    1.518354  -2.246348  2.311430
C    0.207665  -2.211232  3.121855
C    0.139002  -3.432970  4.068274
N    -1.135648  -3.501698  4.779916
C    -1.646678  -4.614427  5.376959
N    -2.901436  -4.564269  5.840131
N    -0.927577  -5.728839  5.482377
H    2.391769  -2.293384  2.979390
H    1.571856  -3.181634  1.730034
H    -0.665162  -2.229027  2.451881
H    0.137640  -1.290464  3.723952
H    0.973846  -3.386721  4.790977
H    0.253714  -4.363511  3.490027
H    -1.612594  -2.627312  4.989229
H    -3.275800  -5.300299  6.435866
H    -1.353925  -6.597500  5.796460
H    0.084436  -5.730370  5.417977
H    -3.551874  -3.832796  5.566189
O    0.157541  -1.872999  -0.355086
H    0.621595  -2.721459  -0.205300
Hg    1.385348  2.072586  0.819676
