28
Energy: -569909.7166656  eV PBE+vdW (tier 2 basis)
N    1.788605  -0.941820  0.290672
C    0.848788  -0.420569  1.372332
C    1.707509  -0.040267  2.621996
O    1.079281  0.240638  3.680778
H    1.316585  -0.963571  -0.627372
H    2.622790  -0.335273  0.206839
H    0.496912  0.557254  1.002849
C    -0.375764  -1.315919  1.619923
C    -0.139456  -2.743734  2.148957
C    -1.407113  -3.432505  2.718802
N    -2.419389  -3.842065  1.742045
C    -2.909080  -5.102336  1.564915
N    -4.121446  -5.243615  1.021806
N    -2.195658  -6.174132  1.908284
H    -0.945464  -1.334407  0.676093
H    -0.993057  -0.749071  2.333583
H    0.568382  -2.715960  2.992542
H    0.302452  -3.393015  1.377065
H    -1.895192  -2.756446  3.440227
H    -1.103875  -4.315361  3.292986
H    -2.993128  -3.105512  1.337814
H    -4.797622  -4.485419  1.001815
H    -2.615982  -7.099894  1.920387
H    -1.197491  -6.133505  2.074605
H    -4.458230  -6.151453  0.709209
O    2.952237  0.041950  2.461283
H    2.135468  -1.892335  0.490291
Hg    3.050936  0.928344  4.715275
