28
Energy: -569909.9962856  eV PBE+vdW (tier 2 basis)
N    -0.255803  0.202883  -0.016368
C    0.022495  0.094101  1.479308
C    1.544032  0.366451  1.705753
O    2.193082  0.793169  0.709592
H    -1.265579  0.315310  -0.200498
H    0.063411  -0.632881  -0.532722
H    -0.489092  0.954102  1.941396
C    -0.513600  -1.238594  2.036319
C    -0.746278  -1.245786  3.560563
C    -1.418619  -2.557270  4.021624
N    -1.734726  -2.517091  5.447628
C    -1.953916  -3.597376  6.243958
N    -2.087776  -3.398985  7.560633
N    -2.016612  -4.825443  5.733250
H    0.156607  -2.059907  1.737954
H    -1.476363  -1.423203  1.529507
H    -1.389316  -0.393090  3.831280
H    0.206586  -1.119457  4.094447
H    -0.753250  -3.415027  3.840804
H    -2.345294  -2.722007  3.441288
H    -1.984340  -1.614317  5.846620
H    -2.419971  -4.137517  8.176673
H    -1.819804  -2.526276  8.006184
H    -2.043732  -5.641682  6.338942
H    -2.208374  -4.993235  4.752134
O    2.003854  0.190595  2.862427
H    0.239159  1.012322  -0.428849
Hg    4.118215  1.001214  2.085151
