28
Energy: -569910.0286338  eV PBE+vdW (tier 2 basis)
N    1.381460  -1.144742  -0.572895
C    0.830410  -0.896614  0.828005
C    1.744670  0.179399  1.510935
O    1.503868  0.442986  2.720531
H    1.636802  -0.252390  -1.029902
H    2.239085  -1.719677  -0.554175
H    -0.136543  -0.386850  0.686104
C    0.667721  -2.180006  1.652609
C    -0.442378  -3.130891  1.149866
C    -0.642862  -4.307440  2.140429
N    -1.709247  -5.199016  1.697758
C    -2.580395  -5.873844  2.498030
N    -3.635502  -6.465484  1.930667
N    -2.394839  -5.932454  3.816808
H    0.431502  -1.841886  2.672184
H    1.634665  -2.704866  1.722060
H    -0.189641  -3.547033  0.160831
H    -1.393155  -2.586214  1.048600
H    -0.913605  -3.915650  3.130529
H    0.301748  -4.869459  2.242917
H    -1.719636  -5.466578  0.715266
H    -4.196559  -7.145946  2.438141
H    -3.120133  -6.303420  4.425702
H    -1.477743  -5.820119  4.235092
H    -3.949251  -6.229551  0.993600
O    2.611764  0.733328  0.790699
H    0.691726  -1.623429  -1.171283
Hg    3.134069  2.106846  2.736892
