28
Energy: -569909.5764592  eV PBE+vdW (tier 2 basis)
N    -0.092150  1.362763  0.452901
C    -0.244669  0.666822  1.746243
C    1.136047  0.360951  2.380306
O    2.200902  0.890168  2.044357
H    -0.103753  0.723240  -0.351669
H    -0.807525  2.083783  0.305564
H    -0.700030  1.391083  2.444158
C    -1.190667  -0.587389  1.606643
C    -1.993607  -0.883126  2.888668
C    -3.257569  -1.779571  2.686775
N    -3.005218  -3.211793  2.806664
C    -3.754586  -4.100875  3.522746
N    -3.264859  -5.329242  3.716585
N    -4.939966  -3.755550  4.021216
H    -0.598220  -1.449278  1.267804
H    -1.900892  -0.346175  0.801665
H    -2.387593  0.062255  3.293055
H    -1.356811  -1.308871  3.674507
H    -3.728465  -1.562958  1.714224
H    -3.971026  -1.504014  3.471559
H    -2.306791  -3.628379  2.194405
H    -2.280530  -5.546064  3.592018
H    -5.420687  -4.360271  4.683510
H    -5.490134  -2.995908  3.634045
H    -3.853646  -6.084152  4.062101
O    1.057378  -0.491882  3.369336
H    1.931642  -0.614055  3.809467
Hg    2.015428  2.450492  0.290147
