28
Energy: -569909.3174162  eV PBE+vdW (tier 2 basis)
N    -0.040159  0.675532  -0.686369
C    0.033358  0.003638  0.625444
C    1.510218  -0.341501  0.999873
O    2.380832  -0.591624  0.160139
H    -0.857429  0.392709  -1.238843
H    -0.034403  1.701078  -0.616140
H    -0.315353  0.731450  1.380419
C    -0.853606  -1.277896  0.637474
C    -1.052489  -1.951561  2.013649
C    -2.106254  -3.082974  1.928102
N    -2.264838  -3.758014  3.212686
C    -3.399699  -4.358010  3.671325
N    -4.457469  -4.525744  2.880884
N    -3.428281  -4.761231  4.946188
H    -0.441842  -2.004287  -0.082005
H    -1.836351  -0.962108  0.252860
H    -1.394480  -1.213853  2.756213
H    -0.102613  -2.378569  2.370734
H    -1.804416  -3.813538  1.155691
H    -3.082391  -2.669308  1.636381
H    -1.419705  -3.949911  3.748027
H    -5.348489  -4.834535  3.262683
H    -4.166674  -5.370926  5.292216
H    -2.754789  -4.434399  5.633806
H    -4.379157  -4.540299  1.869938
O    1.829471  -0.444371  2.261558
H    1.141791  -0.130778  2.884052
Hg    1.864216  0.107029  -2.004984
