28
Energy: -569909.1320291  eV PBE+vdW (tier 2 basis)
N    1.084457  -1.194388  -0.106807
C    0.414328  -0.960382  1.187253
C    1.463430  -0.813942  2.337964
O    2.549694  -1.405205  2.338608
H    0.559746  -1.822023  -0.725950
H    1.289333  -0.327428  -0.619475
H    -0.101147  0.014241  1.115338
C    -0.599759  -2.104345  1.498428
C    -1.444642  -1.919867  2.779473
C    -2.433897  -3.069818  3.093503
N    -3.762159  -2.907171  2.499919
C    -4.910739  -3.439609  3.004580
N    -6.079100  -3.031266  2.493338
N    -4.877136  -4.333134  3.988956
H    -0.045401  -3.055333  1.558776
H    -1.255273  -2.170771  0.615598
H    -1.996460  -0.967158  2.755253
H    -0.780805  -1.875703  3.654476
H    -2.570953  -3.105914  4.183540
H    -1.998054  -4.039355  2.791360
H    -3.845010  -2.455870  1.592669
H    -6.163174  -2.179811  1.945193
H    -5.727821  -4.609472  4.473842
H    -4.044878  -4.867476  4.213080
H    -6.949639  -3.508887  2.718629
O    1.164519  -0.093571  3.382632
H    0.339167  0.428366  3.305595
Hg    3.205377  -2.227709  0.265231
