28
Energy: -569909.1737907  eV PBE+vdW (tier 2 basis)
N    0.054720  -0.241089  0.147011
C    0.011913  0.108537  1.579498
C    1.430111  0.403313  2.160644
O    2.470196  0.377873  1.491324
H    -0.029646  -1.247177  -0.033692
H    -0.663858  0.248443  -0.398347
H    -0.511136  1.077876  1.643756
C    -0.799685  -0.924980  2.437296
C    -0.153919  -2.283928  2.771803
C    -1.137905  -3.148118  3.595283
N    -0.530578  -4.405342  4.027499
C    -0.983740  -5.191815  5.043426
N    -0.223614  -6.222200  5.433318
N    -2.141585  -4.935345  5.646338
H    -1.758307  -1.064048  1.914862
H    -1.072690  -0.402805  3.369174
H    0.770374  -2.143612  3.352347
H    0.117552  -2.831210  1.854157
H    -2.041998  -3.351922  2.993203
H    -1.457252  -2.599867  4.495839
H    0.189818  -4.814951  3.436656
H    -0.581534  -6.933868  6.067496
H    -2.410903  -5.431692  6.492570
H    -2.864726  -4.369621  5.215819
H    0.755148  -6.303865  5.171698
O    1.537711  0.707360  3.425581
H    0.690752  0.801544  3.906636
Hg    2.163777  0.334510  -0.808192
