28
Energy: -569909.6010751  eV PBE+vdW (tier 2 basis)
N    0.911795  0.994213  1.838721
C    1.233906  -0.346844  2.360800
C    2.186457  -1.103419  1.393108
O    2.846932  -0.569752  0.496053
H    0.044397  1.014005  1.288109
H    0.848378  1.704042  2.576790
H    1.839431  -0.197306  3.271235
C    -0.076824  -1.154068  2.711160
C    0.110264  -2.110868  3.905152
C    -1.067227  -3.125871  4.105714
N    -2.266118  -2.643631  4.774641
C    -2.610944  -2.862686  6.077057
N    -3.882978  -2.663690  6.435110
N    -1.708887  -3.256370  6.972071
H    -0.407098  -1.698240  1.814846
H    -0.855895  -0.416007  2.951240
H    0.268380  -1.541093  4.832807
H    1.001659  -2.732497  3.754496
H    -0.669729  -3.973528  4.681868
H    -1.376009  -3.530231  3.132187
H    -3.010977  -2.278165  4.186076
H    -4.172985  -2.709975  7.409652
H    -1.988000  -3.555716  7.902980
H    -0.714803  -3.265375  6.780563
H    -4.631518  -2.581697  5.752484
O    2.261519  -2.381683  1.656494
H    2.913807  -2.836433  1.072474
Hg    2.565064  1.758884  0.298112
