28
Energy: -569909.1514142  eV PBE+vdW (tier 2 basis)
N    0.859915  -0.287756  -0.038045
C    0.341197  -0.183653  1.340278
C    1.305641  -0.858392  2.370790
O    2.092349  -1.764100  2.077007
H    0.148411  -0.580272  -0.716728
H    1.287766  0.584595  -0.372602
H    0.334250  0.890912  1.595156
C    -1.101264  -0.779288  1.445865
C    -1.861370  -0.406096  2.742035
C    -3.393382  -0.596418  2.697150
N    -3.842076  -1.970854  2.916651
C    -5.121226  -2.405652  2.710566
N    -5.394839  -3.695347  2.934664
N    -6.066242  -1.576918  2.276182
H    -1.060469  -1.871314  1.311088
H    -1.653373  -0.364861  0.588299
H    -1.721947  0.667189  2.944351
H    -1.456526  -0.944242  3.612972
H    -3.800684  -0.244630  1.736578
H    -3.812912  0.056133  3.485544
H    -3.293666  -2.536788  3.562265
H    -4.665812  -4.388904  3.073333
H    -6.982957  -1.925782  2.005781
H    -5.983235  -0.568917  2.351682
H    -6.352688  -4.039707  2.949932
O    1.237289  -0.495408  3.622835
H    0.691427  0.298902  3.796287
Hg    2.565998  -1.949088  -0.195785
