28
Energy: -569909.7464989  eV PBE+vdW (tier 2 basis)
N    1.199148  -0.076580  0.138980
C    0.404174  0.066622  1.432699
C    1.409937  0.398021  2.584411
O    0.969553  0.347060  3.764434
H    1.906881  0.675021  0.063906
H    1.712375  -0.969543  0.084107
H    -0.164024  1.005243  1.320737
C    -0.590725  -1.076246  1.686463
C    -0.023332  -2.496737  1.885285
C    -1.007418  -3.518018  2.496294
N    -2.015356  -4.030761  1.566658
C    -2.658232  -5.224353  1.699006
N    -3.421869  -5.652829  0.686974
N    -2.520062  -5.958776  2.800093
H    -1.316570  -1.044194  0.856651
H    -1.150536  -0.767084  2.581910
H    0.813112  -2.457507  2.600290
H    0.380188  -2.913826  0.949233
H    -1.497004  -3.071351  3.380920
H    -0.419813  -4.378301  2.847570
H    -2.400140  -3.403372  0.865753
H    -3.346818  -5.265986  -0.249057
H    -2.866767  -6.914161  2.837637
H    -2.202460  -5.565743  3.679124
H    -4.048812  -6.446723  0.797588
O    2.561303  0.775787  2.242201
H    0.579970  -0.015813  -0.684743
Hg    2.972300  1.267153  4.569879
