28
Energy: -569909.5536617  eV PBE+vdW (tier 2 basis)
N    0.412614  0.044109  0.063291
C    -0.140064  0.000193  1.431705
C    0.971961  0.277714  2.477360
O    2.178190  0.079150  2.301317
H    -0.041905  -0.620330  -0.573079
H    0.379282  0.980073  -0.359276
H    -0.845524  0.843145  1.538093
C    -0.832030  -1.369912  1.697836
C    -1.751375  -1.506792  2.934981
C    -3.192004  -0.997986  2.743659
N    -4.017348  -1.391540  3.886058
C    -5.309910  -1.030146  4.107745
N    -5.876520  -1.385120  5.267441
N    -5.990019  -0.326965  3.205852
H    -0.049607  -2.141076  1.769862
H    -1.413905  -1.610651  0.793702
H    -1.302786  -1.032673  3.818724
H    -1.795057  -2.585053  3.150833
H    -3.615414  -1.430743  1.817599
H    -3.232604  0.100517  2.646553
H    -3.636002  -2.095095  4.515751
H    -5.336106  -1.750719  6.046936
H    -6.920502  0.028318  3.411237
H    -5.685358  -0.243168  2.243218
H    -6.872216  -1.253575  5.434553
O    0.479840  0.723684  3.604121
H    1.184793  0.887719  4.275424
Hg    2.729574  -0.504079  0.085505
