28
Energy: -569909.2860874  eV PBE+vdW (tier 2 basis)
N    0.657364  0.391578  0.340501
C    0.459807  0.076706  1.764216
C    1.782885  -0.424249  2.449426
O    2.755551  -0.869588  1.829543
H    -0.059734  -0.009781  -0.270988
H    0.734129  1.396678  0.148391
H    0.227199  1.026541  2.278073
C    -0.661973  -0.976948  1.999871
C    -2.097168  -0.409904  1.896848
C    -3.149926  -1.474041  2.275393
N    -4.500479  -0.912774  2.252763
C    -5.656422  -1.628758  2.185046
N    -6.805385  -0.960464  2.025749
N    -5.648056  -2.957520  2.255222
H    -0.517309  -1.413178  2.999203
H    -0.511724  -1.812557  1.296264
H    -2.309992  -0.042071  0.881402
H    -2.193547  0.451046  2.577683
H    -2.927329  -1.873341  3.282114
H    -3.116592  -2.317218  1.568246
H    -4.603737  0.073994  2.481402
H    -6.830536  0.015037  1.741407
H    -6.490839  -3.495522  2.068280
H    -4.869913  -3.474920  2.648512
H    -7.706350  -1.423109  2.129234
O    1.854956  -0.412102  3.749336
H    1.100694  0.005697  4.214208
Hg    2.738424  -0.543233  -0.449347
