28
Energy: -569909.5619624  eV PBE+vdW (tier 2 basis)
N    2.628492  -0.592033  1.766953
C    1.161729  -0.601414  1.896693
C    0.523803  0.716974  1.362872
O    1.123227  1.777697  1.163048
H    3.113479  -0.939759  2.600742
H    2.974137  -1.098470  0.943974
H    0.767092  -1.367443  1.205046
C    0.689401  -0.854473  3.352962
C    0.753405  -2.322039  3.854382
C    -0.534425  -3.129718  3.563413
N    -0.468531  -4.491697  4.086193
C    -1.300109  -5.082761  4.991313
N    -1.324137  -6.416180  5.047318
N    -2.068458  -4.354282  5.801185
H    -0.335408  -0.472022  3.450919
H    1.296583  -0.225528  4.024612
H    0.917066  -2.296976  4.940500
H    1.625509  -2.848960  3.434915
H    -0.713503  -3.203581  2.476152
H    -1.416114  -2.629851  3.983513
H    0.215660  -5.113342  3.658177
H    -1.783087  -6.905746  5.812706
H    -2.790927  -4.793390  6.366842
H    -1.867867  -3.383566  6.010597
H    -0.975736  -6.997228  4.289362
O    -0.756816  0.566954  1.161358
H    -1.186359  1.391786  0.831089
Hg    3.440898  1.649048  1.459164
