28
Energy: -569910.0289464  eV PBE+vdW (tier 2 basis)
N    1.147167  -0.964731  -0.755834
C    0.837882  -0.809959  0.730041
C    1.893222  0.183061  1.330655
O    1.856969  0.362375  2.578572
H    1.968982  -1.568447  -0.918632
H    0.349195  -1.370006  -1.267566
H    -0.117901  -0.263672  0.784024
C    0.757384  -2.147435  1.476564
C    -0.441976  -3.036082  1.075382
C    -0.551164  -4.264068  2.017690
N    -1.676625  -5.116515  1.651993
C    -2.487521  -5.798185  2.507936
N    -3.602690  -6.349711  2.021052
N    -2.186221  -5.902783  3.802279
H    0.682657  -1.880600  2.541023
H    1.707313  -2.695717  1.366081
H    -0.335051  -3.399409  0.040184
H    -1.379301  -2.462344  1.131739
H    -0.699754  -3.923416  3.051298
H    0.387592  -4.843460  1.981234
H    -1.783317  -5.353005  0.667207
H    -4.131217  -7.034681  2.556532
H    -2.862630  -6.278600  4.462288
H    -1.232786  -5.824655  4.139212
H    -3.992932  -6.079406  1.122863
O    2.659338  0.761684  0.521199
H    1.368010  -0.047993  -1.181397
Hg    3.540376  1.966763  2.451382
