28
Energy: -569909.6014706  eV PBE+vdW (tier 2 basis)
N    0.322202  1.557445  2.917767
C    0.503719  0.136391  2.575805
C    1.847877  -0.115171  1.828102
O    2.550452  0.749411  1.296253
H    -0.613362  1.913230  2.695698
H    0.541128  1.779146  3.895492
H    0.632587  -0.423327  3.519602
C    -0.672330  -0.430195  1.735809
C    -1.979123  -0.750116  2.508880
C    -2.047809  -2.196760  3.038754
N    -3.360480  -2.471596  3.617844
C    -4.002219  -3.673052  3.639835
N    -5.293979  -3.692643  3.985799
N    -3.366677  -4.796406  3.314428
H    -0.319223  -1.329031  1.213251
H    -0.902129  0.293388  0.936933
H    -2.816867  -0.598561  1.814319
H    -2.132723  -0.037680  3.336270
H    -1.258299  -2.384021  3.790822
H    -1.888016  -2.902412  2.209628
H    -3.817391  -1.717023  4.126776
H    -5.866357  -2.852532  3.991779
H    -3.877514  -5.667015  3.188610
H    -2.356458  -4.874418  3.348438
H    -5.775205  -4.566921  4.187502
O    2.145953  -1.386187  1.818559
H    2.990558  -1.570624  1.342806
Hg    1.822684  2.944680  1.650241
