28
Energy: -569909.1306402  eV PBE+vdW (tier 2 basis)
N    1.186821  -1.393637  0.801844
C    0.204210  -0.314556  0.607797
C    0.723110  1.058786  1.161845
O    1.607909  1.166032  2.018200
H    0.779592  -2.258281  1.171101
H    1.723410  -1.616741  -0.044441
H    0.102492  -0.160754  -0.481403
C    -1.175604  -0.637065  1.258236
C    -1.993026  -1.688735  0.468973
C    -3.291447  -2.182608  1.147595
N    -4.469506  -1.355088  0.880048
C    -5.756635  -1.800901  0.909385
N    -6.718628  -0.999978  0.433857
N    -6.053907  -3.007306  1.384141
H    -1.737371  0.303882  1.351034
H    -1.001085  -0.973945  2.293624
H    -1.384658  -2.593970  0.318537
H    -2.224144  -1.320371  -0.541971
H    -3.140194  -2.285302  2.237655
H    -3.509596  -3.187520  0.757361
H    -4.352757  -0.351294  0.771748
H    -6.516057  -0.207413  -0.168794
H    -5.430517  -3.521291  1.996834
H    -6.982644  -3.403529  1.259555
H    -7.703375  -1.213727  0.579909
O    0.159322  2.154634  0.738678
H    -0.473132  2.044279  -0.000773
Hg    2.838416  -0.741602  2.430425
