18
Energy: -601059.729683 eV PBE+vdW (tier 2 basis)
N    0.459196  -0.026322  0.078366
C    0.229699  0.056815  1.570571
C    1.512900  0.352749  2.307005
O    2.643416  0.408724  1.746710
H    -0.147073  0.667146  -0.372175
H    -0.475138  0.874095  1.783519
C    -0.384484  -1.312334  1.992594
C    -1.009079  -1.830735  0.693011
C    0.000608  -1.412000  -0.368265
H    -1.104800  -1.178384  2.806152
H    0.399920  -1.995209  2.349754
H    -1.982619  -1.356918  0.501705
H    -1.163434  -2.915838  0.710919
H    -0.392348  -1.349945  -1.389282
H    0.868704  -2.093432  -0.367469
O    1.366773  0.518130  3.583395
H    2.218129  0.689516  4.048370
Pb    2.797631  0.310942  -0.520879
