18
Energy: -601059.48931 eV PBE+vdW (tier 2 basis)
N    0.350880  -0.167488  -0.118542
C    0.160938  0.116142  1.350531
C    1.494157  0.172925  2.076465
O    2.572151  -0.206144  1.546064
H    0.087765  0.661278  -0.663073
H    -0.336039  1.089488  1.478373
C    -0.732710  -1.050378  1.889585
C    -0.610798  -2.135058  0.812758
C    -0.565796  -1.330904  -0.475855
H    -1.765799  -0.689975  1.967738
H    -0.426263  -1.397803  2.883501
H    -1.453803  -2.835092  0.833845
H    0.303849  -2.736356  0.948976
H    -1.554331  -0.935391  -0.746673
H    -0.173818  -1.874658  -1.346229
O    1.570138  0.585138  3.304112
H    0.721323  0.881789  3.695793
Pb    2.687156  -0.763514  -0.626370
