18
Energy: -601060.223874 eV PBE+vdW (tier 2 basis)
N    -0.256730  0.237596  -0.030686
C    0.125771  0.014296  1.432294
C    1.616795  -0.249593  1.536434
O    2.137104  -0.373526  2.696931
H    -0.546243  1.207848  -0.205575
H    -0.088408  0.926352  2.004920
C    -0.757929  -1.175850  1.897031
C    -1.140050  -1.894573  0.596220
C    -1.373352  -0.754838  -0.382473
H    -1.645029  -0.775393  2.403260
H    -0.232380  -1.812270  2.616496
H    -2.040656  -2.507621  0.714187
H    -0.336275  -2.557014  0.243748
H    -2.324164  -0.238586  -0.204558
H    -1.290924  -1.009749  -1.443838
O    2.339230  -0.346114  0.482364
H    0.581629  0.063186  -0.610042
Pb    4.261610  -0.661152  1.845288
