18
Energy: -601059.534513 eV PBE+vdW (tier 2 basis)
N    0.325880  -0.052703  -0.070353
C    0.172415  0.049052  1.430043
C    1.516410  0.235618  2.106355
O    2.602582  0.218119  1.468985
H    -0.267717  0.666756  -0.496237
H    -0.449326  0.928212  1.659564
C    -0.536831  -1.265256  1.885528
C    -1.225983  -1.759122  0.607384
C    -0.219377  -1.414121  -0.482721
H    -1.242119  -1.073926  2.702325
H    0.200556  -2.000337  2.239190
H    -2.173303  -1.228528  0.435476
H    -1.445906  -2.832314  0.645014
H    -0.635396  -1.345695  -1.494182
H    0.608472  -2.142963  -0.491650
O    1.603483  0.393534  3.391075
H    0.746269  0.397690  3.867190
Pb    2.664892  0.175983  -0.781984
