18
Energy: -601060.245902 eV PBE+vdW (tier 2 basis)
N    0.267590  0.036041  0.250509
C    0.029729  -0.189613  1.744403
C    1.325424  -0.104213  2.520058
O    1.276092  -0.141905  3.796439
H    -0.115712  0.944527  -0.037827
H    -0.644542  0.599717  2.103586
C    -0.664412  -1.570830  1.830048
C    -1.417776  -1.660598  0.497448
C    -0.423534  -1.107837  -0.513989
H    -1.315779  -1.620776  2.708515
H    0.082591  -2.373220  1.912180
H    -2.336349  -1.057478  0.520774
H    -1.703928  -2.689601  0.251968
H    -0.858079  -0.700736  -1.432248
H    0.358967  -1.830446  -0.772703
O    2.448484  -0.021534  1.909185
H    1.281546  0.063626  0.060349
Pb    3.569690  0.020876  4.001301
