18
Energy: -601059.681239 eV PBE+vdW (tier 2 basis)
N    0.176275  0.279069  0.165907
C    0.130575  0.137387  1.666210
C    1.537488  0.107356  2.237714
O    2.579304  0.269169  1.543689
H    -0.467551  1.027314  -0.108901
H    -0.362878  1.014391  2.113483
C    -0.667503  -1.162160  1.930545
C    -0.319699  -2.032996  0.719633
C    -0.324454  -1.043850  -0.441475
H    -1.736744  -0.914702  1.952159
H    -0.414402  -1.618048  2.893576
H    -1.047328  -2.836750  0.559889
H    0.664537  -2.510452  0.839652
H    -1.331430  -0.871011  -0.841172
H    0.314746  -1.351037  -1.283996
O    1.589002  -0.084993  3.517479
H    2.508777  -0.073588  3.870050
Pb    2.413287  0.734901  -0.676439
