23
Energy: -15542.6327542 eV PBE+vdW (tier 2 basis)
C    0.821475  0.268717  0.592660
C    0.415357  0.017317  2.030503
O    1.235298  0.051092  2.944941
H    1.863516  0.598334  0.602060
H    0.203267  1.027511  0.097766
H    0.743472  -0.658290  0.008186
N    -0.903323  -0.269485  2.327327
C    -2.117354  -0.389629  1.518129
C    -1.858833  -0.992834  0.114154
O    -1.495461  -2.159797  -0.002605
H    -1.009059  -0.489174  3.314396
H    -2.726364  -1.169368  2.004129
C    -2.957318  0.898679  1.567037
O    -2.338472  2.025119  0.934858
H    -3.188464  1.128734  2.620716
H    -3.910163  0.743377  1.042543
H    -1.554186  2.260265  1.457471
N    -2.111403  -0.168029  -0.936982
C    -1.876708  -0.592901  -2.304283
H    -2.221490  0.824145  -0.734460
H    -0.826087  -0.450803  -2.604065
H    -2.520354  -0.020930  -2.982022
H    -2.110265  -1.659199  -2.390347
