23
Energy: -15543.1965456 eV PBE+vdW (tier 2 basis)
C    -3.329516  -0.189183  2.231350
C    -1.952075  -0.814766  2.259452
O    -1.735260  -1.940169  1.788214
H    -3.371024  0.802141  2.697926
H    -4.034049  -0.858356  2.740353
H    -3.655084  -0.105619  1.186824
N    -0.967335  -0.066197  2.822873
C    0.424157  -0.499978  2.885948
C    0.651431  -1.467343  4.076556
O    1.249301  -1.109610  5.100819
H    -1.181363  0.806346  3.297834
H    0.646883  -1.034693  1.949532
C    1.326774  0.728723  3.017268
O    0.994121  1.498172  4.167276
H    1.191770  1.380057  2.142669
H    2.378753  0.397749  3.041142
H    1.158221  0.881571  4.912851
N    0.132857  -2.700085  3.881288
C    0.138584  -3.728100  4.904606
H    -0.441355  -2.816293  3.039743
H    -0.872975  -3.904644  5.298594
H    0.783689  -3.393923  5.723562
H    0.527495  -4.671800  4.500323
