23
Energy: -15542.7560561 eV PBE+vdW (tier 2 basis)
C    -0.021152  0.315048  0.029495
C    0.083736  0.191113  1.534172
O    1.161254  0.348999  2.114064
H    0.906782  -0.043905  -0.426366
H    -0.132173  1.380691  -0.215487
H    -0.874461  -0.229075  -0.394147
N    -1.089116  -0.122613  2.171328
C    -1.325422  0.065248  3.598535
C    -1.505897  1.585944  3.889106
O    -1.300173  2.419503  3.012224
H    -1.916631  -0.056802  1.588920
H    -2.283231  -0.437784  3.810932
C    -0.248002  -0.616920  4.486761
O    0.859213  0.197535  4.789568
H    0.045295  -1.553416  3.978072
H    -0.704191  -0.901549  5.442999
H    1.250772  0.406614  3.906488
N    -1.960766  1.956965  5.121036
C    -2.149690  1.156077  6.318172
H    -1.981435  2.966459  5.229914
H    -1.199515  0.910906  6.816277
H    -2.684862  0.224450  6.092954
H    -2.772890  1.723685  7.018484
