23
Energy: -15542.6807422 eV PBE+vdW (tier 2 basis)
C    0.001711  -0.772807  0.154779
C    -0.160537  0.078469  1.400469
O    0.662299  0.959855  1.674754
H    0.068039  -0.108019  -0.715291
H    -0.807799  -1.494847  -0.007032
H    0.953746  -1.313696  0.223785
N    -1.262803  -0.204337  2.149860
C    -1.740049  0.383989  3.409095
C    -3.153553  0.991399  3.276350
O    -4.021887  0.688460  4.093239
H    -1.825561  -0.981076  1.821165
H    -1.876904  -0.448161  4.113537
C    -0.798106  1.393163  4.107232
O    0.470121  0.856036  4.410972
H    -1.289274  1.645789  5.057506
H    -0.709701  2.320838  3.520604
H    0.947216  0.871961  3.553969
N    -3.408681  1.883314  2.272070
C    -2.549982  2.390471  1.212545
H    -4.374096  2.199113  2.281464
H    -2.568691  1.751259  0.315772
H    -1.510680  2.486239  1.542826
H    -2.899197  3.390563  0.929459
