23
Energy: -15542.724275 eV PBE+vdW (tier 2 basis)
C    0.009654  1.330490  1.009328
C    0.251112  0.001599  1.705712
O    1.374730  -0.364103  2.034894
H    0.975188  1.833246  0.912517
H    -0.672831  1.979260  1.575591
H    -0.418455  1.188782  0.006993
N    -0.847962  -0.783301  1.977973
C    -2.212752  -0.606443  1.497910
C    -3.191832  -0.973621  2.634016
O    -3.853231  -2.018751  2.604765
H    -0.604959  -1.717503  2.301570
H    -2.351417  0.454668  1.245386
C    -2.515457  -1.442884  0.239927
O    -2.343642  -2.831793  0.453943
H    -1.811982  -1.150092  -0.552506
H    -3.538607  -1.204231  -0.106631
H    -2.985276  -3.046502  1.162510
N    -3.287744  -0.115197  3.683801
C    -2.567530  1.129648  3.897757
H    -3.902759  -0.447061  4.420582
H    -2.966585  1.607567  4.798098
H    -2.712771  1.829425  3.062632
H    -1.490275  0.965121  4.038378
