23
Energy: -15542.6389764 eV PBE+vdW (tier 2 basis)
C    0.212638  -0.187659  0.847562
C    -0.407964  -0.857556  2.052016
O    0.134833  -1.792010  2.637714
H    0.344547  0.886289  1.025474
H    -0.412875  -0.302230  -0.048063
H    1.180636  -0.661784  0.667355
N    -1.636284  -0.414523  2.507266
C    -2.522783  0.661850  2.070594
C    -2.775766  0.683195  0.548240
O    -2.558216  1.696051  -0.127210
H    -1.921681  -0.922596  3.339368
H    -3.500081  0.430633  2.530614
C    -2.149756  2.070854  2.581840
O    -1.026146  2.648390  1.944894
H    -1.911185  1.994135  3.651604
H    -3.043783  2.714532  2.478616
H    -1.292701  2.703660  1.003938
N    -3.269058  -0.445440  -0.028615
C    -3.625020  -1.712344  0.591738
H    -3.384149  -0.358696  -1.034030
H    -4.308106  -2.245005  -0.079082
H    -4.151591  -1.554586  1.541577
H    -2.749188  -2.347744  0.782969
