23
Energy: -15542.7185678 eV PBE+vdW (tier 2 basis)
C    0.670561  -1.655840  1.222493
C    0.328449  -0.790223  2.419368
O    1.053386  -0.736420  3.414049
H    -0.086993  -1.635196  0.429549
H    0.808736  -2.689491  1.561807
H    1.627648  -1.314666  0.808334
N    -0.826552  -0.069551  2.309025
C    -1.301126  0.814431  3.360568
C    -2.399523  0.105229  4.180649
O    -3.512744  -0.089024  3.687090
H    -1.428064  -0.214241  1.506241
H    -0.422527  1.055088  3.970480
C    -1.878339  2.107545  2.790032
O    -0.828067  2.805146  2.121933
H    -2.290441  2.699656  3.626936
H    -2.714460  1.868339  2.111128
H    -1.209684  3.587771  1.698098
N    -2.084952  -0.303361  5.438499
C    -0.816227  -0.183778  6.148486
H    -2.859820  -0.755381  5.915363
H    -0.790960  -0.942811  6.938448
H    -0.696496  0.803455  6.621038
H    0.028194  -0.371678  5.473385
