23
Energy: -15542.7227102 eV PBE+vdW (tier 2 basis)
C    0.020707  0.132737  0.131259
C    -0.048973  -0.376748  1.559407
O    0.907567  -0.910341  2.113008
H    0.993996  -0.152324  -0.275892
H    -0.068490  1.227866  0.091197
H    -0.772812  -0.288396  -0.500501
N    -1.236503  -0.203319  2.234550
C    -2.491092  0.341449  1.738329
C    -3.150117  1.229664  2.815709
O    -4.252173  0.942555  3.294740
H    -1.236084  -0.617787  3.163746
H    -2.277672  0.974221  0.864203
C    -3.465482  -0.768642  1.299378
O    -4.675215  -0.250636  0.777009
H    -3.643483  -1.445680  2.153621
H    -2.988103  -1.354383  0.501462
H    -5.114665  0.170954  1.539904
N    -2.471352  2.336083  3.223072
C    -1.190825  2.841136  2.752747
H    -2.952067  2.855103  3.951515
H    -1.091437  3.882774  3.075830
H    -1.138122  2.831052  1.656129
H    -0.341206  2.267266  3.147934
