23
Energy: -15542.7411404 eV PBE+vdW (tier 2 basis)
C    -0.059418  0.141406  0.078636
C    -0.011743  0.219985  1.592540
O    1.030184  0.413721  2.209756
H    0.968485  0.176425  -0.290780
H    -0.615058  0.993360  -0.338525
H    -0.540499  -0.779168  -0.278701
N    -1.201527  0.058398  2.273021
C    -2.549092  -0.074637  1.720695
C    -3.495513  0.905575  2.452515
O    -3.722153  2.021450  1.992945
H    -1.116456  0.244643  3.269185
H    -2.542434  0.280539  0.683060
C    -3.006123  -1.545750  1.713540
O    -2.941575  -2.166034  3.004557
H    -2.392819  -2.108079  0.989788
H    -4.054861  -1.613929  1.394321
H    -2.000975  -2.239831  3.237939
N    -3.994118  0.441145  3.632192
C    -4.886556  1.227991  4.462680
H    -3.801847  -0.532393  3.868178
H    -4.562260  1.198221  5.510923
H    -5.922515  0.863117  4.402680
H    -4.859778  2.262091  4.103939
