23
Energy: -15542.4339062 eV PBE+vdW (tier 2 basis)
C    -0.645331  0.634165  0.170326
C    -0.155066  0.079929  1.495105
O    0.958981  0.350305  1.933953
H    -0.652325  -0.158146  -0.590891
H    0.053075  1.416098  -0.138958
H    -1.656443  1.058073  0.226500
N    -0.979607  -0.771377  2.195477
C    -2.355201  -1.170627  1.947070
C    -2.543496  -1.725044  0.507116
O    -1.808177  -2.607105  0.081347
H    -0.561450  -1.079069  3.066911
H    -2.512444  -2.069350  2.567177
C    -3.374765  -0.116369  2.432180
O    -3.219973  0.191962  3.813721
H    -4.403838  -0.464647  2.226153
H    -3.220821  0.838216  1.907959
H    -3.532808  -0.564106  4.334794
N    -3.580477  -1.207351  -0.212963
C    -3.860188  -1.629416  -1.574251
H    -4.098498  -0.422395  0.161297
H    -4.942618  -1.711544  -1.730931
H    -3.393300  -2.607407  -1.727872
H    -3.443914  -0.927062  -2.312083
