23
Energy: -15542.9950889 eV PBE+vdW (tier 2 basis)
C    -0.576784  0.357628  -0.132052
C    -0.357799  0.285823  1.363880
O    0.784074  0.325663  1.848515
H    -0.076816  1.252936  -0.520456
H    -1.634385  0.377202  -0.419438
H    -0.097010  -0.512707  -0.597929
N    -1.475992  0.165752  2.118231
C    -1.483037  0.019453  3.562548
C    -2.952356  -0.192895  3.953014
O    -3.863058  0.076038  3.164394
H    -2.410200  0.212432  1.709869
H    -0.890799  -0.868456  3.840225
C    -0.840093  1.227069  4.311502
O    0.549613  1.072979  4.483978
H    -1.276054  1.329302  5.315093
H    -1.101271  2.140993  3.745491
H    0.900049  0.833759  3.591035
N    -3.210368  -0.680444  5.196312
C    -2.278328  -1.053785  6.247762
H    -4.203793  -0.746317  5.397615
H    -2.659041  -1.938694  6.772360
H    -2.133187  -0.247096  6.982153
H    -1.299363  -1.308634  5.828898
