23
Energy: -15542.884007 eV PBE+vdW (tier 2 basis)
C    0.084791  0.070772  -0.038910
C    0.047171  0.261669  1.462936
O    1.090979  0.350835  2.123947
H    -0.893107  0.175193  -0.524148
H    0.475791  -0.933376  -0.250134
H    0.784275  0.794994  -0.471586
N    -1.194459  0.330516  2.017057
C    -1.530612  0.291774  3.446445
C    -1.155435  1.534471  4.293517
O    -1.980952  1.995729  5.084480
H    -1.975048  0.212680  1.384100
H    -2.627398  0.288044  3.487117
C    -1.029381  -0.996795  4.133807
O    -1.601378  -2.175472  3.567399
H    -1.243567  -0.915246  5.211630
H    0.055260  -1.091293  4.004374
H    -2.506038  -2.265107  3.904418
N    0.101616  2.004673  4.142637
C    0.585059  3.136255  4.910916
H    0.720515  1.501773  3.494077
H    1.546673  3.457738  4.497472
H    0.720350  2.879098  5.972088
H    -0.128102  3.969073  4.859356
