23
Energy: -15542.8280272 eV PBE+vdW (tier 2 basis)
C    0.868551  0.782852  1.189734
C    0.114803  0.510285  2.478165
O    0.649228  0.542816  3.580128
H    1.015747  1.867478  1.093405
H    0.348539  0.421416  0.293802
H    1.859009  0.319368  1.250586
N    -1.223664  0.205469  2.321322
C    -2.135207  0.246378  3.460336
C    -2.161905  -1.025004  4.335597
O    -2.797523  -1.026530  5.387626
H    -1.641740  0.449117  1.427560
H    -1.832123  1.061954  4.135046
C    -3.558884  0.494939  2.964269
O    -3.543402  1.668724  2.142162
H    -4.206670  0.612326  3.844296
H    -3.909346  -0.381357  2.386768
H    -4.454460  1.863695  1.877835
N    -1.496659  -2.095001  3.833471
C    -1.357843  -3.340037  4.560866
H    -0.954283  -1.938199  2.991055
H    -0.326940  -3.483693  4.915743
H    -1.640771  -4.195085  3.932243
H    -2.025459  -3.294910  5.427987
