23
Energy: -15542.5113546 eV PBE+vdW (tier 2 basis)
C    0.336348  -0.575614  0.010876
C    0.129668  -0.167637  1.457769
O    1.028710  0.307763  2.144559
H    0.803415  0.257442  -0.527062
H    -0.587394  -0.864664  -0.505600
H    1.037901  -1.419454  -0.017923
N    -1.139195  -0.361514  1.948020
C    -1.434440  -0.199078  3.372632
C    -2.665614  -1.028938  3.779616
O    -2.557426  -1.897919  4.639858
H    -1.788850  -0.905096  1.391289
H    -0.608407  -0.648807  3.941997
C    -1.543189  1.291445  3.786938
O    -2.260339  1.464839  5.007197
H    -2.097155  1.856090  3.027679
H    -0.527749  1.711575  3.838804
H    -1.755127  1.052449  5.725563
N    -3.855478  -0.830908  3.123044
C    -4.305906  0.348862  2.393944
H    -4.587418  -1.416576  3.517593
H    -5.201555  0.082324  1.821137
H    -3.546838  0.687387  1.680014
H    -4.552742  1.185750  3.065252
