23
Energy: -15542.5349917 eV PBE+vdW (tier 2 basis)
C    -0.085273  -0.441338  -0.865122
C    0.485365  -0.715550  0.512449
O    1.653213  -1.053736  0.688317
H    0.645396  -0.773028  -1.606982
H    -0.269973  0.633351  -1.005285
H    -1.041515  -0.955293  -1.032797
N    -0.356988  -0.537238  1.586796
C    -1.786270  -0.281544  1.561055
C    -2.243314  1.050988  0.922370
O    -3.287323  1.069426  0.273033
H    0.028161  -0.877242  2.464838
H    -2.315355  -1.049968  0.974670
C    -2.343776  -0.336624  2.986223
O    -1.998125  -1.607702  3.538744
H    -3.434709  -0.196044  2.928009
H    -1.918531  0.483767  3.593387
H    -2.337281  -1.650080  4.445098
N    -1.510996  2.188519  1.113241
C    -0.276915  2.425364  1.851832
H    -1.920727  2.982171  0.629901
H    -0.189347  3.504841  2.021110
H    0.615718  2.084014  1.309432
H    -0.287268  1.935651  2.831802
