23
Energy: -15542.9640889 eV PBE+vdW (tier 2 basis)
C    0.267022  0.702557  0.371218
C    0.131322  0.478776  1.861109
O    1.137795  0.319073  2.573104
H    -0.690277  0.766510  -0.159124
H    0.859706  -0.116592  -0.053298
H    0.829014  1.630934  0.206453
N    -1.133701  0.479881  2.350937
C    -1.560252  0.358639  3.757371
C    -1.367564  1.630845  4.618369
O    -2.264600  1.983104  5.381990
H    -1.871794  0.687584  1.689120
H    -2.649999  0.237530  3.711553
C    -1.026227  -0.904310  4.479717
O    0.306505  -0.840493  4.938063
H    -1.191028  -1.763894  3.801200
H    -1.656450  -1.051313  5.367681
H    0.853501  -0.565632  4.169884
N    -0.185852  2.282767  4.472059
C    0.162901  3.416703  5.308458
H    0.555074  1.804455  3.962264
H    0.832099  4.089380  4.759206
H    0.658175  3.100790  6.239541
H    -0.754371  3.951703  5.575128
