23
Energy: -15542.2325076 eV PBE+vdW (tier 2 basis)
C    0.439250  -0.572197  0.756198
C    -0.180680  -0.855236  2.111165
O    0.401354  -1.523083  2.960577
H    -0.045132  -1.186838  -0.014977
H    1.496177  -0.845628  0.809765
H    0.353886  0.479381  0.455258
N    -1.433628  -0.348653  2.376256
C    -2.359732  0.386851  1.517974
C    -2.649029  -0.414364  0.212171
O    -3.095103  -1.551279  0.353900
H    -1.806316  -0.699624  3.252624
H    -3.335873  0.324094  2.021394
C    -2.015657  1.882948  1.516379
O    -3.135952  2.603645  0.992013
H    -1.094662  2.097405  0.948636
H    -1.825413  2.159112  2.565748
H    -3.017418  3.542405  1.198828
N    -2.454467  0.089471  -1.042323
C    -1.852859  1.320176  -1.534501
H    -2.719039  -0.599207  -1.741077
H    -2.037622  1.372269  -2.612805
H    -0.762724  1.345173  -1.382987
H    -2.311672  2.200284  -1.071081
