23
Energy: -15542.3810557 eV PBE+vdW (tier 2 basis)
C    -0.056694  0.494669  0.874666
C    -0.437848  0.680858  2.326918
O    0.128819  1.497421  3.048602
H    0.105084  -0.562855  0.637139
H    0.861979  1.061221  0.701216
H    -0.839590  0.893742  0.214793
N    -1.490754  -0.048003  2.858216
C    -2.253825  -1.198525  2.382335
C    -1.421198  -2.503555  2.406038
O    -0.321525  -2.561817  1.860366
H    -1.593122  0.158265  3.847813
H    -3.093416  -1.280937  3.086921
C    -2.896808  -1.008120  0.988446
O    -3.943899  -1.953520  0.759957
H    -2.158869  -1.182357  0.197479
H    -3.257249  0.029978  0.907104
H    -4.747627  -1.624824  1.190050
N    -1.946056  -3.580741  3.058999
C    -3.265332  -3.739527  3.651817
H    -1.360493  -4.407403  2.983855
H    -3.307691  -4.723477  4.130959
H    -4.066374  -3.688411  2.901013
H    -3.455062  -2.990273  4.433345
