23
Energy: -15542.7730568 eV PBE+vdW (tier 2 basis)
C    -0.611445  0.232704  0.197671
C    -0.316336  0.419332  1.674911
O    0.746465  0.873719  2.084715
H    -1.683647  0.199837  -0.033755
H    -0.158356  -0.712540  -0.132707
H    -0.139098  1.044424  -0.364980
N    -1.341773  0.052814  2.522781
C    -1.153220  -0.157697  3.960547
C    -0.903654  1.130311  4.777852
O    -0.439493  1.067205  5.913765
H    -2.099675  -0.473126  2.102716
H    -2.116467  -0.549769  4.325177
C    -0.097801  -1.216439  4.281011
O    -0.545333  -2.438427  3.673322
H    -0.026575  -1.302260  5.374359
H    0.878783  -0.902918  3.882715
H    0.138959  -3.107755  3.816746
N    -1.316543  2.280360  4.185569
C    -1.105423  3.580553  4.789278
H    -1.582134  2.222097  3.209258
H    -2.003031  4.203874  4.685780
H    -0.251367  4.104001  4.333843
H    -0.892836  3.426700  5.852428
