23
Energy: -15542.8016298 eV PBE+vdW (tier 2 basis)
C    -2.596758  -0.994070  1.311649
C    -1.376635  -0.956214  2.207322
O    -0.705737  -1.964476  2.437987
H    -3.306141  -1.725562  1.718407
H    -2.294446  -1.351381  0.319605
H    -3.101912  -0.026109  1.207927
N    -1.079881  0.261352  2.758938
C    0.085054  0.483273  3.623317
C    -0.149071  1.701791  4.544687
O    0.761871  2.449377  4.881267
H    -1.536208  1.080839  2.371472
H    0.157679  -0.402069  4.279605
C    1.409692  0.576328  2.855556
O    1.913416  -0.698173  2.479675
H    2.153260  1.059201  3.501745
H    1.263877  1.228046  1.971438
H    1.156000  -1.307431  2.368137
N    -1.440497  1.852944  4.967689
C    -1.828718  2.869405  5.927971
H    -2.106579  1.131246  4.715651
H    -1.992519  2.442078  6.928282
H    -2.745586  3.378371  5.603853
H    -1.013162  3.597233  5.990818
