23
Energy: -15542.9420106 eV PBE+vdW (tier 2 basis)
C    -1.957376  0.036667  -0.469477
C    -1.092086  0.335866  0.740057
O    -0.102936  1.064813  0.679040
H    -2.317371  0.984069  -0.888868
H    -2.816752  -0.607691  -0.247970
H    -1.335652  -0.444400  -1.234949
N    -1.493235  -0.255692  1.906030
C    -0.719493  -0.164496  3.122914
C    -0.976746  -1.445328  3.926208
O    -1.975733  -2.140329  3.727106
H    -2.236709  -0.951077  1.927194
H    0.345645  -0.068040  2.860523
C    -1.119276  1.107997  3.920305
O    -0.320892  1.322427  5.084343
H    -2.192741  1.058102  4.164601
H    -0.952644  1.967234  3.258831
H    -0.728280  0.845971  5.822759
N    -0.046550  -1.714991  4.880802
C    -0.128410  -2.863142  5.765170
H    0.744379  -1.084351  4.955669
H    -0.107844  -2.553163  6.818863
H    0.699905  -3.562715  5.586020
H    -1.074203  -3.374733  5.559831
