23
Energy: -15542.8856276 eV PBE+vdW (tier 2 basis)
C    0.045967  -0.133689  0.068725
C    0.009299  0.072673  1.568530
O    1.052958  0.147162  2.231292
H    0.408676  -1.150693  -0.131407
H    0.766995  0.566018  -0.368739
H    -0.927264  -0.006503  -0.420456
N    -1.231891  0.171405  2.119448
C    -1.572175  0.148168  3.548295
C    -1.187275  1.395263  4.385543
O    -2.021308  1.876165  5.155116
H    -2.013433  0.065466  1.485582
H    -2.668969  0.156951  3.584967
C    -1.088229  -1.139817  4.248870
O    -1.672884  -2.316638  3.691719
H    -1.304706  -1.045409  5.325213
H    -0.004547  -1.249206  4.123960
H    -2.580742  -2.390274  4.023993
N    0.085732  1.831458  4.245001
C    0.604489  2.963966  4.985660
H    0.688255  1.310292  3.594538
H    0.956595  3.751537  4.304592
H    1.440830  2.662222  5.632193
H    -0.201378  3.363482  5.610367
