23
Energy: -15543.044755 eV PBE+vdW (tier 2 basis)
C    -0.330041  0.444888  -0.140783
C    -0.421862  0.651700  1.358101
O    0.340252  1.403418  1.968465
H    0.670281  0.064111  -0.381894
H    -0.438894  1.415825  -0.639702
H    -1.084071  -0.246912  -0.534618
N    -1.420773  -0.037431  1.987758
C    -1.518407  -0.065402  3.428185
C    -2.292688  -1.344493  3.806554
O    -2.621686  -2.167790  2.948220
H    -1.902003  -0.812829  1.530664
H    -0.500645  -0.118009  3.856258
C    -2.176727  1.222574  3.977163
O    -2.014348  1.349772  5.398904
H    -3.258686  1.205843  3.789345
H    -1.740290  2.083505  3.453327
H    -1.120660  1.690373  5.562060
N    -2.564275  -1.466501  5.127972
C    -3.329134  -2.572360  5.672426
H    -2.344228  -0.661763  5.714819
H    -4.347316  -2.262331  5.950496
H    -2.830507  -2.983015  6.559913
H    -3.398293  -3.350175  4.905366
