23
Energy: -15542.6234057 eV PBE+vdW (tier 2 basis)
C    -0.023037  0.357775  0.027237
C    0.073837  0.039174  1.506736
O    1.156055  -0.070073  2.072745
H    0.918046  0.052347  -0.438184
H    -0.134108  1.443051  -0.109242
H    -0.854023  -0.146093  -0.479437
N    -1.093868  -0.065236  2.238720
C    -2.468183  -0.148399  1.779140
C    -2.700318  -1.358189  0.817329
O    -1.935693  -2.316751  0.811708
H    -0.907761  -0.371567  3.188096
H    -3.061438  -0.389674  2.677812
C    -2.977001  1.227038  1.280591
O    -4.403536  1.291910  1.121824
H    -2.567092  1.461997  0.290881
H    -2.622295  1.995766  1.983642
H    -4.809725  1.319545  2.002316
N    -3.811173  -1.259288  0.038699
C    -4.221889  -2.317749  -0.864740
H    -4.403450  -0.438927  0.163385
H    -4.384919  -1.923227  -1.876622
H    -5.147908  -2.802438  -0.522250
H    -3.423666  -3.066496  -0.893983
