23
Energy: -15542.8386748 eV PBE+vdW (tier 2 basis)
C    -1.420341  -0.925745  0.030524
C    -0.266282  -0.880454  1.012223
O    0.731572  -1.577987  0.863885
H    -1.171164  -0.293643  -0.832727
H    -2.381555  -0.589601  0.433801
H    -1.512172  -1.955150  -0.330934
N    -0.357460  -0.041484  2.111735
C    -1.328484  1.007892  2.412647
C    -2.745096  0.483090  2.739019
O    -3.739117  1.201563  2.582900
H    0.513272  -0.021875  2.635792
H    -0.981952  1.476894  3.347849
C    -1.387885  2.154176  1.375385
O    -2.063118  3.285657  1.889591
H    -1.854535  1.797655  0.440172
H    -0.358508  2.459829  1.142327
H    -2.952958  2.951520  2.128710
N    -2.798637  -0.772555  3.242298
C    -4.035830  -1.417835  3.637720
H    -1.925551  -1.289200  3.273163
H    -3.978867  -1.765425  4.677695
H    -4.262908  -2.275301  2.988649
H    -4.841627  -0.682055  3.548323
