23
Energy: -15542.8661529 eV PBE+vdW (tier 2 basis)
C    0.705459  0.799460  1.074841
C    -0.082329  0.757818  2.368326
O    0.204007  1.450145  3.338493
H    0.543719  -0.078264  0.436446
H    1.771424  0.891845  1.307863
H    0.407116  1.696440  0.514770
N    -1.142794  -0.131176  2.379137
C    -2.162252  -0.053225  3.414596
C    -2.468860  -1.393933  4.106465
O    -3.466618  -1.523606  4.813143
H    -1.444384  -0.474819  1.471456
H    -1.729010  0.601464  4.190183
C    -3.459186  0.591856  2.890440
O    -3.227020  1.852372  2.269546
H    -4.177482  0.653209  3.720643
H    -3.909296  -0.042972  2.112200
H    -2.851051  2.453637  2.932299
N    -1.556226  -2.378632  3.885250
C    -1.632936  -3.675343  4.527486
H    -0.746246  -2.131734  3.326367
H    -0.821023  -3.811622  5.256413
H    -1.584383  -4.485006  3.786907
H    -2.591629  -3.727912  5.054730
