23
Energy: -15542.5683168 eV PBE+vdW (tier 2 basis)
C    -0.500079  -0.689756  0.943559
C    -0.868636  -0.474629  2.396072
O    -0.422274  -1.183677  3.294297
H    0.431458  -1.261643  0.917193
H    -0.387662  0.237131  0.370359
H    -1.282269  -1.283347  0.448819
N    -1.754239  0.538397  2.710253
C    -2.483556  1.473871  1.850160
C    -3.162678  0.818983  0.629207
O    -2.935258  1.208443  -0.514400
H    -1.967728  0.559864  3.703003
H    -3.287284  1.877259  2.487645
C    -1.623360  2.677071  1.427896
O    -1.115002  3.368303  2.564257
H    -2.243839  3.391354  0.874980
H    -0.815389  2.354961  0.751927
H    -0.507679  2.766019  3.023986
N    -4.041025  -0.198485  0.873971
C    -4.473238  -0.752665  2.147376
H    -4.439877  -0.587526  0.025088
H    -4.654726  0.039191  2.886053
H    -3.747356  -1.462266  2.569942
H    -5.422576  -1.277262  1.992458
