23
Energy: -15542.5939922 eV PBE+vdW (tier 2 basis)
C    0.538051  -0.364985  1.434855
C    -0.000260  0.715817  2.348190
O    0.591560  1.769032  2.561627
H    1.500269  -0.030160  1.040102
H    -0.148259  -0.569679  0.601649
H    0.676180  -1.312756  1.973912
N    -1.224919  0.475006  2.942180
C    -2.020595  -0.743620  2.881211
C    -2.688024  -0.990118  1.504566
O    -2.829160  -2.123643  1.062309
H    -1.487581  1.193213  3.613394
H    -1.404389  -1.636103  3.065791
C    -3.069072  -0.655203  4.001522
O    -3.800749  -1.868221  4.041533
H    -3.730311  0.211350  3.807543
H    -2.532115  -0.472415  4.951893
H    -4.514432  -1.772816  4.689103
N    -3.106454  0.142832  0.870302
C    -3.740069  0.120070  -0.433256
H    -2.814258  1.029930  1.266224
H    -4.695696  0.661251  -0.415631
H    -3.926532  -0.927847  -0.691625
H    -3.094809  0.565726  -1.204367
