23
Energy: -15542.626053 eV PBE+vdW (tier 2 basis)
C    0.211846  1.321097  0.347299
C    0.089224  0.723075  1.737226
O    0.867600  0.999107  2.645905
H    0.058963  2.405712  0.417383
H    -0.499240  0.907008  -0.378076
H    1.233215  1.159993  -0.018057
N    -0.934796  -0.172291  1.903682
C    -1.314009  -0.680848  3.210502
C    -0.243684  -1.410739  4.049586
O    -0.307679  -1.308740  5.272759
H    -1.653220  -0.237128  1.187785
H    -1.608188  0.153217  3.869476
C    -2.514245  -1.629675  3.036584
O    -3.573918  -1.038571  2.280062
H    -2.849755  -1.957289  4.031589
H    -2.213765  -2.520060  2.466502
H    -3.995716  -0.358941  2.829479
N    0.661401  -2.246957  3.460210
C    0.978164  -2.476741  2.059870
H    1.305895  -2.630414  4.145224
H    1.560394  -3.403184  1.991912
H    1.572982  -1.660457  1.622742
H    0.072833  -2.609029  1.458290
