23
Energy: -15542.7090003 eV PBE+vdW (tier 2 basis)
C    -0.441296  -1.711347  0.442130
C    -0.154579  -0.654298  1.493356
O    0.892764  -0.627409  2.131864
H    -0.511324  -2.687497  0.938950
H    0.406983  -1.758409  -0.250844
H    -1.362969  -1.538051  -0.127166
N    -1.139944  0.285216  1.665927
C    -1.119411  1.295335  2.718820
C    0.250177  1.985537  2.921079
O    0.718190  2.119007  4.055338
H    -2.001757  0.175525  1.145227
H    -1.823893  2.089339  2.417980
C    -1.617647  0.713411  4.060467
O    -1.805220  1.712200  5.043812
H    -0.907097  -0.064386  4.388423
H    -2.593791  0.237173  3.888413
H    -0.904718  2.069300  5.187570
N    0.864288  2.558655  1.849551
C    0.514559  2.501561  0.442774
H    1.765298  2.958598  2.093630
H    -0.567116  2.608308  0.300142
H    0.841049  1.566608  -0.038542
H    0.998308  3.341886  -0.068783
