23
Energy: -15542.1741193 eV PBE+vdW (tier 2 basis)
C    -0.417431  -0.344884  0.082583
C    0.091088  -0.234555  1.507706
O    1.166606  -0.718951  1.848044
H    0.378212  -0.791526  -0.519105
H    -0.676172  0.633312  -0.344519
H    -1.306428  -0.987544  0.031020
N    -0.694742  0.413322  2.431071
C    -1.964632  1.110390  2.278397
C    -3.049804  0.183676  1.648851
O    -3.302500  -0.868245  2.228366
H    -0.270361  0.430909  3.352149
H    -2.360074  1.191908  3.304759
C    -1.784321  2.564493  1.797067
O    -0.989571  3.316688  2.712154
H    -2.768324  3.041469  1.651386
H    -1.238491  2.606379  0.846487
H    -1.513038  3.480024  3.512378
N    -3.760446  0.531913  0.530526
C    -3.590670  1.582174  -0.462197
H    -4.461646  -0.174226  0.325571
H    -3.993015  2.550937  -0.133099
H    -4.136574  1.283090  -1.363465
H    -2.541087  1.714792  -0.749696
