23
Energy: -15542.4802581 eV PBE+vdW (tier 2 basis)
C    0.261929  -0.078966  0.313654
C    0.093766  -0.179328  1.818765
O    1.047622  -0.397832  2.559004
H    1.334189  -0.075372  0.101765
H    -0.186623  0.831608  -0.104145
H    -0.192225  -0.947416  -0.183276
N    -1.167967  -0.035056  2.352973
C    -2.458658  0.213448  1.721702
C    -2.762251  -0.795620  0.584160
O    -2.858985  -1.993021  0.814995
H    -1.174667  -0.191007  3.356089
H    -3.212987  -0.044939  2.479822
C    -2.684038  1.703278  1.394425
O    -4.045270  2.013197  1.118188
H    -2.011502  2.045480  0.581762
H    -2.411585  2.289192  2.281470
H    -4.350599  1.430842  0.401864
N    -2.985973  -0.258627  -0.659716
C    -3.212689  -1.121960  -1.809357
H    -2.619498  0.669756  -0.843143
H    -3.867096  -1.945381  -1.506195
H    -2.275845  -1.556842  -2.190638
H    -3.694158  -0.546463  -2.607482
