23
Energy: -15542.1833787 eV PBE+vdW (tier 2 basis)
C    0.206765  -0.560663  0.002837
C    0.080642  -0.399071  1.505136
O    1.035073  -0.564925  2.257844
H    -0.322736  -1.464257  -0.330696
H    1.268247  -0.671806  -0.232640
H    -0.193964  0.299748  -0.547499
N    -1.152414  -0.067354  2.020736
C    -2.435721  0.144496  1.363573
C    -2.851127  -1.068231  0.481767
O    -2.954342  -2.161294  1.025026
H    -1.154784  -0.069989  3.035724
H    -3.185721  0.067183  2.166502
C    -2.581610  1.575846  0.820022
O    -3.919490  1.894025  0.447516
H    -1.865005  1.774840  0.003354
H    -2.321617  2.263901  1.635218
H    -4.279762  1.158270  -0.075723
N    -3.265525  -0.918177  -0.831805
C    -2.776466  -0.051995  -1.907216
H    -3.596058  -1.824497  -1.160872
H    -1.765953  -0.328773  -2.242783
H    -2.773162  1.003045  -1.621441
H    -3.461057  -0.155417  -2.756736
