23
Energy: -15542.8210037 eV PBE+vdW (tier 2 basis)
C    0.204951  0.430135  -0.045936
C    0.095372  0.436480  1.466343
O    1.086127  0.429458  2.199690
H    0.765591  -0.461250  -0.353739
H    0.784883  1.306142  -0.361798
H    -0.765357  0.438814  -0.556846
N    -1.175353  0.454108  1.963233
C    -1.438975  0.399760  3.384577
C    -2.833404  -0.215768  3.552634
O    -3.672098  -0.085309  2.654513
H    -2.000254  0.397403  1.369621
H    -0.647529  -0.202413  3.854908
C    -1.380862  1.831534  3.991210
O    -1.339448  1.850221  5.415138
H    -2.281685  2.385053  3.692852
H    -0.504271  2.334094  3.555710
H    -0.426212  1.670034  5.685593
N    -3.126936  -0.876226  4.702297
C    -2.290358  -1.142731  5.862030
H    -4.096695  -1.176603  4.743321
H    -2.328008  -0.327008  6.595996
H    -1.246666  -1.287223  5.561584
H    -2.631815  -2.071706  6.334069
