23
Energy: -15542.7950484 eV PBE+vdW (tier 2 basis)
C    1.769463  -1.218537  1.761149
C    0.522624  -0.357229  1.830636
O    -0.152369  -0.094914  0.838519
H    2.207266  -1.444772  2.741344
H    2.518691  -0.696295  1.152424
H    1.524572  -2.156361  1.249041
N    0.209134  0.118984  3.077371
C    -0.934042  0.991860  3.300529
C    -0.528420  2.110119  4.289873
O    0.014194  3.135711  3.888711
H    0.760163  -0.172787  3.874906
H    -1.118979  1.497181  2.342303
C    -2.207628  0.208689  3.629577
O    -2.013550  -0.559726  4.834435
H    -2.424510  -0.458000  2.781084
H    -3.046734  0.915964  3.748202
H    -2.786594  -1.128196  4.962106
N    -0.782964  1.843781  5.602955
C    -0.451589  2.776549  6.662317
H    -1.256377  0.968008  5.820727
H    0.098907  3.610773  6.214744
H    0.177636  2.297268  7.424958
H    -1.355896  3.169929  7.149089
