23
Energy: -15542.6369601 eV PBE+vdW (tier 2 basis)
C    0.369587  -0.145351  0.456373
C    0.251802  0.242113  1.921401
O    1.166567  0.798716  2.519605
H    1.374390  0.120015  0.118095
H    -0.364456  0.395781  -0.158745
H    0.208470  -1.219879  0.296093
N    -0.928195  -0.058297  2.563274
C    -2.157858  -0.573015  1.990858
C    -3.308252  -0.003016  2.848399
O    -3.081935  0.488385  3.952428
H    -1.054808  0.363537  3.486532
H    -2.271467  -0.235682  0.947801
C    -2.175256  -2.123177  1.999486
O    -2.088274  -2.664583  3.303572
H    -1.347869  -2.477828  1.358178
H    -3.110224  -2.505507  1.569357
H    -1.306302  -2.272455  3.729150
N    -4.574144  -0.075839  2.349991
C    -5.037040  -0.599063  1.077313
H    -5.273906  0.254997  3.007575
H    -5.944613  -0.061067  0.779124
H    -5.272006  -1.673960  1.119942
H    -4.289778  -0.438203  0.291314
