23
Energy: -15542.4477487 eV PBE+vdW (tier 2 basis)
C    0.373052  -0.763490  0.161431
C    0.193673  -0.156128  1.531893
O    1.145761  0.199198  2.221098
H    1.417287  -0.623474  -0.129975
H    -0.292686  -0.315735  -0.584717
H    0.154228  -1.838647  0.209599
N    -1.085908  0.023396  2.037706
C    -2.401930  -0.366259  1.568188
C    -2.552940  -1.900125  1.351213
O    -1.695507  -2.708302  1.670755
H    -1.039833  0.358438  2.994570
H    -3.072248  -0.140373  2.414931
C    -2.965595  0.474875  0.390438
O    -2.557461  0.079458  -0.911259
H    -2.614969  1.506158  0.519209
H    -4.071775  0.500353  0.461927
H    -2.845685  -0.840115  -1.044307
N    -3.732800  -2.274729  0.750547
C    -4.090291  -3.680162  0.615691
H    -4.484688  -1.594857  0.706962
H    -4.836979  -3.790581  -0.178457
H    -4.492022  -4.098503  1.550902
H    -3.191854  -4.246547  0.350587
