23
Energy: -15542.7305996 eV PBE+vdW (tier 2 basis)
C    0.437273  0.141371  0.066321
C    0.255857  0.225623  1.570225
O    1.241597  0.329682  2.310037
H    1.138876  -0.671265  -0.155830
H    0.899364  1.074389  -0.281300
H    -0.492166  -0.024155  -0.491601
N    -1.039557  0.193656  1.993568
C    -1.615172  0.250223  3.345461
C    -2.423406  1.533988  3.656078
O    -3.485452  1.408351  4.266607
H    -1.729916  0.118309  1.255076
H    -2.400156  -0.520670  3.366504
C    -0.670737  -0.123828  4.508405
O    0.356687  0.799125  4.791571
H    -0.269324  -1.134000  4.307919
H    -1.309164  -0.188806  5.400102
H    0.963239  0.722051  4.016863
N    -1.987183  2.758172  3.246061
C    -0.704899  3.172053  2.694876
H    -2.634860  3.491709  3.517674
H    -0.552179  4.228806  2.941244
H    -0.667629  3.068664  1.599647
H    0.118463  2.608319  3.143124
