23
Energy: -15542.9169545 eV PBE+vdW (tier 2 basis)
C    -0.036872  -0.071967  -0.062453
C    0.045451  -0.132827  1.447937
O    1.099748  -0.383171  2.037207
H    0.681852  0.674793  -0.422000
H    -1.034189  0.182130  -0.441421
H    0.268269  -1.042360  -0.473437
N    -1.120900  0.121715  2.119945
C    -1.214589  0.058313  3.580520
C    -1.449418  -1.393347  4.064350
O    -2.548572  -1.787183  4.451709
H    -1.990829  0.107578  1.595739
H    -0.244193  0.408893  3.960612
C    -2.309504  1.004781  4.067881
O    -1.985707  2.372574  3.831528
H    -2.426060  0.893690  5.152030
H    -3.277653  0.728399  3.612122
H    -1.747094  2.465319  2.894972
N    -0.326741  -2.158679  4.003040
C    -0.326440  -3.573645  4.319210
H    0.495238  -1.734775  3.570250
H    -0.188610  -4.188701  3.417549
H    -1.293930  -3.819868  4.769195
H    0.473740  -3.811663  5.032515
