23
Energy: -15542.5628095 eV PBE+vdW (tier 2 basis)
C    -0.043208  -0.063102  -0.057086
C    0.048395  -0.017152  1.458731
O    1.128297  -0.063653  2.041614
H    0.971674  0.022425  -0.453922
H    -0.657151  0.750847  -0.468566
H    -0.478841  -1.016543  -0.382571
N    -1.122609  0.076630  2.168477
C    -2.483497  0.165177  1.693275
C    -3.262322  1.073591  2.662850
O    -2.963826  1.118448  3.853995
H    -1.016541  0.158692  3.179362
H    -2.491230  0.591046  0.679716
C    -3.203786  -1.211405  1.657885
O    -2.638343  -2.120749  0.722448
H    -4.283567  -1.066157  1.474767
H    -3.092091  -1.677739  2.645571
H    -2.937009  -1.874256  -0.166156
N    -4.322918  1.768079  2.158152
C    -4.741209  1.882659  0.770450
H    -4.814040  2.318845  2.855402
H    -5.599413  2.560823  0.725036
H    -5.061584  0.918165  0.349531
H    -3.950984  2.302771  0.130895
