23
Energy: -15542.6262134 eV PBE+vdW (tier 2 basis)
C    0.610539  0.233545  1.739976
C    -0.392965  -0.616341  2.495359
O    -0.086053  -1.670133  3.047779
H    1.568436  -0.292236  1.738399
H    0.740988  1.216817  2.214742
H    0.293990  0.414517  0.703410
N    -1.686821  -0.152969  2.540945
C    -2.180358  1.133366  2.095255
C    -1.749342  2.392656  2.888757
O    -1.702265  3.466071  2.286916
H    -2.315314  -0.724754  3.100270
H    -1.811659  1.345123  1.080442
C    -3.714848  1.088962  1.990606
O    -4.351245  0.765991  3.230115
H    -3.994232  0.289095  1.291547
H    -4.070198  2.048288  1.586821
H    -4.412634  1.576598  3.758752
N    -1.462468  2.324344  4.222525
C    -1.468119  1.210246  5.167428
H    -1.166719  3.227693  4.581317
H    -0.595293  0.552438  5.055867
H    -2.377252  0.606522  5.075691
H    -1.452009  1.633150  6.178330
