23
Energy: -15542.2838752 eV PBE+vdW (tier 2 basis)
C    -0.309688  0.139240  -0.083133
C    -0.146204  0.642661  1.333681
O    0.602822  1.585150  1.590826
H    -1.365813  0.039814  -0.361005
H    0.175445  -0.838586  -0.211838
H    0.187993  0.856232  -0.741348
N    -0.840653  0.052986  2.370963
C    -1.740160  -1.084699  2.557138
C    -1.178255  -2.174412  3.512475
O    -1.925464  -2.656215  4.362525
H    -0.636714  0.546774  3.237374
H    -2.615162  -0.714528  3.112356
C    -2.317563  -1.773410  1.322544
O    -3.209297  -0.873325  0.660708
H    -2.857940  -2.657548  1.695972
H    -1.524588  -2.124551  0.640390
H    -3.765296  -1.388276  0.057152
N    0.119702  -2.582393  3.403630
C    1.145469  -2.245065  2.426415
H    0.355371  -3.278153  4.104546
H    1.959175  -2.971308  2.529149
H    1.558544  -1.238863  2.575064
H    0.770278  -2.322456  1.398116
