23
Energy: -15542.9677978 eV PBE+vdW (tier 2 basis)
C    -3.448145  1.570843  0.966361
C    -2.578515  0.410699  1.411187
O    -2.455732  -0.612893  0.749949
H    -3.603486  2.331823  1.741502
H    -4.419220  1.182286  0.639273
H    -2.976437  2.046766  0.096404
N    -1.944809  0.584740  2.626652
C    -0.907080  -0.318322  3.096463
C    -1.271733  -1.054603  4.397997
O    -0.392756  -1.553398  5.113364
H    -2.000850  1.500251  3.061850
H    -0.799710  -1.088968  2.315600
C    0.439917  0.425111  3.247065
O    1.515824  -0.439284  3.530401
H    0.329164  1.210044  4.026239
H    0.658912  0.930772  2.295575
H    1.196251  -0.999867  4.272716
N    -2.593300  -1.133687  4.680647
C    -3.119741  -1.868501  5.814588
H    -3.228325  -0.704533  4.016457
H    -2.269653  -2.226895  6.404253
H    -3.714359  -2.732113  5.485461
H    -3.747212  -1.223269  6.443996
