23
Energy: -15542.6058709 eV PBE+vdW (tier 2 basis)
C    -0.269925  0.941912  1.061791
C    -0.150666  -0.365502  1.819827
O    0.875272  -0.703163  2.404659
H    -0.518450  0.775992  0.004303
H    0.689619  1.460521  1.127169
H    -1.056754  1.583063  1.484945
N    -1.264280  -1.173106  1.841925
C    -2.570972  -0.901853  1.282916
C    -3.526500  0.029411  2.051050
O    -4.547887  0.399483  1.450756
H    -1.130838  -2.031190  2.371092
H    -2.458686  -0.422732  0.299377
C    -3.316651  -2.240283  1.034067
O    -4.479805  -2.088672  0.256812
H    -3.538954  -2.711271  2.015646
H    -2.631276  -2.908647  0.491503
H    -4.876186  -1.225710  0.512044
N    -3.311880  0.422131  3.334502
C    -2.311324  0.032961  4.324703
H    -4.073657  1.008398  3.664291
H    -2.624539  0.451778  5.287085
H    -1.311951  0.421584  4.095294
H    -2.245688  -1.055627  4.441999
