23
Energy: -15542.594206 eV PBE+vdW (tier 2 basis)
C    -0.116119  0.070283  -0.059673
C    0.050486  -0.007587  1.451073
O    1.154295  -0.128744  1.974589
H    0.869447  -0.065808  -0.512162
H    -0.512879  1.048937  -0.366822
H    -0.795247  -0.702651  -0.445924
N    -1.087658  0.080737  2.210613
C    -2.459350  0.217783  1.764075
C    -3.212664  0.980808  2.869996
O    -2.915217  0.791515  4.049935
H    -0.963859  0.071499  3.222997
H    -2.490667  0.767147  0.812899
C    -3.110143  -1.179239  1.559604
O    -4.405658  -1.127417  0.963045
H    -3.228384  -1.654592  2.542956
H    -2.416812  -1.800138  0.970245
H    -4.296147  -1.108229  0.000899
N    -4.204839  1.836811  2.509462
C    -4.698343  2.159217  1.179145
H    -4.684418  2.244864  3.306178
H    -5.383354  3.009166  1.266501
H    -5.239357  1.318030  0.726034
H    -3.882475  2.464592  0.509647
