23
Energy: -15542.8012533 eV PBE+vdW (tier 2 basis)
C    0.172699  0.521019  1.840205
C    -0.491929  -0.669211  2.502194
O    0.111659  -1.440831  3.240900
H    1.211580  0.555828  2.177329
H    -0.326027  1.464359  2.102691
H    0.154065  0.430039  0.745101
N    -1.837140  -0.860100  2.249600
C    -2.733902  -0.076100  1.413636
C    -3.688122  0.870581  2.179221
O    -4.535193  1.517788  1.568499
H    -2.214998  -1.688410  2.707282
H    -2.125869  0.571038  0.767184
C    -3.539671  -1.000072  0.485533
O    -2.713804  -1.674551  -0.452637
H    -4.245008  -0.389787  -0.087767
H    -4.127573  -1.713475  1.095740
H    -2.070324  -2.209143  0.040505
N    -3.504294  0.925064  3.525306
C    -4.292109  1.782981  4.389251
H    -2.754440  0.366332  3.917595
H    -3.664979  2.544258  4.873746
H    -4.803078  1.197933  5.165803
H    -5.041023  2.283135  3.765920
