23
Energy: -15542.6752434 eV PBE+vdW (tier 2 basis)
C    0.212000  -0.305706  0.792596
C    -0.311187  -0.131050  2.203835
O    0.443211  -0.037361  3.168680
H    1.225285  0.104316  0.761066
H    -0.403865  0.165466  0.019174
H    0.272245  -1.378590  0.558594
N    -1.676148  -0.129069  2.407217
C    -2.781888  -0.165642  1.455818
C    -2.663522  -1.272699  0.385907
O    -2.768828  -1.010771  -0.817526
H    -1.913383  -0.006244  3.387371
H    -3.683687  -0.410743  2.041831
C    -3.047591  1.204817  0.796526
O    -4.231262  1.207748  0.021575
H    -2.167406  1.504599  0.201085
H    -3.176185  1.947774  1.595506
H    -4.051030  0.579858  -0.705152
N    -2.469829  -2.551016  0.807830
C    -2.380053  -3.067168  2.165408
H    -2.406511  -3.214435  0.041503
H    -2.596588  -4.140828  2.139912
H    -3.123946  -2.596067  2.820116
H    -1.385220  -2.919480  2.608488
