23
Energy: -15542.738118 eV PBE+vdW (tier 2 basis)
C    0.331086  -0.290322  0.627661
C    -0.072786  -0.429372  2.085995
O    0.744955  -0.686084  2.963214
H    1.405616  -0.476847  0.556671
H    0.120766  0.720713  0.249081
H    -0.200299  -1.002266  -0.018119
N    -1.404717  -0.261355  2.394400
C    -2.476229  0.203281  1.535057
C    -3.485089  0.939014  2.450653
O    -3.399146  0.875411  3.674115
H    -1.618696  -0.169482  3.390877
H    -2.098515  0.915985  0.781814
C    -3.156673  -0.971105  0.791926
O    -3.743961  -1.907590  1.675440
H    -2.408895  -1.449315  0.133517
H    -3.969175  -0.601902  0.149113
H    -3.054095  -2.181936  2.304286
N    -4.452370  1.635000  1.797538
C    -5.533470  2.315683  2.488265
H    -4.457760  1.623216  0.784817
H    -5.594881  3.366559  2.176325
H    -5.320351  2.272016  3.560928
H    -6.499682  1.827129  2.298887
