23
Energy: -15542.4870494 eV PBE+vdW (tier 2 basis)
C    -0.136640  -0.387336  0.025872
C    -0.008956  -0.265698  1.530976
O    1.084926  -0.238487  2.088830
H    -0.910128  0.258282  -0.406274
H    -0.388034  -1.421922  -0.248530
H    0.835906  -0.141653  -0.408600
N    -1.160168  -0.239143  2.292454
C    -2.555434  -0.090963  1.889226
C    -3.000032  -1.061712  0.775124
O    -3.518110  -0.651988  -0.262552
H    -0.957387  -0.063048  3.272248
H    -3.142639  -0.369000  2.782888
C    -2.935591  1.360474  1.541921
O    -2.706484  2.229955  2.654105
H    -3.977637  1.397271  1.194113
H    -2.303618  1.726376  0.722884
H    -3.506378  2.244040  3.199957
N    -2.826256  -2.396815  1.002929
C    -2.269675  -3.069407  2.166330
H    -3.129674  -2.970273  0.221742
H    -2.618700  -2.606954  3.098280
H    -1.170467  -3.064421  2.173043
H    -2.617321  -4.108725  2.163677
