23
Energy: -15542.8423619 eV PBE+vdW (tier 2 basis)
C    -0.604782  0.098180  -0.139464
C    -0.531217  -0.317645  1.317088
O    0.181464  -1.242722  1.703690
H    0.405615  0.343568  -0.488965
H    -1.265129  0.955097  -0.318745
H    -0.955742  -0.756743  -0.730952
N    -1.300922  0.420995  2.176871
C    -1.463467  0.038186  3.566442
C    -2.869328  0.502289  3.980913
O    -3.504924  1.286325  3.272053
H    -2.043754  1.031765  1.834355
H    -1.362852  -1.057768  3.639991
C    -0.352851  0.666231  4.441262
O    -0.407347  2.084751  4.474186
H    0.612984  0.299337  4.055807
H    -0.445866  0.335384  5.483271
H    -0.340768  2.398138  3.557017
N    -3.382930  0.031386  5.148987
C    -2.809739  -0.917250  6.087351
H    -4.283469  0.440828  5.378425
H    -2.219378  -0.426554  6.876370
H    -2.167269  -1.638112  5.569003
H    -3.619331  -1.482667  6.564050
