23
Energy: -15542.5309881 eV PBE+vdW (tier 2 basis)
C    -0.256955  -0.263435  0.266366
C    0.112292  -0.216099  1.735504
O    1.148419  0.316216  2.126172
H    0.366385  0.468029  -0.254614
H    -1.315897  -0.057872  0.070169
H    -0.040517  -1.259984  -0.144582
N    -0.718094  -0.836691  2.645931
C    -2.067713  -1.370455  2.481816
C    -2.225049  -2.335979  1.290277
O    -3.064612  -2.144757  0.411868
H    -0.420597  -0.669309  3.602937
H    -2.252993  -1.965788  3.392687
C    -3.152781  -0.292205  2.458818
O    -3.099850  0.352348  3.735698
H    -4.130163  -0.766427  2.279661
H    -2.964502  0.419008  1.638492
H    -3.677042  1.128758  3.708390
N    -1.407374  -3.428706  1.266369
C    -0.390225  -3.838517  2.221908
H    -1.553838  -4.010582  0.447370
H    -0.204704  -4.910633  2.091051
H    -0.729877  -3.685793  3.254123
H    0.557090  -3.296899  2.089403
