23
Energy: -15542.6235713 eV PBE+vdW (tier 2 basis)
C    -0.943777  1.263708  0.631278
C    0.093709  0.199154  0.930767
O    1.291999  0.361319  0.711283
H    -0.440151  2.100705  0.141568
H    -1.423838  1.622607  1.552999
H    -1.740756  0.885832  -0.024095
N    -0.365062  -0.981479  1.466170
C    -1.698678  -1.265300  1.956068
C    -2.174429  -0.531524  3.241423
O    -3.381639  -0.319682  3.362513
H    0.367515  -1.643419  1.709473
H    -2.442464  -0.941117  1.213775
C    -1.885426  -2.774406  2.100314
O    -0.868347  -3.269565  2.982698
H    -1.795976  -3.239192  1.103689
H    -2.894434  -2.965195  2.497991
H    -0.944617  -4.233573  3.028166
N    -1.282920  -0.108045  4.179864
C    0.134350  -0.411681  4.359191
H    -1.749853  0.376499  4.940483
H    0.390184  -0.198535  5.403166
H    0.780959  0.201811  3.717294
H    0.339426  -1.472051  4.175911
