23
Energy: -15542.6383468 eV PBE+vdW (tier 2 basis)
C    1.870624  0.005620  1.658945
C    0.816983  0.668811  2.528307
O    1.091678  1.544043  3.343839
H    2.625308  -0.453753  2.309725
H    2.377695  0.778507  1.068330
H    1.470769  -0.757873  0.979808
N    -0.462649  0.216914  2.341905
C    -1.587655  0.743315  3.086273
C    -1.836772  0.215468  4.524338
O    -2.507389  0.921571  5.275228
H    -0.648023  -0.524096  1.675987
H    -1.401283  1.812965  3.257662
C    -2.858918  0.606610  2.256079
O    -2.995964  -0.780602  1.897693
H    -2.771406  1.232466  1.351694
H    -3.711360  0.955227  2.857938
H    -3.815527  -0.886840  1.393543
N    -1.329550  -0.976985  4.947471
C    -0.710923  -2.070053  4.211681
H    -1.558179  -1.148546  5.921725
H    -1.245547  -2.279060  3.277509
H    -0.772580  -2.970005  4.834498
H    0.349666  -1.882706  3.991822
