23
Energy: -15542.866371 eV PBE+vdW (tier 2 basis)
C    -0.781892  0.064016  -0.314949
C    -0.562774  -0.274445  1.146497
O    0.474925  -0.792589  1.551749
H    -0.017861  0.787941  -0.624888
H    -1.773987  0.479228  -0.531344
H    -0.633634  -0.842856  -0.913709
N    -1.611143  0.024013  1.981468
C    -1.542199  -0.125587  3.426892
C    -2.688843  -1.014347  3.948460
O    -3.578657  -0.548818  4.672515
H    -2.427011  0.483627  1.592276
H    -0.574286  -0.604488  3.636069
C    -1.574747  1.252590  4.115007
O    -1.531119  1.158239  5.525305
H    -2.470964  1.805045  3.774430
H    -0.687249  1.815165  3.795019
H    -2.365963  0.712712  5.768109
N    -2.690706  -2.325146  3.591107
C    -1.760556  -3.041377  2.733142
H    -3.496740  -2.831514  3.946899
H    -0.766868  -2.581315  2.756152
H    -2.099005  -3.062820  1.685628
H    -1.665872  -4.073462  3.090996
