23
Energy: -15542.7551161 eV PBE+vdW (tier 2 basis)
C    -0.775775  0.963103  -0.058133
C    -0.399318  0.252360  1.226412
O    0.686149  0.408831  1.778361
H    -1.676345  1.577748  0.072944
H    -0.979000  0.245398  -0.866456
H    0.066684  1.594782  -0.350504
N    -1.323852  -0.620420  1.761415
C    -2.707059  -0.825589  1.357766
C    -3.646725  0.245994  1.978087
O    -3.934041  1.256839  1.337510
H    -1.045319  -1.018312  2.655186
H    -2.787808  -0.659872  0.275958
C    -3.106237  -2.278265  1.611400
O    -2.897377  -2.581320  3.004108
H    -2.476763  -2.929208  0.983682
H    -4.163702  -2.423629  1.333521
H    -3.033481  -3.529840  3.140673
N    -4.062254  0.003106  3.249439
C    -4.863438  0.947370  4.004334
H    -3.777998  -0.875854  3.675789
H    -4.334159  1.280628  4.908144
H    -5.824951  0.505008  4.300448
H    -5.053231  1.814144  3.362919
