23
Energy: -15543.0688472 eV PBE+vdW (tier 2 basis)
C    0.333488  0.374682  0.379865
C    -0.406810  0.736571  1.649836
O    -0.474588  1.913276  2.037723
H    1.393986  0.626291  0.509923
H    -0.050212  0.991477  -0.441393
H    0.249922  -0.684475  0.110240
N    -0.967022  -0.299674  2.318026
C    -1.649377  -0.209626  3.596707
C    -2.000810  -1.661168  3.975668
O    -1.882173  -2.589456  3.172704
H    -0.937488  -1.251069  1.947886
H    -0.961792  0.199701  4.358161
C    -2.893454  0.724760  3.580101
O    -2.561515  2.077152  3.788507
H    -3.581225  0.437974  4.389584
H    -3.424230  0.558002  2.622803
H    -1.807815  2.267360  3.175660
N    -2.448030  -1.842255  5.241786
C    -2.833668  -3.152448  5.740678
H    -2.497367  -1.045366  5.864343
H    -3.623395  -3.589475  5.115991
H    -3.205774  -3.043818  6.764161
H    -1.979655  -3.843418  5.740036
