23
Energy: -15542.8466055 eV PBE+vdW (tier 2 basis)
C    -0.906391  -0.270734  0.070776
C    -0.489303  -0.650960  1.479318
O    0.324082  -1.559021  1.667965
H    -0.006624  -0.171756  -0.546863
H    -1.490787  0.655528  0.011126
H    -1.502653  -1.091746  -0.348959
N    -1.074032  0.090097  2.470532
C    -1.042907  -0.129008  3.927033
C    -1.432400  1.166613  4.660097
O    -2.111954  1.137651  5.680492
H    -1.815870  0.707821  2.156533
H    -1.796143  -0.877133  4.215992
C    0.321812  -0.611464  4.489477
O    0.571601  -1.981570  4.309221
H    0.292471  -0.431662  5.572997
H    1.125219  0.021631  4.063326
H    0.608977  -2.105498  3.331161
N    -0.926475  2.314582  4.115782
C    -1.097011  3.614074  4.738282
H    -0.309031  2.225749  3.316076
H    -1.458611  4.352501  4.010632
H    -0.156731  3.977540  5.177560
H    -1.836238  3.502763  5.538446
