23
Energy: -15542.2012854 eV PBE+vdW (tier 2 basis)
C    0.016427  0.227610  0.063866
C    0.013745  -0.091438  1.547751
O    1.049089  -0.366807  2.148571
H    1.058696  0.300668  -0.257100
H    -0.491882  1.174022  -0.164596
H    -0.476944  -0.570692  -0.506564
N    -1.188887  -0.087395  2.211419
C    -2.523286  0.278343  1.755805
C    -2.940713  -0.535483  0.497959
O    -2.911405  -1.759547  0.577529
H    -1.092277  -0.314466  3.195552
H    -3.203306  -0.148904  2.509945
C    -2.771036  1.789703  1.838790
O    -2.717225  2.111921  3.230489
H    -3.765143  2.035436  1.427055
H    -2.006106  2.351553  1.277767
H    -2.680648  3.075051  3.323524
N    -3.392442  0.059717  -0.651148
C    -3.371342  1.434042  -1.126133
H    -3.681977  -0.646072  -1.322131
H    -3.438434  1.414766  -2.219466
H    -2.435211  1.944196  -0.870274
H    -4.214859  2.030303  -0.748298
