23
Energy: -15542.4234737 eV PBE+vdW (tier 2 basis)
C    -0.082605  -0.265215  0.193230
C    -0.079082  -0.124872  1.700277
O    0.961103  -0.127650  2.354646
H    0.938206  -0.091932  -0.157245
H    -0.771852  0.422206  -0.309517
H    -0.382626  -1.283298  -0.092324
N    -1.287592  -0.020882  2.360101
C    -2.659848  0.044789  1.858008
C    -2.992264  -1.098176  0.864860
O    -3.285814  -0.877408  -0.305253
H    -1.157974  0.075011  3.362951
H    -3.300211  -0.109594  2.741786
C    -3.041529  1.420170  1.272967
O    -4.449689  1.640887  1.283644
H    -2.739604  1.469938  0.220114
H    -2.497755  2.196754  1.835392
H    -4.710447  1.905276  2.178914
N    -2.936464  -2.370982  1.360183
C    -2.583343  -2.815191  2.698291
H    -3.131173  -3.078650  0.658954
H    -2.914429  -3.852566  2.817910
H    -3.095712  -2.220035  3.466537
H    -1.501142  -2.768377  2.888008
