23
Energy: -15542.7492806 eV PBE+vdW (tier 2 basis)
C    0.241713  -0.123726  0.205294
C    -0.049948  0.290231  1.635026
O    0.817067  0.764689  2.372882
H    0.619760  0.746854  -0.344976
H    -0.631076  -0.528961  -0.320619
H    1.039454  -0.876821  0.213465
N    -1.336668  0.111272  2.045541
C    -1.747247  0.371867  3.405562
C    -2.948302  -0.552824  3.686779
O    -3.528701  -1.125652  2.764795
H    -2.030925  -0.372534  1.479177
H    -0.901817  0.129014  4.070761
C    -2.078901  1.857347  3.637007
O    -3.301212  2.173741  2.971573
H    -1.232765  2.442525  3.246903
H    -2.158607  2.059594  4.719510
H    -3.289654  3.113015  2.740990
N    -3.341080  -0.720021  4.980204
C    -2.768021  -0.170572  6.195718
H    -4.174969  -1.292927  5.066083
H    -2.951089  -0.867391  7.022362
H    -3.200455  0.805577  6.464706
H    -1.682109  -0.055647  6.098704
