23
Energy: -15542.99111 eV PBE+vdW (tier 2 basis)
C    0.300269  0.216528  0.134312
C    0.118900  0.236275  1.636804
O    1.010298  0.664518  2.386480
H    1.140100  -0.447322  -0.108026
H    0.572350  1.223824  -0.202767
H    -0.589011  -0.122189  -0.409756
N    -1.058830  -0.250682  2.095482
C    -1.406288  -0.369303  3.500116
C    -2.776365  -1.057623  3.538711
O    -3.500794  -1.090854  2.540663
H    -1.815833  -0.512060  1.463380
H    -0.656315  -0.995766  4.010498
C    -1.424131  0.999995  4.250257
O    -0.164786  1.335543  4.785435
H    -2.131918  0.963410  5.090569
H    -1.801049  1.757786  3.537950
H    0.476438  1.215108  4.043140
N    -3.166699  -1.592156  4.727924
C    -2.349782  -1.822618  5.911797
H    -4.072263  -2.049204  4.680563
H    -1.738324  -0.946593  6.154458
H    -1.683816  -2.692266  5.797080
H    -3.014153  -2.007350  6.762926
