23
Energy: -15542.8279907 eV PBE+vdW (tier 2 basis)
C    0.067534  0.017457  0.035905
C    0.010615  0.001089  1.551730
O    1.022216  -0.068585  2.248386
H    0.558995  -0.901704  -0.306612
H    0.691699  0.860718  -0.284314
H    -0.916535  0.097744  -0.441625
N    -1.244711  0.074183  2.089323
C    -1.479447  -0.006979  3.514649
C    -2.832266  -0.696427  3.716657
O    -3.728286  -0.571243  2.877061
H    -2.079996  0.048237  1.509602
H    -0.648561  -0.566999  3.964077
C    -1.493748  1.424824  4.123341
O    -1.692681  1.460604  5.533731
H    -2.250999  2.022570  3.589231
H    -0.506905  1.865765  3.935547
H    -2.639511  1.348975  5.710151
N    -3.026913  -1.388599  4.874186
C    -2.019986  -1.808890  5.844338
H    -3.936928  -1.839550  4.913951
H    -2.536681  -2.169652  6.740467
H    -1.388352  -0.964974  6.140025
H    -1.385771  -2.622519  5.460100
