23
Energy: -15542.5014692 eV PBE+vdW (tier 2 basis)
C    -0.332145  0.026811  -0.167490
C    -0.164031  0.352952  1.305364
O    0.842515  0.913542  1.734625
H    0.586872  -0.447840  -0.529440
H    -0.456939  0.967850  -0.719467
H    -1.186489  -0.625502  -0.385010
N    -1.207816  -0.033941  2.105551
C    -1.357259  0.324943  3.519560
C    -1.819504  1.806703  3.642126
O    -3.005375  2.030462  3.376530
H    -2.054660  -0.335806  1.638653
H    -2.266614  -0.204254  3.842853
C    -0.210531  -0.223264  4.385246
O    -0.410197  0.060416  5.769463
H    0.753644  0.211345  4.114160
H    -0.144568  -1.309531  4.197598
H    -1.221430  -0.382401  6.064002
N    -0.981079  2.815524  3.987343
C    0.439533  2.826076  4.318725
H    -1.470086  3.705530  4.011663
H    0.632752  2.353272  5.291326
H    0.756808  3.872783  4.376157
H    1.026046  2.332740  3.535107
