23
Energy: -15542.9032503 eV PBE+vdW (tier 2 basis)
C    -0.179002  0.701813  0.798589
C    -0.203452  -0.483519  1.743985
O    0.803646  -0.908580  2.299387
H    -0.918587  1.467036  1.071216
H    -0.393401  0.386145  -0.232543
H    0.823405  1.135929  0.829824
N    -1.432303  -1.069701  1.983284
C    -2.703252  -0.792958  1.337274
C    -3.666688  0.072823  2.174297
O    -4.830579  0.255337  1.792005
H    -1.369342  -1.902864  2.565541
H    -2.523800  -0.238003  0.405712
C    -3.410927  -2.113076  0.942247
O    -4.546362  -1.900262  0.136503
H    -3.661781  -2.672120  1.868770
H    -2.700275  -2.724510  0.367566
H    -5.035041  -1.160554  0.563684
N    -3.158496  0.596073  3.312644
C    -3.928811  1.428852  4.216586
H    -2.199019  0.351390  3.536755
H    -4.034928  0.951405  5.200260
H    -4.922857  1.567851  3.778966
H    -3.452146  2.409494  4.347449
