23
Energy: -15542.5974407 eV PBE+vdW (tier 2 basis)
C    0.481145  0.758188  1.085480
C    -0.284892  -0.449962  1.576249
O    0.271788  -1.509365  1.842749
H    0.480268  1.555014  1.843090
H    0.050684  1.151285  0.157773
H    1.513835  0.444506  0.911505
N    -1.654295  -0.345755  1.815080
C    -2.665288  0.603102  1.356751
C    -2.878625  0.599180  -0.174595
O    -1.954780  0.476135  -0.971994
H    -2.018251  -1.250582  2.101578
H    -3.595351  0.269491  1.842664
C    -2.416644  2.040452  1.862815
O    -2.269665  2.079053  3.273082
H    -3.290769  2.659344  1.618467
H    -1.547189  2.481647  1.348834
H    -1.671271  1.349497  3.513124
N    -4.178037  0.787628  -0.550073
C    -4.587978  0.892556  -1.938710
H    -4.886182  0.846536  0.171896
H    -5.058616  1.864272  -2.142138
H    -5.291087  0.092043  -2.206418
H    -3.687959  0.794638  -2.554599
