23
Energy: -15542.9099515 eV PBE+vdW (tier 2 basis)
C    -0.148796  0.094531  -0.048955
C    0.011695  0.219907  1.452696
O    1.110985  0.473770  1.960289
H    0.460115  -0.751635  -0.392328
H    0.251904  0.998238  -0.523358
H    -1.183409  -0.058046  -0.378641
N    -1.129306  0.053755  2.180449
C    -1.282150  -0.063905  3.634714
C    -0.864281  1.113823  4.533175
O    -1.383823  1.180385  5.658198
H    -1.971070  -0.134407  1.650151
H    -2.362066  -0.161298  3.807958
C    -0.631602  -1.353993  4.208916
O    -1.122199  -1.647493  5.502542
H    0.467895  -1.246439  4.197135
H    -0.896491  -2.196840  3.553507
H    -1.232762  -0.790803  5.967497
N    0.079581  1.964226  4.084449
C    0.605664  3.017083  4.935973
H    0.626827  1.645775  3.274223
H    1.357163  2.636220  5.644782
H    -0.211296  3.458825  5.516595
H    1.066423  3.788324  4.309036
