23
Energy: -15542.9386369 eV PBE+vdW (tier 2 basis)
C    0.820548  0.683894  1.125376
C    0.024720  0.316001  2.359251
O    0.576718  0.098031  3.446198
H    1.589932  -0.079279  0.957849
H    1.336452  1.634113  1.313716
H    0.209197  0.783618  0.220643
N    -1.323322  0.229279  2.195085
C    -2.258323  0.115360  3.316325
C    -2.409747  -1.345252  3.829601
O    -3.474620  -1.956840  3.731721
H    -1.717022  0.568615  1.323897
H    -1.861782  0.732139  4.139966
C    -3.622490  0.641781  2.892235
O    -3.438141  1.962354  2.362442
H    -4.285422  0.641227  3.770259
H    -4.064086  -0.036737  2.143773
H    -4.304757  2.294388  2.086337
N    -1.281170  -1.834835  4.396081
C    -1.182053  -3.194014  4.887942
H    -0.446515  -1.239385  4.338676
H    -0.498914  -3.795088  4.269756
H    -2.179458  -3.644821  4.852704
H    -0.817744  -3.206550  5.924166
