23
Energy: -15542.755833 eV PBE+vdW (tier 2 basis)
C    1.146315  -0.154086  0.720911
C    0.543319  0.363906  2.010149
O    1.114654  1.195310  2.715400
H    0.610240  -1.012538  0.297834
H    2.190868  -0.431523  0.902891
H    1.144479  0.660253  -0.015490
N    -0.676368  -0.167081  2.343660
C    -1.460134  0.356064  3.452470
C    -1.996221  -0.804447  4.309743
O    -3.178071  -1.145446  4.265283
H    -1.151899  -0.753531  1.666320
H    -0.748764  0.960191  4.036385
C    -2.603348  1.268134  2.981225
O    -2.149890  2.293785  2.104167
H    -3.114081  1.678560  3.869490
H    -3.347231  0.687830  2.421409
H    -1.427014  2.775265  2.537927
N    -1.096820  -1.440481  5.117235
C    0.346448  -1.272451  5.176935
H    -1.498923  -2.240054  5.598684
H    0.631834  -0.228971  5.005385
H    0.869488  -1.889361  4.429487
H    0.698121  -1.557324  6.175501
