23
Energy: -15542.7170187 eV PBE+vdW (tier 2 basis)
C    0.051753  0.068344  1.430446
C    -0.711675  0.099789  2.739145
O    -0.250341  0.632741  3.743639
H    1.120453  0.069317  1.665833
H    -0.165399  0.987813  0.868451
H    -0.185643  -0.785934  0.787269
N    -1.964242  -0.489706  2.790578
C    -2.772862  -1.097240  1.731262
C    -2.184877  -2.395679  1.128946
O    -2.508943  -2.771886  0.005203
H    -2.411398  -0.348680  3.691996
H    -3.703186  -1.408963  2.232296
C    -3.200392  -0.109214  0.629823
O    -3.917401  0.996087  1.167491
H    -3.879784  -0.627009  -0.054517
H    -2.330314  0.220604  0.038895
H    -3.317246  1.489957  1.749107
N    -1.349080  -3.084048  1.952657
C    -0.729583  -4.338573  1.572612
H    -1.124979  -2.663011  2.847536
H    -1.099103  -4.602961  0.576135
H    -0.994982  -5.138978  2.276602
H    0.365153  -4.247570  1.535699
