23
Energy: -15542.7019114 eV PBE+vdW (tier 2 basis)
C    0.610918  -1.575607  0.865908
C    0.437551  -0.700174  2.092535
O    1.380950  -0.398498  2.818839
H    1.291418  -1.069835  0.169346
H    -0.328851  -1.797255  0.345489
H    1.088845  -2.515395  1.167619
N    -0.843007  -0.253812  2.308331
C    -1.194760  0.478264  3.503765
C    -2.244555  -0.322856  4.291246
O    -3.084080  -1.005542  3.702260
H    -1.614117  -0.716986  1.835619
H    -0.258928  0.605914  4.066106
C    -1.768721  1.868429  3.191025
O    -0.720742  2.673972  2.662470
H    -2.180775  2.308261  4.119069
H    -2.601179  1.756289  2.474988
H    -1.116802  3.436473  2.216065
N    -2.225097  -0.207720  5.647528
C    -1.240700  0.488398  6.464580
H    -2.953776  -0.737768  6.115119
H    -1.246401  1.573450  6.287323
H    -0.223218  0.110283  6.293289
H    -1.489972  0.321714  7.517482
