23
Energy: -15542.3037054 eV PBE+vdW (tier 2 basis)
C    0.373746  0.691029  0.905539
C    0.094764  -0.611149  1.622210
O    0.990103  -1.403763  1.899059
H    0.551392  1.479880  1.652163
H    -0.436314  1.011682  0.244683
H    1.294366  0.559775  0.330072
N    -1.192210  -0.874156  2.068848
C    -2.471537  -0.312109  1.670182
C    -2.807254  -0.629689  0.179148
O    -1.937082  -0.967194  -0.612006
H    -1.236679  -1.806022  2.471555
H    -3.208480  -0.854711  2.280288
C    -2.646074  1.189462  2.016890
O    -2.629783  1.979593  0.824055
H    -1.833677  1.473731  2.702267
H    -3.601017  1.332703  2.550992
H    -2.504664  2.906480  1.074928
N    -4.125284  -0.583249  -0.182593
C    -5.252350  -0.058445  0.567421
H    -4.257968  -0.737310  -1.177799
H    -6.178416  -0.402801  0.093832
H    -5.264691  1.042279  0.598363
H    -5.256851  -0.441066  1.596751
