23
Energy: -15542.9393778 eV PBE+vdW (tier 2 basis)
C    -1.798278  -0.476741  0.323674
C    -1.164233  -0.861454  1.646673
O    -1.063090  -2.030557  2.014349
H    -1.280541  -1.007287  -0.484698
H    -1.773006  0.600702  0.121372
H    -2.841111  -0.818348  0.322370
N    -0.694095  0.185236  2.396986
C    -0.230948  -0.004590  3.757556
C    -0.490942  1.323908  4.495964
O    -0.907192  2.316306  3.896394
H    -0.987063  1.144166  2.202773
H    -0.811420  -0.819701  4.224444
C    1.256693  -0.415733  3.784520
O    2.116102  0.591725  3.270288
H    1.352867  -1.363664  3.230078
H    1.586882  -0.599613  4.817129
H    1.831659  0.771771  2.358853
N    -0.232806  1.306179  5.827957
C    -0.348824  2.482618  6.670226
H    0.131627  0.453551  6.235460
H    0.637167  2.831624  7.008581
H    -0.975390  2.273214  7.547136
H    -0.817058  3.272688  6.074913
