23
Energy: -15542.9789332 eV PBE+vdW (tier 2 basis)
C    -0.317228  -0.219567  0.053169
C    -0.621601  -0.560412  1.498399
O    -0.717526  -1.726598  1.888319
H    -0.228616  0.856628  -0.137554
H    -1.113717  -0.630348  -0.579889
H    0.618105  -0.714630  -0.235089
N    -0.776739  0.508042  2.331043
C    -1.036422  0.382634  3.755941
C    -2.544940  0.531871  4.043457
O    -3.070026  1.657885  4.044358
H    -0.689802  1.457400  1.980336
H    -0.666003  -0.601100  4.071158
C    -0.276635  1.492632  4.505171
O    -0.587236  2.781165  3.997381
H    0.803226  1.340850  4.368760
H    -0.500254  1.413325  5.585219
H    -1.571002  2.822223  4.030698
N    -3.275836  -0.579689  4.292162
C    -2.841731  -1.970997  4.350667
H    -4.250984  -0.374862  4.494259
H    -3.701762  -2.611128  4.123713
H    -2.466356  -2.241797  5.349477
H    -2.068914  -2.165525  3.596845
