23
Energy: -15542.6951666 eV PBE+vdW (tier 2 basis)
C    -0.783558  0.141008  0.097881
C    -0.144471  -0.566430  1.276568
O    0.665260  -1.475404  1.138274
H    -0.437795  1.182589  0.046757
H    -1.881170  0.144629  0.157029
H    -0.478256  -0.381703  -0.812096
N    -0.533044  -0.169812  2.543158
C    -1.273054  1.019814  2.900361
C    -0.339294  2.269306  2.998405
O    0.752310  2.278840  2.437707
H    0.073666  -0.564265  3.259316
H    -1.985708  1.231310  2.086847
C    -2.098483  0.709408  4.169129
O    -3.045880  1.730394  4.518577
H    -1.433081  0.616909  5.039593
H    -2.600379  -0.259013  4.024260
H    -3.805189  1.658499  3.919532
N    -0.850001  3.314694  3.701354
C    -0.134676  4.566193  3.866996
H    -1.758000  3.183194  4.145589
H    -0.734819  5.412394  3.504938
H    0.789691  4.506652  3.283275
H    0.122290  4.742276  4.921266
