23
Energy: -15542.699699 eV PBE+vdW (tier 2 basis)
C    0.058184  0.041088  -0.025348
C    0.096779  0.107893  1.491321
O    1.167431  0.265152  2.083276
H    0.618440  0.891757  -0.429918
H    -0.952500  0.038060  -0.451673
H    0.575432  -0.873951  -0.342285
N    -1.123673  -0.004149  2.096685
C    -1.501534  -0.161805  3.513548
C    -1.003810  0.868391  4.562737
O    -1.747113  1.103521  5.519833
H    -1.903905  -0.096544  1.457926
H    -2.587413  0.001287  3.529158
C    -1.301707  -1.591086  4.034430
O    0.088705  -1.890259  4.103341
H    -1.825812  -2.288172  3.353585
H    -1.782556  -1.642148  5.026095
H    0.193049  -2.742991  4.549990
N    0.209842  1.417311  4.378008
C    0.775810  2.335684  5.346268
H    0.789696  1.032962  3.615805
H    1.562134  2.925986  4.862695
H    1.209095  1.806370  6.209476
H    -0.005648  3.006101  5.722667
