23
Energy: -15542.8247842 eV PBE+vdW (tier 2 basis)
C    0.208933  0.539723  0.318044
C    0.039460  0.418318  1.820149
O    0.994186  0.407433  2.591017
H    0.647188  -0.393568  -0.060135
H    0.919929  1.345827  0.104566
H    -0.730349  0.730090  -0.215032
N    -1.267939  0.340902  2.251343
C    -1.595560  -0.037473  3.613854
C    -2.448200  -1.312212  3.573290
O    -3.163207  -1.557601  2.599333
H    -1.987983  0.095742  1.573080
H    -0.641830  -0.181854  4.140280
C    -2.388037  1.090276  4.313499
O    -1.630722  2.280147  4.441267
H    -2.659883  0.787162  5.334058
H    -3.325914  1.259764  3.752306
H    -1.276610  2.492812  3.561206
N    -2.419378  -2.115481  4.671519
C    -1.546931  -2.002736  5.832044
H    -3.030584  -2.923103  4.603666
H    -0.485484  -1.993659  5.547947
H    -1.715747  -2.873529  6.473489
H    -1.758337  -1.102981  6.427214
