23
Energy: -15542.3923121 eV PBE+vdW (tier 2 basis)
C    -0.066390  0.146479  0.559163
C    0.136554  -0.410459  1.954623
O    1.256468  -0.524090  2.443759
H    -0.600704  1.107517  0.586089
H    -0.610597  -0.573385  -0.067029
H    0.921326  0.319266  0.123960
N    -0.968760  -0.748265  2.713647
C    -2.370943  -0.922752  2.367871
C    -2.604071  -2.145429  1.437795
O    -1.707791  -2.588895  0.727020
H    -0.678438  -1.170867  3.590465
H    -2.861749  -1.137057  3.328409
C    -3.065656  0.356026  1.800385
O    -3.364517  0.323988  0.411341
H    -2.444416  1.225047  2.072205
H    -4.037224  0.486090  2.292697
H    -2.529420  0.298247  -0.083330
N    -3.840862  -2.723217  1.468111
C    -5.058083  -2.224677  2.085164
H    -3.940257  -3.456810  0.771999
H    -5.782384  -3.044685  2.143702
H    -5.511985  -1.398604  1.516055
H    -4.871375  -1.886205  3.112517
