23
Energy: -15542.7827852 eV PBE+vdW (tier 2 basis)
C    0.474112  -1.251334  0.898208
C    -0.030978  0.122806  1.305064
O    0.669710  1.126103  1.218899
H    1.547446  -1.168898  0.708519
H    -0.015872  -1.582445  -0.029730
H    0.290369  -2.014182  1.665555
N    -1.317456  0.208261  1.793215
C    -2.341221  -0.818099  1.809849
C    -3.643659  -0.223121  1.247050
O    -3.905163  0.969572  1.385587
H    -1.670860  1.159127  1.907468
H    -2.010960  -1.671482  1.202590
C    -2.598883  -1.317052  3.255560
O    -1.420799  -1.824172  3.861373
H    -3.322312  -2.143833  3.244056
H    -3.033654  -0.488895  3.842468
H    -0.799658  -1.080337  3.938326
N    -4.480778  -1.121428  0.657942
C    -5.788583  -0.759111  0.140377
H    -4.162660  -2.077593  0.554209
H    -6.580988  -1.347020  0.623066
H    -5.841924  -0.910763  -0.946440
H    -5.946310  0.302169  0.357910
