27
Energy: -570008.408357 eV PBE+vdW (tier 2 basis)
C    -0.562703  -0.602017  -0.021972
C    -0.609423  0.217048  1.235673
O    0.019040  1.264980  1.387932
H    -0.325620  0.045696  -0.871688
H    -1.499619  -1.142949  -0.205510
H    0.250412  -1.337871  0.078783
N    -1.420652  -0.239891  2.264651
C    -1.424498  0.295771  3.614404
C    -1.972263  1.732094  3.735271
O    -1.896008  2.401780  4.820259
H    -1.972356  -1.077529  2.093335
H    -2.163656  -0.316226  4.159467
C    -0.067638  0.041697  4.359307
O    -0.479856  -0.330818  5.735019
C    1.012275  1.104053  4.345919
H    0.331321  -0.895255  3.933722
H    0.279502  -0.745793  6.195189
H    0.673625  2.063197  4.761322
H    1.345009  1.293372  3.318276
H    1.885479  0.758435  4.915279
N    -2.568524  2.288649  2.694956
C    -3.196972  3.607426  2.685652
H    -2.477530  1.801397  1.804424
H    -3.577196  3.843694  3.683894
H    -4.010651  3.595001  1.952874
H    -2.463809  4.372192  2.389709
Hg    -1.506691  1.520864  6.866854
