27
Energy: -570008.519145 eV PBE+vdW (tier 2 basis)
C    -0.534296  1.722930  0.034995
C    -0.312273  1.125140  1.392953
O    0.879649  0.667824  1.574514
H    0.110958  2.604804  -0.079809
H    -1.584437  1.999866  -0.116422
H    -0.232182  0.996071  -0.731298
N    -1.318921  1.108087  2.256554
C    -1.500479  0.458047  3.557909
C    -3.060402  0.216841  3.607027
O    -3.774120  1.054293  3.059347
H    -2.206624  1.530688  1.945220
H    -0.996631  -0.521688  3.575335
C    -1.009702  1.319307  4.766994
O    0.211944  0.629962  5.272696
C    -1.956551  1.484926  5.943475
H    -0.720834  2.309379  4.386537
H    0.518761  1.072610  6.092250
H    -2.862851  2.007235  5.603264
H    -1.498390  2.122286  6.711769
H    -2.242648  0.528573  6.396483
N    -3.492176  -0.873121  4.255159
C    -4.910239  -1.219194  4.365625
H    -2.813012  -1.546624  4.599555
H    -5.086792  -1.681845  5.343022
H    -5.195171  -1.932148  3.578478
H    -5.510080  -0.310753  4.256748
Hg    1.714497  0.263499  3.530619
