27
Energy: -570008.82933 eV PBE+vdW (tier 2 basis)
C    0.521163  0.087444  0.166097
C    0.470288  0.107758  1.661263
O    1.588031  -0.100137  2.247232
H    -0.273539  0.701481  -0.277741
H    0.376042  -0.955226  -0.160089
H    1.499573  0.426838  -0.187184
N    -0.717919  0.339529  2.250845
C    -1.286447  -0.061889  3.567778
C    -1.138842  1.013307  4.663485
O    -0.028479  1.253972  5.273562
H    -1.447161  0.531307  1.567633
H    -2.358533  -0.154813  3.358005
C    -0.862398  -1.482548  4.052297
O    -0.849490  -2.269731  2.895621
C    -1.772502  -1.982611  5.169186
H    0.185620  -1.450499  4.486346
H    -0.839670  -3.215296  3.129820
H    -1.448452  -2.976746  5.503573
H    -2.809291  -2.061754  4.814643
H    -1.737422  -1.325926  6.049355
N    -2.192288  1.707475  5.047768
C    -3.592423  1.607625  4.604584
H    -1.999646  2.381508  5.793099
H    -4.126090  2.470960  5.012514
H    -4.063332  0.694727  4.989695
H    -3.667576  1.650516  3.512525
Hg    1.695340  0.275083  4.374678
