27
Energy: -570008.405901 eV PBE+vdW (tier 2 basis)
C    0.210901  0.887763  -0.125473
C    -0.031810  0.300020  1.228629
O    0.554546  0.685227  2.249127
H    -0.261628  1.881896  -0.147544
H    -0.206755  0.280008  -0.936122
H    1.286409  1.035609  -0.276312
N    -0.960783  -0.711164  1.348357
C    -1.346822  -1.245889  2.641343
C    -0.244661  -2.153162  3.268471
O    -0.225755  -3.425031  3.199498
H    -1.278997  -1.176488  0.501456
H    -1.432704  -0.388785  3.330700
C    -2.750338  -1.894416  2.520476
O    -3.004193  -2.432472  3.862730
C    -2.963714  -2.930107  1.422023
H    -3.468630  -1.072531  2.371896
H    -3.960794  -2.388649  4.059627
H    -3.944031  -3.407425  1.552747
H    -2.183419  -3.702396  1.389291
H    -3.008554  -2.455306  0.431922
N    0.763471  -1.501537  3.848658
C    1.962865  -2.121595  4.379069
H    0.758994  -0.476518  3.734535
H    2.791363  -2.018176  3.658539
H    1.788987  -3.186533  4.558462
H    2.250933  -1.592560  5.296516
Hg    -1.912340  -4.622218  4.169720
