27
Energy: -570008.76827 eV PBE+vdW (tier 2 basis)
C    -0.682420  -1.103557  -0.145285
C    -0.388186  -1.162837  1.320078
O    0.846888  -1.328200  1.620824
H    -0.004489  -1.761402  -0.698336
H    -0.509262  -0.069071  -0.483679
H    -1.726146  -1.370162  -0.356342
N    -1.407719  -1.032370  2.186023
C    -1.347161  -0.585547  3.587970
C    -1.248182  -1.743502  4.607398
O    -0.099938  -1.995349  5.155315
H    -2.303683  -0.855969  1.731481
H    -0.413892  -0.008639  3.717062
C    -2.441738  0.491702  3.843689
O    -2.125334  1.453942  2.848174
C    -2.382764  1.034296  5.265669
H    -3.438654  0.055794  3.645706
H    -2.648962  2.261523  2.988960
H    -2.608226  0.267785  6.020063
H    -3.136992  1.822857  5.386238
H    -1.400105  1.471854  5.486309
N    -2.258554  -2.493986  4.995900
C    -3.689372  -2.417437  4.683642
H    -1.993153  -3.209186  5.679508
H    -3.850292  -2.094572  3.651900
H    -4.204069  -1.740692  5.378142
H    -4.104553  -3.423513  4.804257
Hg    1.457961  -1.622764  3.680337
