27
Energy: -570008.458884 eV PBE+vdW (tier 2 basis)
C    0.454142  1.002186  0.190218
C    0.094354  0.252767  1.437531
O    0.455142  0.575796  2.563382
H    0.553121  0.344022  -0.682122
H    1.382598  1.558315  0.352632
H    -0.346006  1.732433  -0.010635
N    -0.712903  -0.884374  1.301938
C    -1.230009  -1.539893  2.476748
C    -0.355260  -2.719618  2.964878
O    -0.625332  -3.387301  4.023337
H    -1.063817  -1.129682  0.377562
H    -1.144844  -0.788812  3.288218
C    -2.730881  -1.894708  2.281713
O    -3.355976  -1.668694  3.601477
C    -3.043827  -3.258393  1.700189
H    -3.153368  -1.100321  1.642112
H    -4.330804  -1.708730  3.509794
H    -4.124758  -3.381948  1.555789
H    -2.678656  -4.081674  2.329127
H    -2.583691  -3.364992  0.706901
N    0.714251  -3.037502  2.271179
C    1.689270  -4.074545  2.625855
H    0.846631  -2.516926  1.402758
H    1.363264  -5.050196  2.242398
H    1.790052  -4.127736  3.714256
H    2.648989  -3.810411  2.172212
Hg    -2.324682  -2.889064  5.392552
