27
Energy: -570009.281836 eV PBE+vdW (tier 2 basis)
C    0.907058  -0.545593  0.308036
C    0.246008  -0.037305  1.548242
O    0.439367  1.210865  1.797351
H    0.485534  -0.008922  -0.555940
H    0.754318  -1.621652  0.168009
H    1.978799  -0.311054  0.338702
N    -0.481060  -0.882355  2.290261
C    -1.542140  -0.607421  3.279224
C    -1.016886  -0.609053  4.737693
O    -0.647639  0.496210  5.315267
H    -0.471268  -1.863415  1.998734
H    -1.963079  0.394362  3.096258
C    -2.703828  -1.613770  3.038885
O    -2.067004  -2.899982  3.153916
C    -3.413349  -1.411091  1.710365
H    -3.421641  -1.467615  3.865511
H    -2.685824  -3.605417  2.894587
H    -4.219052  -2.150361  1.608853
H    -2.740893  -1.526726  0.850505
H    -3.886697  -0.421088  1.663400
N    -0.988091  -1.733367  5.407178
C    -0.537455  -1.893861  6.791948
H    -1.359996  -2.551412  4.898589
H    -1.404674  -1.880029  7.466141
H    0.141049  -1.079873  7.061170
H    -0.032873  -2.861513  6.879581
Hg    0.031053  1.869890  3.806566
