27
Energy: -570008.414542 eV PBE+vdW (tier 2 basis)
C    0.686727  0.346284  -0.228582
C    0.405770  0.050590  1.214972
O    1.286516  -0.709225  1.773168
H    0.803769  -0.601172  -0.772508
H    1.638977  0.888165  -0.307776
H    -0.121375  0.932168  -0.682828
N    -0.681538  0.563532  1.774566
C    -1.317851  0.332772  3.073383
C    -2.839317  0.630800  2.774965
O    -3.077155  1.484741  1.922322
H    -1.280047  1.158219  1.181496
H    -1.224432  -0.724929  3.365815
C    -0.761062  1.244938  4.215692
O    -0.058797  0.319209  5.150464
C    -1.758406  2.056711  5.024363
H    -0.017648  1.924031  3.774147
H    0.243324  0.819605  5.938272
H    -2.275310  2.756861  4.351242
H    -1.233502  2.669060  5.769878
H    -2.503987  1.435602  5.533687
N    -3.777200  -0.039111  3.459930
C    -3.617356  -1.163730  4.377964
H    -4.729391  0.198243  3.175761
H    -2.773415  -1.009006  5.060409
H    -3.491171  -2.112757  3.836191
H    -4.526785  -1.240109  4.983112
Hg    1.473664  -0.933491  3.916899
