27
Energy: -570008.461098 eV PBE+vdW (tier 2 basis)
C    0.566466  -0.256019  0.288448
C    -0.272500  -1.055678  1.238003
O    -0.185671  -2.270180  1.385503
H    0.029668  0.607635  -0.123779
H    0.923652  -0.901556  -0.519804
H    1.445428  0.111578  0.841933
N    -1.215881  -0.370736  2.011866
C    -1.912376  -1.054685  3.071789
C    -3.185835  -1.809626  2.604885
O    -3.838213  -2.602687  3.368800
H    -1.330668  0.632596  1.880031
H    -1.235621  -1.857643  3.419538
C    -2.163434  -0.063631  4.243680
O    -2.037830  -0.875244  5.469364
C    -3.448599  0.738078  4.190658
H    -1.291567  0.612947  4.271212
H    -1.956043  -0.281524  6.244637
H    -3.513317  1.430823  5.039284
H    -4.344540  0.100460  4.191641
H    -3.481273  1.354359  3.280616
N    -3.582777  -1.663601  1.360711
C    -4.719981  -2.351831  0.737813
H    -2.977849  -1.094784  0.767570
H    -4.415798  -3.352432  0.403668
H    -5.044066  -1.763751  -0.125509
H    -5.538809  -2.442162  1.457578
Hg    -3.600914  -2.692326  5.590479
