27
Energy: -570008.210795 eV PBE+vdW (tier 2 basis)
C    -0.977270  -1.119031  -0.079540
C    -0.998429  -0.387114  1.234563
O    -0.026322  -0.364343  1.991450
H    -1.986574  -1.362940  -0.433585
H    -0.381186  -2.031927  0.024263
H    -0.476747  -0.479271  -0.821525
N    -2.151359  0.284675  1.581872
C    -2.193098  1.134073  2.761198
C    -3.366176  0.752350  3.681490
O    -4.376522  1.509711  3.913180
H    -2.918290  0.305171  0.914265
H    -1.265985  0.903620  3.314829
C    -2.093541  2.630537  2.354450
O    -2.008530  3.375291  3.619775
C    -3.152654  3.180275  1.408611
H    -1.105591  2.746739  1.878750
H    -1.484000  4.189945  3.486766
H    -2.993136  4.255511  1.254484
H    -4.178474  3.011208  1.763887
H    -3.061782  2.719045  0.416321
N    -3.392372  -0.453989  4.242350
C    -2.493289  -1.585338  4.046346
H    -4.217614  -0.617113  4.825812
H    -2.595158  -2.247268  4.912796
H    -1.452118  -1.253938  3.958051
H    -2.771685  -2.153021  3.145024
Hg    -4.177555  3.628115  4.663282
