27
Energy: -570008.495525 eV PBE+vdW (tier 2 basis)
C    -0.795904  -0.879011  0.037002
C    -0.859069  0.098005  1.172220
O    -0.487962  1.282041  1.014391
H    -1.325178  -1.814690  0.251764
H    0.261722  -1.101632  -0.168386
H    -1.209114  -0.411089  -0.864399
N    -1.338033  -0.337125  2.368573
C    -1.271905  0.318367  3.679862
C    -1.898106  1.716692  3.805107
O    -2.427461  2.082137  4.925352
H    -1.656712  -1.302323  2.395334
H    -1.885406  -0.316927  4.332411
C    0.179779  0.276610  4.277683
O    -0.011189  0.062531  5.727826
C    1.075257  1.458179  3.976943
H    0.641410  -0.656551  3.914228
H    0.859702  -0.106383  6.141847
H    0.652126  2.405045  4.349256
H    1.217637  1.566845  2.893109
H    2.068179  1.320295  4.424352
N    -1.935834  2.542846  2.784371
C    -2.429851  3.912073  2.800537
H    -1.491890  2.166121  1.900351
H    -3.477596  3.926052  2.460490
H    -1.837396  4.496506  2.086677
H    -2.375401  4.338462  3.805893
Hg    -1.360808  1.746928  6.831203
