27
Energy: -570008.417691 eV PBE+vdW (tier 2 basis)
C    0.131378  -0.042437  -0.121740
C    -0.735119  0.137229  1.087804
O    -1.932968  -0.204963  1.087418
H    0.417933  -1.103360  -0.183144
H    1.040591  0.569618  -0.078737
H    -0.444150  0.196772  -1.022422
N    -0.179320  0.686237  2.210361
C    -0.788501  0.601181  3.537917
C    -1.949352  1.618759  3.734831
O    -2.038258  2.483864  4.678785
H    0.787695  0.991535  2.146381
H    -1.277085  -0.385874  3.620133
C    0.347319  0.609451  4.591741
O    -0.289240  0.214417  5.854406
C    1.186699  1.872337  4.719424
H    1.003742  -0.235700  4.324133
H    0.387426  -0.158623  6.453418
H    0.586048  2.766414  4.935112
H    1.743857  2.079723  3.794480
H    1.944937  1.745167  5.502860
N    -2.902878  1.577947  2.821313
C    -4.144401  2.333468  2.829964
H    -2.709962  0.920281  2.016049
H    -4.428134  2.609795  3.849021
H    -4.919031  1.718501  2.355113
H    -4.027689  3.248473  2.226774
Hg    -1.616537  2.009789  6.814603
