27
Energy: -570008.288649 eV PBE+vdW (tier 2 basis)
C    0.123915  -0.865295  1.052673
C    -0.680226  -0.117434  2.067032
O    -0.487057  -0.104445  3.272274
H    0.769647  -1.585474  1.562606
H    0.757828  -0.165869  0.486167
H    -0.528003  -1.382749  0.334194
N    -1.760606  0.661850  1.576197
C    -2.402604  1.562231  2.460617
C    -3.019230  0.882444  3.739711
O    -3.043661  1.543038  4.826358
H    -1.823469  0.825093  0.570632
H    -1.615512  2.211054  2.941494
C    -3.361417  2.551582  1.754604
O    -3.723431  3.520622  2.767185
C    -4.623619  1.948117  1.144496
H    -2.763442  3.046730  0.969940
H    -4.123606  4.304826  2.345427
H    -5.209990  2.729458  0.645043
H    -5.255446  1.473331  1.904410
H    -4.356927  1.212012  0.372181
N    -3.596299  -0.305992  3.731222
C    -3.822557  -1.277960  2.658117
H    -3.936902  -0.592015  4.652395
H    -4.821151  -1.705946  2.797747
H    -3.075168  -2.080018  2.728583
H    -3.771978  -0.816583  1.671681
Hg    -2.094089  3.571392  4.749010
