27
Energy: -570008.295535 eV PBE+vdW (tier 2 basis)
C    -0.579047  1.606789  0.089235
C    -0.447814  1.048254  1.472069
O    0.636179  0.438396  1.747073
H    -1.597972  1.951411  -0.123852
H    -0.297407  0.831053  -0.635536
H    0.131156  2.437042  -0.033670
N    -1.473420  1.194149  2.331402
C    -1.595471  0.573028  3.641916
C    -3.000249  -0.146721  3.754557
O    -2.987856  -1.361732  3.893089
H    -2.255454  1.744455  1.980142
H    -0.900715  -0.276130  3.668487
C    -1.303656  1.492723  4.841834
O    0.026887  2.064083  4.559816
C    -1.351192  0.759279  6.168122
H    -1.984846  2.362724  4.854434
H    0.253356  2.707473  5.261568
H    -1.068635  1.430588  6.989253
H    -0.682856  -0.113145  6.173324
H    -2.367285  0.403807  6.386978
N    -4.116580  0.604905  3.666131
C    -5.454652  0.019098  3.790788
H    -4.044524  1.616234  3.754160
H    -6.169363  0.679720  3.289077
H    -5.744439  -0.087554  4.846288
H    -5.451952  -0.973430  3.326873
Hg    1.766723  0.582396  3.678936
