27
Energy: -570009.303187 eV PBE+vdW (tier 2 basis)
C    1.014140  -1.295480  0.156814
C    0.665750  -0.779562  1.522633
O    1.542913  -0.965845  2.420603
H    0.331183  -0.939466  -0.622824
H    0.991025  -2.394791  0.185660
H    2.041335  -0.999668  -0.089075
N    -0.523755  -0.159803  1.659092
C    -1.257047  0.417390  2.810131
C    -0.505532  1.560250  3.535989
O    0.272221  1.385453  4.534614
H    -1.046855  -0.119404  0.788433
H    -2.120374  0.904816  2.336932
C    -1.922500  -0.614448  3.768206
O    -0.903731  -1.565638  4.214601
C    -3.061571  -1.375218  3.112701
H    -2.286595  -0.046995  4.640248
H    -1.321323  -2.236969  4.787367
H    -3.503197  -2.088417  3.822042
H    -2.727089  -1.932786  2.228862
H    -3.868356  -0.687472  2.823315
N    -0.753442  2.794555  3.128635
C    -0.149530  3.998897  3.708674
H    -1.461785  2.934328  2.411115
H    0.849998  3.762094  4.084472
H    -0.767867  4.368247  4.537827
H    -0.092553  4.765829  2.930265
Hg    1.255537  -0.604898  4.584669
