27
Energy: -570008.930877 eV PBE+vdW (tier 2 basis)
C    -0.309779  -1.688286  0.410414
C    -0.231247  -0.797986  1.610233
O    0.910808  -0.232911  1.787318
H    -0.141710  -1.078726  -0.490188
H    -1.281778  -2.187949  0.331401
H    0.497640  -2.430690  0.451424
N    -1.316377  -0.665692  2.382032
C    -1.688006  0.379384  3.346278
C    -1.272381  0.060094  4.811167
O    -0.171186  0.587208  5.267462
H    -2.159630  -1.172911  2.077863
H    -1.130738  1.302540  3.118466
C    -3.193373  0.753562  3.079888
O    -3.829019  -0.463229  2.683599
C    -3.308498  1.844953  2.024026
H    -3.618481  1.113845  4.032844
H    -4.669691  -0.268195  2.234587
H    -4.367129  2.060942  1.826587
H    -2.839351  1.547468  1.076084
H    -2.855814  2.782864  2.372567
N    -1.953397  -0.660270  5.674436
C    -3.280323  -1.280522  5.613743
H    -1.483894  -0.733335  6.583103
H    -3.206656  -2.260136  6.100440
H    -3.617778  -1.397557  4.582271
H    -3.996199  -0.666375  6.177376
Hg    1.275984  0.735911  3.674582
