27
Energy: -570008.21002 eV PBE+vdW (tier 2 basis)
C    -0.077815  0.463273  0.036857
C    -0.174352  0.388563  1.532988
O    0.911671  0.141048  2.147383
H    -1.046395  0.690502  -0.424254
H    0.292114  -0.499752  -0.342306
H    0.660576  1.227535  -0.239290
N    -1.378035  0.570966  2.115103
C    -1.568156  0.473087  3.553067
C    -2.876874  -0.100745  4.147617
O    -2.881151  -0.098350  5.384133
H    -2.123861  0.902535  1.507217
H    -0.875741  -0.328769  3.871855
C    -1.136794  1.784933  4.290672
O    -0.340041  1.418641  5.466281
C    -2.232900  2.770059  4.677951
H    -0.421877  2.307507  3.639870
H    -0.916169  0.866436  6.052390
H    -2.941949  2.354624  5.401223
H    -2.780664  3.064628  3.770046
H    -1.775617  3.671944  5.099399
N    -3.859647  -0.584582  3.377435
C    -5.098475  -1.130144  3.932445
H    -3.775670  -0.544709  2.365689
H    -5.884526  -0.360811  3.957638
H    -4.908770  -1.473482  4.954851
H    -5.434034  -1.957979  3.298179
Hg    1.392152  0.182040  4.391560
