24
Energy: -169660.247664 eV PBE+vdW (tier 2 basis)
C    -0.288923  0.062785  -0.310024
C    -0.015441  0.197486  1.152479
O    1.203665  0.499292  1.466930
H    0.359659  -0.728379  -0.714602
H    -0.014740  0.993650  -0.823678
H    -1.335026  -0.188639  -0.515019
N    -1.003529  -0.009687  2.009112
C    -1.031131  -0.250883  3.452174
C    -2.367933  -1.120739  3.614096
O    -3.157951  -1.106952  2.676529
H    -1.933147  -0.280869  1.624963
H    -0.172725  -0.866874  3.767627
C    -1.176817  0.985592  4.333917
O    0.155233  1.573975  4.655130
H    -1.608692  0.712153  5.305902
H    -1.800921  1.748130  3.851078
H    0.054352  2.282643  5.321266
N    -2.530610  -1.766980  4.773998
C    -3.696454  -2.618005  5.042003
H    -1.757584  -1.813497  5.432251
H    -3.505725  -3.649950  4.718130
H    -4.557559  -2.224603  4.493902
H    -3.897592  -2.607454  6.117940
Cd    1.807719  1.444407  3.216097
