24
Energy: -169660.771417 eV PBE+vdW (tier 2 basis)
C    0.263991  -0.395975  0.074284
C    0.105751  -0.086601  1.525540
O    1.174703  -0.037073  2.223419
H    -0.653628  -0.234740  -0.502311
H    0.551988  -1.455468  -0.014676
H    1.083123  0.199621  -0.345614
N    -1.137582  0.111398  1.997447
C    -1.689425  0.074538  3.372917
C    -1.577350  1.418027  4.122758
O    -0.464869  1.858630  4.587238
H    -1.854256  0.043586  1.278914
H    -2.757628  -0.125237  3.216533
C    -1.178746  -1.120531  4.217672
O    -1.150378  -2.235012  3.390105
H    -1.833465  -1.223911  5.099137
H    -0.151805  -0.921541  4.656801
H    -1.186309  -3.056992  3.910354
N    -2.683841  2.111045  4.301284
C    -2.786761  3.398092  4.999291
H    -3.550958  1.721088  3.935688
H    -1.788199  3.758174  5.253843
H    -3.380695  3.267597  5.912502
H    -3.290301  4.117195  4.342742
Cd    1.309638  0.771089  4.165131
