24
Energy: -169660.602383 eV PBE+vdW (tier 2 basis)
C    -0.122256  0.610114  -0.191942
C    -0.078470  0.392874  1.282390
O    1.041037  0.605006  1.866226
H    0.724748  0.101408  -0.668386
H    -0.001251  1.688122  -0.382064
H    -1.064243  0.276954  -0.641476
N    -1.200051  0.003485  1.910886
C    -1.483552  0.082005  3.351372
C    -1.077206  -1.189247  4.128530
O    0.086946  -1.220382  4.691799
H    -2.017604  -0.087938  1.309554
H    -0.844299  0.883080  3.765931
C    -2.902174  0.635741  3.582215
O    -2.815667  1.969355  3.135376
H    -3.140425  0.551589  4.657706
H    -3.654375  0.055759  3.018968
H    -3.650486  2.438235  3.304636
N    -1.843141  -2.248242  4.281225
C    -3.207722  -2.523048  3.812849
H    -1.410361  -2.984701  4.844973
H    -3.332032  -3.609830  3.784415
H    -3.362349  -2.134336  2.802251
H    -3.949631  -2.103540  4.503484
Cd    1.549818  0.048521  3.838550
