24
Energy: -169659.924681 eV PBE+vdW (tier 2 basis)
C    -0.458866  1.841403  0.268055
C    -0.305559  1.104898  1.557420
O    0.850288  0.609409  1.803871
H    -0.208435  1.162297  -0.559912
H    0.266632  2.665486  0.232253
H    -1.471057  2.233705  0.120045
N    -1.363635  0.989426  2.366814
C    -1.479615  0.211540  3.606189
C    -2.992360  -0.119319  3.915298
O    -3.395589  -0.038819  5.065355
H    -2.200097  1.492352  2.071755
H    -0.997365  -0.771768  3.451782
C    -0.866679  0.875350  4.845041
O    0.401649  0.196755  5.186059
H    -1.553926  0.715411  5.689881
H    -0.682391  1.945711  4.694198
H    0.640969  0.367689  6.117637
N    -3.756795  -0.490585  2.860459
C    -5.168488  -0.837977  3.016217
H    -3.310555  -0.737970  1.980459
H    -5.281060  -1.902945  3.270446
H    -5.690534  -0.638107  2.074883
H    -5.596083  -0.241919  3.828556
Cd    1.832552  -0.096024  3.536239
