24
Energy: -169660.126187 eV PBE+vdW (tier 2 basis)
C    -0.220775  -1.421957  0.421261
C    -0.177272  -1.122900  1.883845
O    0.673568  -1.817909  2.570743
H    -0.486185  -2.481567  0.289693
H    0.778623  -1.287283  -0.013020
H    -0.950918  -0.799596  -0.107237
N    -0.995866  -0.205594  2.375044
C    -1.415162  0.116791  3.740478
C    -2.874699  0.724729  3.504554
O    -3.116552  1.139631  2.375488
H    -1.643574  0.275549  1.718209
H    -1.503265  -0.792850  4.356871
C    -0.591240  1.191048  4.448411
O    0.552746  0.581297  5.185698
H    -1.191271  1.695402  5.216476
H    -0.207634  1.929428  3.733373
H    1.008702  1.261781  5.720132
N    -3.714448  0.780549  4.546816
C    -3.614596  0.107601  5.842568
H    -4.621936  1.181499  4.306277
H    -3.822657  -0.968178  5.757161
H    -4.361951  0.547381  6.509980
H    -2.633952  0.259128  6.309682
Cd    1.492312  -1.228979  4.385495
