24
Energy: -169659.882617 eV PBE+vdW (tier 2 basis)
C    -0.245681  1.146668  -0.052371
C    -0.168607  0.683738  1.364088
O    0.917717  0.114575  1.734936
H    0.585453  1.832857  -0.262318
H    -1.199207  1.631716  -0.288711
H    -0.112782  0.274487  -0.709944
N    -1.231446  0.855861  2.163931
C    -1.457445  0.221251  3.466620
C    -2.918938  -0.393692  3.562908
O    -2.993363  -1.582095  3.833539
H    -2.033740  1.300651  1.720915
H    -0.846527  -0.691931  3.507803
C    -1.184226  1.086474  4.686570
O    0.273992  1.338981  4.799391
H    -1.514439  0.554711  5.588922
H    -1.671294  2.069718  4.627507
H    0.461370  1.854019  5.608984
N    -3.957760  0.428413  3.326209
C    -5.347671  -0.048158  3.398666
H    -3.816092  1.434522  3.301194
H    -5.975906  0.621176  2.803581
H    -5.703306  -0.060787  4.437110
H    -5.395239  -1.064206  2.994426
Cd    1.772139  0.129047  3.671047
