24
Energy: -169659.763347 eV PBE+vdW (tier 2 basis)
C    -0.114573  0.444812  0.027583
C    -0.194069  -0.004293  1.447906
O    0.912498  -0.249050  2.048471
H    0.506842  1.347580  -0.041195
H    -1.100088  0.635452  -0.411564
H    0.394367  -0.336879  -0.556070
N    -1.398400  -0.157261  2.017113
C    -1.667140  -0.819910  3.292052
C    -2.800383  -1.938054  3.261671
O    -2.525871  -2.937253  3.913696
H    -2.194372  0.103554  1.438657
H    -0.800110  -1.460506  3.507717
C    -1.927562  0.097492  4.478079
O    -0.672885  0.816217  4.814039
H    -2.230421  -0.506197  5.343239
H    -2.683521  0.865627  4.265698
H    -0.811305  1.381661  5.599756
N    -3.952263  -1.745409  2.599605
C    -4.465802  -0.567914  1.903308
H    -4.570183  -2.556469  2.643310
H    -5.560025  -0.601388  1.933760
H    -4.171497  -0.553545  0.842222
H    -4.173704  0.364957  2.402538
Cd    1.295716  0.036180  4.112145
