24
Energy: -169660.693915 eV PBE+vdW (tier 2 basis)
C    -0.110951  1.277867  0.211315
C    -0.275474  0.280266  1.311471
O    0.555663  -0.686896  1.342176
H    -0.861583  2.074977  0.228500
H    -0.168874  0.747808  -0.750448
H    0.895404  1.714588  0.271093
N    -1.288169  0.464962  2.178831
C    -1.871531  -0.383304  3.241053
C    -1.082937  -0.356667  4.569008
O    0.068355  -0.914830  4.692367
H    -1.827143  1.308009  1.995648
H    -2.850887  0.065320  3.441181
C    -2.202508  -1.832872  2.823434
O    -2.929715  -2.356691  3.888897
H    -1.272690  -2.451747  2.630044
H    -2.736733  -1.824060  1.859300
H    -3.440783  -3.139788  3.618655
N    -1.600239  0.233534  5.625231
C    -2.904719  0.899966  5.771404
H    -1.019405  0.174665  6.464807
H    -2.955151  1.302156  6.786921
H    -3.723534  0.182648  5.640183
H    -3.002740  1.738351  5.071858
Cd    0.937342  -1.903263  3.034069
