24
Energy: -169661.091347 eV PBE+vdW (tier 2 basis)
C    0.101727  1.224888  0.488382
C    -0.080787  0.160396  1.516433
O    0.951166  -0.159723  2.210501
H    0.919873  0.945890  -0.188546
H    0.412960  2.149230  0.998471
H    -0.810336  1.423646  -0.084406
N    -1.293100  -0.384173  1.674581
C    -1.790691  -1.212284  2.786582
C    -1.553767  -2.721698  2.541884
O    -0.451806  -3.282948  2.924329
H    -2.023699  -0.089736  1.023646
H    -1.237232  -0.947192  3.702936
C    -3.258608  -0.836338  3.047477
O    -3.953574  -1.072357  1.822485
H    -3.304693  0.222581  3.346207
H    -3.648983  -1.449245  3.876171
H    -4.869815  -0.750429  1.883600
N    -2.493069  -3.425306  1.960104
C    -2.435577  -4.859015  1.662579
H    -3.343001  -2.899922  1.707766
H    -3.080932  -5.402893  2.364734
H    -1.408950  -5.219790  1.755727
H    -2.804686  -5.018825  0.643507
Cd    1.198171  -2.003599  3.204101
