24
Energy: -169660.794103 eV PBE+vdW (tier 2 basis)
C    -0.785054  -0.337969  -0.211183
C    -0.266729  -0.300110  1.186077
O    1.006120  -0.239480  1.328445
H    -0.248069  -1.100904  -0.788036
H    -0.568578  0.634693  -0.680590
H    -1.864837  -0.517251  -0.257546
N    -1.144651  -0.319806  2.200547
C    -0.929314  0.117216  3.592319
C    -0.507234  -1.030848  4.531446
O    0.732287  -1.371061  4.630716
H    -2.121583  -0.325477  1.908793
H    -0.094887  0.842390  3.590250
C    -2.162569  0.916775  4.056064
O    -2.325770  1.925397  3.088985
H    -1.963127  1.309337  5.067501
H    -3.055419  0.258087  4.110556
H    -3.001135  2.563541  3.375630
N    -1.406543  -1.656560  5.256708
C    -1.132392  -2.752803  6.196013
H    -2.370664  -1.332867  5.196015
H    -1.011206  -2.349376  7.209858
H    -0.218976  -3.273249  5.898421
H    -1.982532  -3.441885  6.179950
Cd    2.030175  -0.675135  3.114371
