24
Energy: -169659.777215 eV PBE+vdW (tier 2 basis)
C    -1.242452  1.508118  0.320978
C    -0.260203  0.751717  1.172603
O    0.893904  1.107463  1.334178
H    -0.821412  2.494724  0.105325
H    -2.213503  1.630649  0.819998
H    -1.391293  0.991373  -0.639250
N    -0.678651  -0.413983  1.848378
C    -1.817983  -1.235596  1.503281
C    -2.774116  -1.422682  2.710052
O    -3.745380  -2.260669  2.699201
H    0.106075  -0.875458  2.315389
H    -2.407496  -0.708135  0.735300
C    -1.330031  -2.566373  0.886279
O    -2.407354  -3.174546  0.087965
H    -0.988256  -3.279700  1.649880
H    -0.501509  -2.346206  0.201420
H    -2.023896  -3.750551  -0.601812
N    -2.574675  -0.659080  3.757392
C    -3.375909  -0.628137  4.984785
H    -1.765482  -0.036032  3.685821
H    -3.550110  0.417301  5.261420
H    -2.827405  -1.126262  5.794337
H    -4.329077  -1.134521  4.818504
Cd    -4.338013  -3.636816  1.171959
