21
Energy: -568331.2712360  eV PBE+vdW (tier 2 basis)
N    1.134948  0.794350  0.661318
C    0.426410  -0.394978  1.200441
C    1.143105  -1.114323  2.365894
O    2.424681  -1.039303  2.582401
H    0.830678  1.662543  1.113576
H    1.024194  0.916016  -0.350828
H    -0.509969  -0.041870  1.665507
C    0.086023  -1.376669  0.046183
C    -0.419562  -2.788592  0.442846
N    -1.561353  -2.848135  1.355217
C    -0.998830  -3.573788  -0.702565
C    -2.513704  -3.558598  0.804350
N    -2.205873  -3.999693  -0.469146
H    0.979717  -1.540558  -0.575908
H    -0.669815  -0.893264  -0.589192
H    -0.481046  -3.785924  -1.640127
H    -3.454347  -3.796546  1.302796
H    -1.511026  -2.519073  2.324508
O    0.452090  -1.840771  3.077529
H    0.399529  -3.378596  0.898680
Hg    3.427149  0.456772  1.369517
