21
Energy: -568332.3501824  eV PBE+vdW (tier 2 basis)
N    -0.044831  2.499809  1.344722
C    -0.339142  1.099182  1.845428
C    0.876393  0.223341  1.412205
O    0.679997  -1.044310  1.487149
H    0.990994  2.493352  1.163789
H    -0.281180  3.239135  2.019995
H    -0.298833  1.147599  2.943956
C    -1.682605  0.533389  1.356409
C    -1.870361  -0.883336  1.759386
N    -2.164002  -1.332307  3.019089
C    -1.885152  -2.074309  0.953008
C    -2.335758  -2.690813  2.941685
N    -2.142320  -3.149295  1.699710
H    -1.737153  0.586726  0.259270
H    -2.504893  1.151273  1.756988
H    -1.688675  -2.133638  -0.114956
H    -2.615571  -3.295711  3.801674
H    -2.314424  -0.772588  3.855923
O    1.901546  0.831538  1.084032
H    -0.519522  2.713942  0.455631
Hg    2.856494  -1.783978  0.858906
