21
Energy: -568332.4411971  eV PBE+vdW (tier 2 basis)
N    0.133850  0.464791  0.208657
C    -0.042781  0.055766  1.650323
C    0.690443  -1.301365  1.767783
O    1.374087  -1.718116  0.858285
H    -0.716206  0.161436  -0.332825
H    0.296968  1.470916  0.086227
H    0.508212  0.770950  2.277760
C    -1.516926  0.048151  2.099299
C    -2.465609  -0.733186  1.269077
N    -2.335838  -0.758112  -0.116315
C    -3.493500  -1.615453  1.665459
C    -3.231745  -1.611199  -0.538686
N    -3.905066  -2.236368  0.545734
H    -1.886137  1.095589  2.087226
H    -1.561402  -0.256561  3.152807
H    -3.809993  -1.910959  2.660867
H    -3.401671  -1.897561  -1.573764
H    0.947044  -0.083678  -0.148244
O    0.486055  -1.865512  2.952243
H    1.030539  -2.678769  3.029921
Hg    -5.979324  -2.785759  0.065168
