21
Energy: -568331.4655358  eV PBE+vdW (tier 2 basis)
N    0.634152  0.207441  -0.906305
C    -0.023131  -0.076515  0.393574
C    0.935504  -0.721450  1.429373
O    2.220963  -0.503164  1.418111
H    0.656995  -0.607944  -1.528889
H    0.193912  0.982014  -1.412312
H    -0.295093  0.900137  0.825598
C    -1.320934  -0.930584  0.176915
C    -2.365369  -0.932793  1.250254
N    -2.182115  -1.169982  2.522488
C    -3.837580  -0.750501  1.085908
C    -3.454873  -1.162034  3.196997
N    -4.417277  -0.920293  2.395506
H    -1.037466  -1.982579  -0.003555
H    -1.809168  -0.576159  -0.740611
H    -4.272567  -1.472701  0.367121
H    -3.510413  -1.348631  4.268189
H    -1.242700  -1.361613  2.917439
O    0.484062  -1.413618  2.339261
H    -4.094220  0.241894  0.667129
Hg    2.955320  0.613078  -0.278188
