21
Energy: -568332.0556377  eV PBE+vdW (tier 2 basis)
N    1.310998  1.930128  2.916194
C    1.509255  0.737029  3.839801
C    2.136019  -0.424022  2.995040
O    3.023619  0.010631  2.189527
H    1.175445  2.806380  3.442573
H    2.150988  2.027565  2.318329
H    2.284627  1.045746  4.557640
C    0.232186  0.349783  4.616733
C    -0.963756  -0.053033  3.842158
N    -1.350333  -1.342378  3.603133
C    -2.036537  0.736845  3.319400
C    -2.554338  -1.301352  2.949291
N    -2.985402  -0.045586  2.790996
H    -0.041032  1.222116  5.237026
H    0.537548  -0.444868  5.311725
H    -2.165790  1.814352  3.409398
H    -3.064703  -2.193825  2.594848
H    -0.812968  -2.179290  3.823273
O    1.781807  -1.591917  3.192496
H    0.493401  1.801593  2.296949
Hg    3.737965  -2.115898  1.446470
