21
Energy: -568332.2059142  eV PBE+vdW (tier 2 basis)
N    0.233735  -1.131060  -0.084914
C    0.070693  -0.364564  1.220108
C    1.522035  -0.186612  1.804045
O    1.553031  0.239891  2.996689
H    -0.353240  -0.769429  -0.847721
H    0.043977  -2.137405  0.018211
H    -0.252711  0.649861  0.945568
C    -0.883927  -1.001180  2.236660
C    -2.293729  -0.995177  1.783348
N    -3.151267  -2.058164  1.859768
C    -3.099317  0.066050  1.257577
C    -4.378303  -1.635317  1.408669
N    -4.353344  -0.350956  1.040837
H    -0.760067  -0.392086  3.155302
H    -0.546418  -2.011611  2.514096
H    -2.805691  1.101194  1.094934
H    -5.246112  -2.289642  1.366682
H    -2.949931  -2.981931  2.238616
O    2.458050  -0.441376  1.031854
H    1.247455  -1.025145  -0.330600
Hg    3.872081  0.424657  3.234273
