21
Energy: -568331.9006230  eV PBE+vdW (tier 2 basis)
N    -0.486243  -1.542104  1.929929
C    0.773475  -1.759471  1.106751
C    1.948738  -0.943602  1.713122
O    1.630917  -0.061582  2.551252
H    -0.515892  -2.141220  2.770356
H    -0.520083  -0.557544  2.247278
H    1.026756  -2.825665  1.162368
C    0.368869  -1.309512  -0.297605
C    -1.142134  -1.692589  -0.431788
N    -1.391330  -3.004365  -1.002215
C    -1.643438  -1.939171  1.022110
C    -1.734307  -3.881190  -0.026202
N    -1.827499  -3.369405  1.172792
H    1.002461  -1.769711  -1.063724
H    0.454570  -0.219254  -0.402420
H    -2.539807  -1.381953  1.329964
H    -1.905363  -4.936256  -0.243257
H    -1.291203  -3.233417  -1.989732
O    3.104100  -1.226908  1.305752
H    -1.686249  -0.919484  -0.986828
Hg    4.062663  0.444406  2.663096
