21
Energy: -568332.2163785  eV PBE+vdW (tier 2 basis)
N    0.394214  -0.569430  -0.088675
C    -0.098118  -0.285414  1.162090
C    0.930751  -0.345409  2.296941
O    0.658271  0.169360  3.375339
H    0.077344  -0.062174  -0.909519
H    1.081491  -1.303339  -0.239789
H    -0.589043  0.695035  1.185995
C    -1.320383  -1.375175  1.681576
C    -2.023894  -1.011133  2.895422
N    -2.969942  -0.055611  3.000598
C    -2.067201  -1.672301  4.222203
C    -3.565254  -0.138399  4.261036
N    -3.061532  -1.099087  4.985420
H    -0.842557  -2.357055  1.764444
H    -1.990644  -1.360175  0.814443
H    -1.851614  -2.739589  4.334359
H    -4.368494  0.533512  4.559316
H    -3.262694  0.588661  2.265879
O    2.019373  -1.019330  1.982855
H    2.680547  -1.002910  2.708131
Hg    -0.074620  -1.131036  5.452934
