21
Energy: -568332.3826838  eV PBE+vdW (tier 2 basis)
N    1.250608  -0.613202  0.821773
C    -0.012172  -0.145160  1.408154
C    0.318687  0.889130  2.508721
O    1.323122  0.774693  3.209819
H    1.105671  -1.324086  0.097494
H    1.792648  0.151965  0.406424
H    -0.648466  0.317289  0.636114
C    -0.864528  -1.335655  2.003556
C    -0.345927  -1.972723  3.255238
N    -0.835262  -1.759967  4.483083
C    0.740995  -2.930616  3.479126
C    -0.119140  -2.541756  5.409228
N    0.815326  -3.235637  4.835227
H    -0.949463  -2.101438  1.216946
H    -1.883197  -0.963007  2.175365
H    1.023485  -3.698506  2.750965
H    -0.362364  -2.532272  6.470102
H    -1.614914  -1.145069  4.724346
O    -0.529531  1.865192  2.753718
H    -1.239177  1.962740  2.087161
Hg    2.364519  -1.415384  2.837673
