24
Energy: -34086.5647314 eV PBE+vdW (tier 2 basis)
C    -1.061544  -2.351415  0.995876
C    -0.750070  -1.531063  2.196796
O    0.331991  -1.733760  2.861620
H    -0.248132  -2.252054  0.263603
H    -2.007722  -2.072732  0.521105
H    -1.101729  -3.411085  1.286736
N    -1.586254  -0.582424  2.596066
C    -1.408963  0.271782  3.785329
C    -2.694688  1.167142  3.909378
O    -2.599668  2.360240  3.658299
H    -2.428543  -0.432637  2.040791
H    -1.305616  -0.377845  4.670023
C    -0.195016  1.206899  3.696262
O    0.965950  0.684180  4.468814
H    -0.476425  2.182152  4.109401
H    0.134487  1.357253  2.662237
H    1.248944  1.390275  5.075939
N    -3.852026  0.534996  4.213456
C    -4.046369  -0.792405  4.796581
H    -4.647326  1.172198  4.248926
H    -3.457172  -1.556247  4.274520
H    -5.099617  -1.067147  4.683467
H    -3.801132  -0.810492  5.868037
Ca    1.956639  -1.281809  4.043738
