24
Energy: -34087.4743026 eV PBE+vdW (tier 2 basis)
C    -0.012226  1.154317  0.164844
C    -0.265114  0.274819  1.344122
O    0.543717  -0.668505  1.614808
H    -0.749403  1.954718  0.045428
H    -0.012795  0.529374  -0.740222
H    0.991150  1.593402  0.244859
N    -1.356654  0.514223  2.086831
C    -1.951880  -0.255553  3.194527
C    -1.100625  -0.288854  4.474565
O    0.069961  -0.800646  4.463806
H    -1.920158  1.299747  1.771861
H    -2.883386  0.269877  3.429165
C    -2.352855  -1.693816  2.792310
O    -2.841949  -2.284757  3.978365
H    -1.485708  -2.245113  2.381282
H    -3.108951  -1.629823  1.994432
H    -3.429719  -3.028177  3.767227
N    -1.600138  0.174692  5.602146
C    -2.936317  0.728576  5.865823
H    -0.986703  0.060054  6.410349
H    -2.961202  1.051896  6.909820
H    -3.706004  -0.037269  5.714682
H    -3.132676  1.604169  5.236211
Ca    1.520634  -1.662352  3.199759
