24
Energy: -34087.3977786 eV PBE+vdW (tier 2 basis)
C    1.063515  0.819132  0.133249
C    0.260164  -0.093358  0.994284
O    0.824810  -0.822082  1.872288
H    1.577692  1.545222  0.780123
H    0.463628  1.361687  -0.604466
H    1.845265  0.245525  -0.382305
N    -1.071640  -0.130390  0.840587
C    -1.996926  -0.857466  1.715308
C    -1.965346  -2.379801  1.424009
O    -1.085779  -3.055441  2.069144
H    -1.475326  0.470231  0.124195
H    -1.603564  -0.790744  2.740164
C    -3.369262  -0.166158  1.737015
O    -4.209170  -1.024339  2.480006
H    -3.746210  0.009891  0.712932
H    -3.237334  0.818596  2.215020
H    -4.988595  -0.538661  2.795923
N    -2.735590  -3.001778  0.556010
C    -3.810784  -2.500049  -0.308576
H    -2.572196  -4.009496  0.523069
H    -3.482994  -1.623004  -0.875490
H    -4.699578  -2.265382  0.288593
H    -4.056345  -3.291750  -1.021291
Ca    0.838567  -2.691385  2.882210
