24
Energy: -34087.5743486 eV PBE+vdW (tier 2 basis)
C    -0.755525  -0.458605  -0.163935
C    -0.327082  -0.359454  1.259304
O    0.902761  -0.493418  1.573982
H    -0.404049  -1.407409  -0.590337
H    -0.265175  0.346803  -0.730601
H    -1.839114  -0.378903  -0.295878
N    -1.246400  -0.122239  2.198362
C    -0.978564  0.240778  3.601372
C    -0.512373  -0.967396  4.437832
O    0.712380  -1.318869  4.375920
H    -2.184249  0.110039  1.870978
H    -0.135503  0.950758  3.606658
C    -2.207995  0.983824  4.149483
O    -2.485512  1.989247  3.198153
H    -1.960790  1.387597  5.145045
H    -3.072547  0.296533  4.258967
H    -3.196780  2.568721  3.518654
N    -1.372553  -1.598825  5.211414
C    -1.064155  -2.739107  6.078824
H    -2.337702  -1.274662  5.204904
H    -1.597081  -2.613182  7.027055
H    0.011815  -2.777459  6.262757
H    -1.394155  -3.671948  5.603602
Ca    2.317663  -1.150167  2.978795
