24
Energy: -34087.3790146 eV PBE+vdW (tier 2 basis)
C    -0.030781  0.516492  -0.179306
C    -0.102800  0.336280  1.297073
O    0.953567  0.393228  2.009670
H    0.699055  -0.186116  -0.602543
H    0.344596  1.529766  -0.386274
H    -0.995871  0.386515  -0.679176
N    -1.291067  0.121727  1.872709
C    -1.537404  0.142181  3.323549
C    -1.028544  -1.144375  4.005961
O    0.187862  -1.136141  4.407496
H    -2.111275  0.162828  1.270392
H    -0.902121  0.938438  3.742013
C    -2.972204  0.606009  3.607081
O    -2.983602  1.953781  3.184068
H    -3.172657  0.492440  4.687332
H    -3.712632  -0.001296  3.058167
H    -3.849958  2.354314  3.366434
N    -1.754184  -2.231385  4.189926
C    -3.135189  -2.541790  3.800941
H    -1.256556  -2.970668  4.689594
H    -3.238209  -3.630757  3.787059
H    -3.354254  -2.166178  2.797194
H    -3.849672  -2.133797  4.526126
Ca    1.997900  -0.223495  3.735515
