24
Energy: -34086.8255412 eV PBE+vdW (tier 2 basis)
C    -0.350579  1.371849  -0.282422
C    -0.860340  0.423911  0.759441
O    -0.502973  0.469404  1.944185
H    -0.510136  2.399912  0.066476
H    -0.807227  1.243871  -1.269437
H    0.736296  1.234763  -0.370203
N    -1.781059  -0.516204  0.343015
C    -2.255040  -1.665136  1.104902
C    -2.943298  -1.418593  2.456698
O    -3.752190  -2.357495  2.843175
H    -2.079315  -0.479304  -0.626805
H    -3.042874  -2.119106  0.484867
C    -1.121920  -2.708149  1.254098
O    -1.663376  -3.997737  1.759354
H    -0.346598  -2.360974  1.948294
H    -0.687147  -2.896720  0.265673
H    -0.970824  -4.664715  1.598693
N    -2.680435  -0.362970  3.169984
C    -3.290689  -0.016408  4.450348
H    -1.846959  0.184618  2.812918
H    -4.170170  -0.637480  4.636413
H    -3.583329  1.039358  4.420750
H    -2.556688  -0.148697  5.256053
Ca    -3.630131  -4.406001  2.854529
