24
Energy: -34086.9362788 eV PBE+vdW (tier 2 basis)
C    -0.153799  0.365155  -0.153768
C    -1.177861  -0.106694  0.832392
O    -2.277092  0.419440  1.010570
H    0.305571  1.287571  0.230016
H    -0.654730  0.625992  -1.093125
H    0.639409  -0.365685  -0.346053
N    -0.865448  -1.230926  1.591211
C    -1.788570  -1.610135  2.646186
C    -3.210692  -1.748416  2.070996
O    -4.228103  -1.330302  2.734539
H    0.058466  -1.651769  1.554150
H    -1.496083  -2.604291  3.019767
C    -1.664583  -0.579659  3.789694
O    -2.587398  -0.817674  4.922607
H    -1.869791  0.426114  3.405452
H    -0.640905  -0.606956  4.177708
H    -2.071626  -1.019651  5.721381
N    -3.361115  -2.428900  0.956565
C    -4.629768  -2.674135  0.269591
H    -2.505060  -2.698168  0.473852
H    -4.845137  -1.853517  -0.427554
H    -5.438326  -2.755468  1.000344
H    -4.548589  -3.611590  -0.288577
Ca    -4.776773  -0.458337  4.510059
