24
Energy: -34086.9302211 eV PBE+vdW (tier 2 basis)
C    0.235473  -0.433723  -0.136798
C    0.195989  -0.177485  1.327533
O    1.247023  0.270668  1.933999
H    0.997689  -1.200558  -0.339851
H    0.549872  0.475955  -0.665914
H    -0.727522  -0.772349  -0.530778
N    -0.903102  -0.411132  2.011730
C    -1.104586  -0.358137  3.454114
C    -2.488060  -1.128005  3.614282
O    -3.136971  -1.330169  2.590646
H    -1.770828  -0.791700  1.570140
H    -0.311596  -0.919435  3.975112
C    -1.237575  1.046954  4.036023
O    0.086184  1.686768  4.308293
H    -1.755633  1.001359  5.001078
H    -1.795786  1.702254  3.355450
H    -0.088796  2.369826  4.981912
N    -2.847497  -1.477974  4.854458
C    -4.095210  -2.198472  5.137628
H    -2.182524  -1.377974  5.614738
H    -4.835557  -1.935395  4.377263
H    -4.460480  -1.902506  6.125774
H    -3.930378  -3.283181  5.117137
Ca    2.125871  1.473412  3.318029
