24
Energy: -34087.6379165 eV PBE+vdW (tier 2 basis)
C    -0.096956  -0.841744  0.204418
C    -0.186054  -0.167812  1.531963
O    0.730851  0.629572  1.913234
H    0.872250  -1.346946  0.105066
H    -0.130679  -0.065834  -0.575396
H    -0.903658  -1.559461  0.023366
N    -1.253103  -0.410010  2.304174
C    -1.654362  0.298002  3.528281
C    -0.856286  -0.186591  4.763214
O    0.420838  -0.094274  4.731507
H    -1.922663  -1.087726  1.943584
H    -1.389734  1.361976  3.410423
C    -3.190549  0.181812  3.611208
O    -3.607005  0.738981  4.847568
H    -3.485938  -0.882763  3.529627
H    -3.617956  0.721903  2.752199
H    -4.564162  0.907651  4.831962
N    -1.500148  -0.638110  5.813636
C    -0.882233  -1.094594  7.058334
H    -2.519120  -0.497939  5.803563
H    -0.950561  -0.306276  7.819684
H    0.164889  -1.350158  6.882910
H    -1.424376  -1.977343  7.414008
Ca    1.973714  0.812684  3.616467
