24
Energy: -34087.5603889 eV PBE+vdW (tier 2 basis)
C    0.751726  -1.433358  2.356973
C    -0.020035  -0.197061  2.036465
O    0.519306  0.944755  2.191120
H    0.204018  -2.359277  2.154561
H    1.026455  -1.405197  3.421569
H    1.691136  -1.434878  1.788117
N    -1.277824  -0.333562  1.590889
C    -2.311725  0.686645  1.333157
C    -1.992332  1.629969  0.157705
O    -0.997626  2.425126  0.206713
H    -1.597716  -1.294411  1.498753
H    -3.207391  0.114813  1.059473
C    -2.682357  1.503047  2.593382
O    -3.593891  2.485889  2.152618
H    -1.779596  1.952352  3.050579
H    -3.110102  0.812997  3.336777
H    -4.192458  2.740108  2.873425
N    -2.812845  1.606341  -0.872779
C    -2.741180  2.474427  -2.048525
H    -3.608596  0.973691  -0.822917
H    -3.593090  3.166099  -2.042928
H    -2.784653  1.858253  -2.953855
H    -1.807601  3.039531  -2.028562
Ca    0.684374  2.891699  1.396291
