24
Energy: -34086.8186336 eV PBE+vdW (tier 2 basis)
C    1.255190  -1.541020  1.809464
C    0.160444  -1.391757  2.821743
O    0.024405  -2.083733  3.815954
H    2.200746  -1.213589  2.264778
H    1.087637  -0.969062  0.889915
H    1.372565  -2.603836  1.567342
N    -0.789485  -0.366642  2.567979
C    -1.734876  -0.094748  3.622652
C    -3.185572  -0.208885  3.181463
O    -4.110900  0.213442  3.975675
H    -0.551656  0.360816  1.897261
H    -1.551136  -0.941956  4.327781
C    -1.407476  1.213023  4.361291
O    -2.112191  1.305227  5.669035
H    -1.676047  2.108466  3.785211
H    -0.332179  1.224703  4.567934
H    -1.455980  1.550566  6.344872
N    -3.453813  -0.782650  2.034807
C    -4.775452  -1.069924  1.480173
H    -2.626196  -1.077899  1.509715
H    -5.547216  -0.667209  2.139497
H    -4.899606  -2.155382  1.381648
H    -4.859258  -0.610310  0.488410
Ca    -4.329947  0.980361  5.882399
