24
Energy: -34087.521244 eV PBE+vdW (tier 2 basis)
C    0.322585  -0.350372  0.117639
C    0.041442  -0.021787  1.543943
O    1.001402  0.250778  2.336529
H    -0.580065  -0.455001  -0.492661
H    0.880009  -1.299011  0.089724
H    0.975081  0.416886  -0.318008
N    -1.228941  -0.023464  1.961673
C    -1.760944  0.018007  3.341023
C    -1.569042  1.368705  4.043964
O    -0.410681  1.763743  4.399575
H    -1.911195  -0.301409  1.260767
H    -2.837301  -0.153976  3.212012
C    -1.244725  -1.152676  4.208500
O    -1.420532  -2.313828  3.438143
H    -1.823030  -1.157793  5.147518
H    -0.178766  -1.006819  4.480455
H    -1.492982  -3.094310  4.011526
N    -2.654397  2.072764  4.310302
C    -2.695324  3.350121  5.025149
H    -3.546289  1.700581  3.990298
H    -1.720382  3.547038  5.475464
H    -3.461120  3.296223  5.807159
H    -2.953000  4.156701  4.327117
Ca    1.641197  1.345898  4.003189
