24
Energy: -34086.4247519 eV PBE+vdW (tier 2 basis)
C    -0.069640  0.512698  0.124819
C    -0.259296  0.104265  1.541473
O    0.741740  0.062741  2.345266
H    -1.008120  0.560548  -0.436833
H    0.601343  -0.210933  -0.362364
H    0.432023  1.488679  0.083331
N    -1.465142  -0.236060  1.989463
C    -1.713180  -0.841251  3.304357
C    -2.835570  -1.947111  3.351248
O    -2.563127  -2.921006  4.034424
H    -2.234101  -0.204174  1.323050
H    -0.837513  -1.464972  3.535878
C    -1.933827  0.139815  4.452628
O    -0.633784  0.635398  4.990759
H    -2.433467  -0.385100  5.276148
H    -2.518928  1.015604  4.145970
H    -0.848371  1.138876  5.798475
N    -4.004364  -1.770558  2.694679
C    -4.527066  -0.614081  1.974927
H    -4.620987  -2.578051  2.777993
H    -4.284951  -0.641627  0.899319
H    -4.187923  0.331629  2.416468
H    -5.619371  -0.616282  2.054321
Ca    1.479620  0.243950  4.262206
