24
Energy: -34086.5542744 eV PBE+vdW (tier 2 basis)
C    -0.192621  1.152844  -0.001670
C    -0.210002  0.773314  1.435379
O    0.872712  0.418919  2.027695
H    0.544207  1.951133  -0.163749
H    -1.170034  1.479508  -0.370708
H    0.141859  0.286278  -0.591588
N    -1.348277  0.782638  2.122879
C    -1.519080  0.224342  3.473354
C    -2.990171  -0.275249  3.721242
O    -3.122955  -1.365185  4.246599
H    -2.202440  0.981967  1.602412
H    -0.952713  -0.717480  3.530109
C    -1.112699  1.134080  4.629350
O    0.349278  1.053086  4.922293
H    -1.624283  0.791619  5.537553
H    -1.352943  2.186867  4.433623
H    0.465451  1.437438  5.811500
N    -3.990346  0.544280  3.314637
C    -5.398661  0.167777  3.496951
H    -3.799503  1.522253  3.116070
H    -6.010492  0.736692  2.790865
H    -5.733060  0.370567  4.522538
H    -5.506381  -0.902537  3.297833
Ca    2.045274  0.188761  3.701754
