24
Energy: -34088.2786912 eV PBE+vdW (tier 2 basis)
C    0.875870  -1.288392  1.872946
C    -0.113311  -0.170116  1.873195
O    0.176737  0.940932  2.392522
H    1.160883  -1.507324  2.911330
H    1.787795  -0.954356  1.358868
H    0.509238  -2.204544  1.399253
N    -1.316069  -0.394583  1.302045
C    -2.475960  0.510810  1.161148
C    -2.160757  1.743426  0.282529
O    -1.518509  2.722960  0.760495
H    -1.443417  -1.321037  0.903838
H    -3.220619  -0.095259  0.625474
C    -3.211730  0.863437  2.464953
O    -2.491368  1.798470  3.323430
H    -3.385396  -0.065478  3.024999
H    -4.181510  1.309099  2.198526
H    -2.991693  1.866983  4.155641
N    -2.600119  1.726280  -0.966662
C    -2.401638  2.797921  -1.945972
H    -3.114618  0.908129  -1.284113
H    -1.775799  2.432169  -2.769243
H    -1.914009  3.644905  -1.459096
H    -3.374701  3.107780  -2.344371
Ca    -0.557302  2.932787  2.694266
