24
Energy: -34088.1731562 eV PBE+vdW (tier 2 basis)
C    -0.689227  -0.225867  0.333659
C    -1.236422  -0.534798  1.687964
O    -1.618690  -1.700459  1.975982
H    -0.391007  0.819402  0.204380
H    -1.445464  -0.481979  -0.421130
H    0.176708  -0.875862  0.145823
N    -1.302054  0.472693  2.586008
C    -1.781024  0.430666  3.980986
C    -0.995547  -0.585997  4.837149
O    -1.396528  -1.787901  4.910350
H    -0.969533  1.376876  2.261970
H    -1.566306  1.432424  4.375607
C    -3.303923  0.326892  4.158601
O    -3.873530  -0.939446  3.710676
H    -3.769601  1.137873  3.583040
H    -3.536906  0.465390  5.224912
H    -4.835062  -0.814196  3.628932
N    0.083065  -0.208313  5.506782
C    0.768105  1.082324  5.591114
H    0.511612  -0.968538  6.040150
H    0.198918  1.874722  5.098788
H    1.754942  1.007570  5.117238
H    0.899534  1.350238  6.645893
Ca    -2.608061  -2.876712  3.486123
