24
Energy: -34086.827569 eV PBE+vdW (tier 2 basis)
C    0.757547  -0.563908  0.781499
C    0.002859  -0.635579  2.072431
O    0.340413  -1.351333  3.022820
H    1.721107  -0.070886  0.976204
H    0.235532  -0.012223  -0.007969
H    0.983170  -1.580477  0.439048
N    -1.127252  0.152131  2.185720
C    -1.782292  0.359410  3.471234
C    -2.654911  -0.834807  3.929195
O    -3.880018  -0.635970  4.303580
H    -1.458911  0.656311  1.368686
H    -0.987000  0.458189  4.232557
C    -2.560635  1.676807  3.382616
O    -3.223063  2.029873  4.652723
H    -3.349885  1.627155  2.619385
H    -1.874551  2.488637  3.116251
H    -2.791685  2.816663  5.028052
N    -2.079736  -2.004341  3.959766
C    -2.693648  -3.268821  4.351865
H    -1.059387  -1.975371  3.682033
H    -2.239993  -3.619851  5.287700
H    -2.495829  -4.013189  3.571841
H    -3.771971  -3.148408  4.479944
Ca    -4.997864  0.765986  5.300817
