24
Energy: -34087.8593606 eV PBE+vdW (tier 2 basis)
C    -0.636383  -1.107695  0.389515
C    -0.406681  -0.344135  1.648157
O    0.765311  0.055018  1.960678
H    -1.672374  -1.439476  0.267772
H    0.033767  -1.976611  0.355449
H    -0.365457  -0.464248  -0.460760
N    -1.445366  -0.067394  2.440589
C    -1.408774  0.788360  3.636040
C    -0.754929  0.042838  4.822085
O    0.522493  0.040447  4.905736
H    -2.360342  -0.449058  2.200224
H    -0.755624  1.647334  3.421653
C    -2.814739  1.333957  3.900138
O    -3.667769  0.201385  4.092088
H    -3.131737  1.936718  3.034563
H    -2.789713  1.989645  4.785592
H    -4.594797  0.486925  4.160083
N    -1.530362  -0.563801  5.691755
C    -1.083274  -1.301816  6.872426
H    -2.538150  -0.524956  5.484221
H    -1.660740  -0.965249  7.740843
H    -0.020396  -1.118372  7.043462
H    -1.258266  -2.375412  6.726184
Ca    2.149302  0.226599  3.549506
