24
Energy: -605240.236328 eV PBE+vdW (tier 2 basis)
N    -0.295873  0.512844  0.175838
C    0.061009  0.030718  1.564913
C    1.489364  -0.488608  1.544779
O    1.970629  -1.017976  2.601975
H    -0.932974  1.319634  0.201663
H    -0.788990  -0.281019  -0.310557
H    0.049307  0.896896  2.244173
C    -0.983999  -1.025455  2.029262
C    -1.184099  -2.097248  0.987308
C    -0.387303  -3.254103  0.973339
C    -2.148619  -1.925142  -0.024164
C    -0.547477  -4.209703  -0.030298
C    -2.298624  -2.880288  -1.035910
C    -1.492506  -4.018464  -1.042530
H    -1.922069  -0.491253  2.236831
H    -0.633961  -1.431213  2.986698
H    0.314071  -3.437046  1.790151
H    -2.850679  -1.087116  0.024132
H    0.047080  -5.122588  -0.011108
H    -3.065387  -2.746609  -1.797910
H    -1.620634  -4.772095  -1.818195
O    2.203720  -0.372205  0.486994
H    0.545283  0.760738  -0.367155
Pb    4.011731  -1.407699  1.591767
