24
Energy: -605239.410768 eV PBE+vdW (tier 2 basis)
N    1.504480  -2.907753  2.041566
C    1.090742  -1.539634  2.148131
C    2.164012  -0.755094  1.390173
O    1.896456  -0.248192  0.242177
H    0.767666  -3.600972  1.976106
H    2.275929  -3.199069  2.634662
H    0.162621  -1.413677  1.575361
C    0.897454  -0.923738  3.596430
C    -0.268827  -1.508584  4.310309
C    -1.574018  -0.810127  4.286956
C    -0.182832  -2.714925  4.985739
C    -2.721834  -1.451411  4.945332
C    -1.314137  -3.271520  5.606821
C    -2.583294  -2.651325  5.590233
H    0.774484  0.163565  3.485958
H    1.824737  -1.103708  4.158190
H    -1.850521  -0.507465  3.254983
H    0.769387  -3.239401  5.057331
H    -3.680820  -0.931647  4.920542
H    -1.204566  -4.223460  6.130405
H    -3.427069  -3.123825  6.090645
O    3.356203  -0.663928  1.864781
H    -1.446046  0.194724  4.753106
Pb    4.097792  0.329171  -0.078938
