24
Energy: -605240.36765 eV PBE+vdW (tier 2 basis)
N    -0.250541  1.376070  1.104329
C    0.127371  0.648388  2.321220
C    1.634055  0.349371  2.146728
O    2.336126  -0.261244  3.000842
H    -0.589029  2.322134  1.279036
H    -0.929695  0.890183  0.517481
H    0.034833  1.308883  3.197153
C    -0.704610  -0.642777  2.537698
C    -0.429174  -1.454797  3.785038
C    -0.079257  -2.825035  3.689290
C    -0.580852  -0.908596  5.084835
C    0.025625  -3.637538  4.842869
C    -0.464844  -1.719516  6.234580
C    -0.183798  -3.090270  6.115881
H    -0.597278  -1.290327  1.655640
H    -1.762862  -0.338943  2.575886
H    0.052359  -3.280035  2.706036
H    -0.851880  0.141110  5.209294
H    0.252913  -4.698145  4.729845
H    -0.623443  -1.276269  7.218282
H    -0.127811  -3.719622  7.003666
O    2.132535  0.781669  1.054704
H    1.269438  1.238605  0.623960
Pb    2.159817  -1.581298  4.822708
