24
Energy: -605239.556998 eV PBE+vdW (tier 2 basis)
N    0.199230  -1.955285  1.497202
C    0.469965  -0.647603  2.094883
C    1.617478  0.026882  1.341621
O    2.846181  -0.199737  1.648289
H    0.996927  -2.591579  1.528631
H    -0.154729  -1.896031  0.542722
H    -0.412672  -0.016211  1.918441
C    0.769501  -0.758260  3.604449
C    -0.213917  -1.549042  4.421687
C    -1.579092  -1.782721  3.930231
C    0.158891  -2.112604  5.627224
C    -2.504953  -2.541704  4.767447
C    -0.769470  -2.844843  6.388569
C    -2.095526  -3.069409  5.966192
H    0.806364  0.262778  4.024829
H    1.777283  -1.170704  3.761058
H    -1.412572  -2.339323  2.957164
H    1.174270  -1.990322  6.005270
H    -3.523837  -2.688023  4.406588
H    -0.444699  -3.261362  7.343920
H    -2.775950  -3.647380  6.589403
O    1.347902  0.773706  0.328609
H    -2.059435  -0.871376  3.524617
Pb    3.573860  1.164152  -0.073043
