24
Energy: -605238.752681 eV PBE+vdW (tier 2 basis)
N    0.064983  1.097713  0.314153
C    0.002422  0.381313  1.572701
C    1.424460  -0.133779  1.472263
O    2.424911  0.515722  1.914641
H    0.038824  2.112215  0.336272
H    -0.363901  0.658899  -0.496945
H    -0.028084  1.086583  2.412783
C    -1.126385  -0.658348  1.720599
C    -1.153654  -1.686078  0.613760
C    -1.801671  -1.434702  -0.602826
C    -0.449222  -2.908940  0.762866
C    -1.736463  -2.360868  -1.647746
C    -0.392339  -3.838015  -0.293056
C    -1.019083  -3.553715  -1.503219
H    -2.065391  -0.087466  1.741070
H    -1.028872  -1.140909  2.703889
H    -2.402412  -0.531344  -0.723680
H    -0.097421  -3.209213  1.755026
H    -2.263651  -2.156454  -2.579341
H    0.111363  -4.793034  -0.145771
H    -0.987034  -4.273441  -2.319812
O    1.754649  -1.259921  0.816844
H    0.917911  -1.907931  0.618422
Pb    4.189695  -0.758037  1.339096
