24
Energy: -605239.486663 eV PBE+vdW (tier 2 basis)
N    -0.795919  -1.223024  1.184403
C    0.308517  -0.738687  1.976114
C    1.508481  -0.199867  1.174012
O    1.392451  -0.010263  -0.090606
H    -0.538736  -1.994895  0.568906
H    -1.229202  -0.495907  0.617005
H    -0.034830  0.151272  2.538007
C    0.783883  -1.789820  3.010969
C    -0.152719  -2.088745  4.149629
C    0.450263  -2.576855  5.411458
C    -1.527791  -1.966453  4.085321
C    -0.442044  -2.959773  6.514452
C    -2.326071  -2.322556  5.188846
C    -1.800006  -2.830673  6.395874
H    1.761502  -1.492308  3.415059
H    0.963748  -2.743435  2.479253
H    1.151030  -1.804169  5.802548
H    -1.997085  -1.625143  3.163134
H    0.013291  -3.332419  7.433269
H    -3.408359  -2.207696  5.099496
H    -2.467560  -3.105122  7.211123
O    2.614008  0.108868  1.758060
H    1.167200  -3.400906  5.209242
Pb    3.500953  0.899577  -0.218575
