24
Energy: -605240.311057 eV PBE+vdW (tier 2 basis)
N    1.453220  -2.659732  -0.103643
C    1.251552  -1.165173  -0.182645
C    2.470764  -0.446207  0.342822
O    2.608095  0.799313  0.090158
H    1.893595  -3.052847  -0.945180
H    2.038613  -2.906998  0.709544
H    1.091138  -0.901608  -1.235254
C    -0.032368  -0.784614  0.639922
C    -1.173403  -1.686138  0.249527
C    -1.445323  -2.843672  1.007934
C    -1.932221  -1.425839  -0.904108
C    -2.466537  -3.716634  0.621731
C    -2.952510  -2.295817  -1.280584
C    -3.216106  -3.444231  -0.524097
H    -0.242929  0.270374  0.424104
H    0.188304  -0.872752  1.713843
H    -0.910909  -3.024342  1.944773
H    0.497251  -3.087691  0.018441
H    -2.689454  -4.593707  1.227787
H    -3.553589  -2.075478  -2.161816
H    -4.017527  -4.118778  -0.822513
O    3.316173  -1.060719  1.087559
H    -1.745057  -0.525908  -1.492771
Pb    4.537228  0.945196  1.353468
