24
Energy: -605238.938685 eV PBE+vdW (tier 2 basis)
N    -1.225030  -1.003455  0.256858
C    -0.425153  -0.600671  1.385955
C    0.896982  -0.018838  0.929647
O    1.025310  0.409128  -0.273551
H    -1.030061  -0.488029  -0.598822
H    -2.224732  -0.994706  0.446284
H    -0.871047  0.236825  1.971978
C    -0.270449  -1.843611  2.307935
C    0.233337  -1.610143  3.790711
C    -0.659417  -0.781433  4.617487
C    0.648916  -2.886729  4.393490
C    -1.090357  -1.195909  5.851931
C    0.211277  -3.282052  5.633771
C    -0.664468  -2.445353  6.353739
H    0.398032  -2.563459  1.819085
H    -1.256262  -2.321082  2.360560
H    -0.970518  0.192683  4.237161
H    1.319295  -3.528096  3.818343
H    -1.754122  -0.572614  6.449731
H    0.527448  -4.232881  6.060786
H    -1.019547  -2.769135  7.334062
O    1.896322  0.086770  1.739682
H    1.171443  -1.014176  3.653066
Pb    3.189801  1.066967  0.072111
