24
Energy: -605239.231875 eV PBE+vdW (tier 2 basis)
N    0.377427  1.083124  0.095068
C    0.246235  0.453511  1.376413
C    1.669441  0.018122  1.724388
O    2.392765  0.817874  2.426918
H    -0.133939  1.948230  -0.040468
H    0.389919  0.488045  -0.726053
H    0.008221  1.234770  2.109615
C    -0.856591  -0.662584  1.583810
C    -1.013399  -1.687811  0.514743
C    -1.691062  -1.404905  -0.661459
C    -0.466818  -3.049201  0.696204
C    -1.847942  -2.387694  -1.653625
C    -0.674482  -4.035007  -0.373274
C    -1.345601  -3.701233  -1.519323
H    -1.801100  -0.105388  1.665542
H    -0.675125  -1.135320  2.559379
H    -2.141047  -0.424037  -0.814653
H    -0.834230  -3.478869  1.653776
H    -2.395601  -2.127283  -2.561777
H    -0.287162  -5.043770  -0.222307
H    -1.508047  -4.430037  -2.311857
O    2.194499  -1.070078  1.275320
H    0.621128  -2.970904  0.918176
Pb    4.266508  -0.422557  2.158444
