24
Energy: -605240.523802 eV PBE+vdW (tier 2 basis)
N    0.011786  -0.596428  -0.159887
C    -0.059029  -0.325416  1.328102
C    1.415037  0.003449  1.701926
O    1.605405  0.493287  2.894159
H    1.067444  -0.639750  -0.318213
H    -0.375602  0.169533  -0.725092
H    -0.698496  0.550421  1.490507
C    -0.595031  -1.569802  2.074718
C    -0.674057  -1.463615  3.585654
C    -1.550065  -0.556883  4.224806
C    0.081654  -2.338482  4.400881
C    -1.713277  -0.571683  5.624189
C    -0.094030  -2.361276  5.802562
C    -1.003671  -1.489235  6.414306
H    0.031981  -2.435501  1.814903
H    -1.611221  -1.786464  1.707189
H    -2.153221  0.133535  3.633135
H    0.768476  -3.050445  3.940191
H    -2.420751  0.116649  6.087114
H    0.468957  -3.078695  6.400201
H    -1.159783  -1.522725  7.492121
O    2.278609  -0.218927  0.866952
H    -0.436812  -1.472057  -0.456085
Pb    1.173699  0.234513  5.009662
