28
Energy: -609834.9702736  eV PBE+vdW (tier 2 basis)
C    -0.70637  -0.42687  0.44374
C    -0.59409  -0.51339  1.94429
O    0.36354  -1.01371  2.53327
H    -0.36411  -1.36939  0.00294
H    -0.03150  0.36353  0.08754
H    -1.72064  -0.20281  0.09287
N    -1.63960  -0.00228  2.67688
C    -1.47889  0.12998  4.11490
C    -1.03882  -1.19018  4.76945
O    -0.12955  -1.19891  5.66552
H    -2.39649  0.49364  2.21956
H    -0.63138  0.80535  4.30805
C    -2.76188  0.70547  4.78714
C    -2.49223  1.91328  5.72376
C    -1.36360  1.53848  6.64191
O    -1.55510  0.68059  7.57254
O    -0.17529  1.93429  6.35574
H    -3.27521  -0.07685  5.36085
H    -3.46384  1.03337  4.00861
H    -2.20641  2.79975  5.14610
H    -3.39946  2.13172  6.29964
N    -1.64714  -2.34553  4.51223
C    -2.69133  -2.66551  3.54423
H    -1.23504  -3.13148  5.01113
H    -3.20664  -3.56615  3.89337
H    -3.42433  -1.85880  3.46935
H    -2.26635  -2.86184  2.55100
Pb    0.68991  0.04379  7.39241
