28
Energy: -609835.3145723  eV PBE+vdW (tier 2 basis)
C    0.24813  -0.61553  0.33050
C    0.00460  -0.17934  1.74221
O    0.99323  -0.06576  2.54497
H    0.82652  0.16308  -0.18624
H    0.85777  -1.52743  0.33801
H    -0.67589  -0.79733  -0.22755
N    -1.24890  0.06347  2.11040
C    -1.74070  0.36018  3.45244
C    -2.90717  -0.64105  3.66357
O    -3.51133  -1.06438  2.67726
H    -2.01051  -0.24743  1.49487
H    -0.91846  0.19320  4.15823
C    -2.30165  1.80079  3.60999
C    -1.47568  2.93546  2.97117
C    0.00089  2.77699  3.18991
O    0.44351  2.40216  4.33504
O    0.80591  2.89988  2.19774
H    -2.41351  1.98021  4.68713
H    -3.30998  1.84111  3.17513
H    -1.79545  3.89300  3.40950
H    -1.64808  3.00439  1.89126
N    -3.20640  -0.93540  4.94473
C    -4.32524  -1.78942  5.32631
H    -2.62288  -0.55024  5.67915
H    -3.96891  -2.66825  5.87780
H    -5.03792  -1.23607  5.95064
H    -4.82681  -2.11821  4.41175
Pb    2.36591  1.58991  3.30309
