28
Energy: -609835.2415595  eV PBE+vdW (tier 2 basis)
C    -1.20174  -0.77648  -0.79516
C    -0.40803  -0.99161  0.45326
O    0.87677  -0.97688  0.39421
H    -2.19687  -0.36060  -0.60994
H    -1.30730  -1.73562  -1.32271
H    -0.63939  -0.09982  -1.44709
N    -0.98927  -1.21309  1.62474
C    -2.36293  -1.58463  1.94789
C    -2.72449  -0.76335  3.21136
O    -1.83291  -0.50838  4.01821
H    -0.38673  -1.21130  2.45431
H    -3.01224  -1.35415  1.09398
C    -2.43611  -3.09344  2.31110
C    -1.88192  -4.06383  1.25461
C    -0.40260  -3.90293  0.99391
O    0.42118  -3.76378  1.96797
O    0.01916  -3.84248  -0.21536
H    -3.48967  -3.34064  2.50019
H    -1.90025  -3.24128  3.25906
H    -2.03804  -5.09115  1.61958
H    -2.40840  -3.98341  0.29520
N    -4.02576  -0.43186  3.35127
C    -4.54341  0.27063  4.51967
H    -4.67264  -0.67023  2.60777
H    -3.71382  0.42200  5.21629
H    -4.95574  1.24642  4.23396
H    -5.32530  -0.32216  5.01032
Pb    2.05745  -2.93895  0.51139
