28
Energy: -609835.0166298  eV PBE+vdW (tier 2 basis)
C    0.15362  0.44221  -0.13789
C    -0.25446  0.51067  1.31212
O    -0.34075  1.54792  1.94908
H    -0.70508  0.73889  -0.75654
H    0.48223  -0.55521  -0.45441
H    0.95225  1.16872  -0.32032
N    -0.52744  -0.72275  1.92018
C    -1.20359  -0.73658  3.20730
C    -0.29452  -1.26851  4.31983
O    -0.75016  -1.51398  5.48648
H    -0.63623  -1.53000  1.31303
H    -1.32461  0.33763  3.45504
C    -2.61976  -1.34719  3.15044
C    -2.73969  -2.87122  2.87843
C    -2.25703  -3.59453  4.10077
O    -2.98260  -3.56849  5.16047
O    -1.06170  -4.06006  4.15019
H    -3.15342  -0.81120  2.35508
H    -3.14354  -1.11713  4.08677
H    -3.79752  -3.10748  2.70949
H    -2.16708  -3.19246  1.99960
N    0.99263  -1.37812  4.03516
C    2.01890  -1.79389  4.97632
H    1.24011  -1.15905  3.07035
H    2.98528  -1.40029  4.64741
H    1.79372  -1.39641  5.97209
H    2.09175  -2.89105  5.02144
Pb    -1.08330  -3.58546  6.45107
