28
Energy: -609834.5098762  eV PBE+vdW (tier 2 basis)
C    -0.23617  -1.71360  -0.41482
C    0.19313  -0.84494  0.74718
O    1.36476  -0.67306  1.04247
H    0.58129  -2.40497  -0.63683
H    -0.38950  -1.07768  -1.29850
H    -1.15951  -2.28051  -0.24812
N    -0.78177  -0.18515  1.49274
C    -2.23801  -0.22106  1.40538
C    -2.75194  -1.65235  1.67087
O    -3.45615  -2.30108  0.82849
H    -0.37127  0.44508  2.17642
H    -2.59207  0.36161  2.27304
C    -2.78212  0.47659  0.13808
C    -4.19815  1.10060  0.25637
C    -5.19342  -0.01166  0.33518
O    -5.49840  -0.65380  -0.73598
O    -5.58587  -0.44753  1.47904
H    -2.75283  -0.20170  -0.72400
H    -2.08133  1.29362  -0.07377
H    -4.27591  1.74470  1.14104
H    -4.38968  1.69885  -0.64266
N    -2.40967  -2.24699  2.81334
C    -1.60736  -1.73163  3.92152
H    -2.71556  -3.21512  2.88366
H    -1.81353  -2.34852  4.80128
H    -0.53577  -1.77486  3.69113
H    -1.88637  -0.69886  4.15846
Pb    -5.75247  -2.55627  0.51031
