28
Energy: -609833.4280600  eV PBE+vdW (tier 2 basis)
C    -0.09833  -0.14716  0.24427
C    -0.23941  -0.11475  1.75049
O    0.74917  -0.08515  2.47812
H    -0.90366  0.34452  -0.30914
H    0.86223  0.31014  -0.00901
H    -0.06586  -1.19601  -0.08359
N    -1.48938  -0.18245  2.33792
C    -2.84924  -0.07855  1.81094
C    -3.05755  -0.77216  0.44602
O    -3.42691  -0.13021  -0.54486
H    -1.41115  -0.20249  3.35255
H    -3.47627  -0.64415  2.52028
C    -3.40894  1.35826  1.81841
C    -2.69189  2.31128  0.86198
C    -3.26274  3.67169  0.76131
O    -4.45485  3.94936  1.18006
O    -2.57894  4.62244  0.20051
H    -3.34548  1.73483  2.84941
H    -4.47439  1.31330  1.55753
H    -2.77117  1.87848  -0.15805
H    -1.61655  2.41401  1.06724
N    -2.85632  -2.10952  0.39074
C    -2.45328  -3.02008  1.45424
H    -3.00538  -2.49965  -0.53599
H    -1.37104  -2.98948  1.64147
H    -2.72918  -4.03755  1.15976
H    -2.97565  -2.79403  2.39209
Pb    -4.27064  6.09101  0.44696
