28
Energy: -609834.8390997  eV PBE+vdW (tier 2 basis)
C    -0.32403  -0.34890  -0.04276
C    -0.60429  0.27487  1.28983
O    -0.12014  1.41985  1.56082
H    0.76041  -0.35524  -0.21042
H    -0.77455  0.27244  -0.82875
H    -0.70899  -1.37020  -0.13457
N    -1.35446  -0.41303  2.15851
C    -1.66282  0.00165  3.53117
C    -0.94320  -0.88895  4.58489
O    -0.11589  -0.35458  5.31173
H    -1.65712  -1.33192  1.84906
H    -1.15225  0.95879  3.66341
C    -3.16306  0.21904  3.81550
C    -3.89999  1.12974  2.80257
C    -3.04748  2.27985  2.34392
O    -2.86706  2.48072  1.08965
O    -2.40040  2.97689  3.20589
H    -3.21085  0.66146  4.81945
H    -3.71127  -0.72986  3.86433
H    -4.80538  1.52951  3.28234
H    -4.21996  0.57500  1.91327
N    -1.20952  -2.22658  4.65469
C    -2.29625  -3.01032  4.08600
H    -0.67404  -2.67519  5.39476
H    -1.98966  -4.06148  4.05236
H    -2.52868  -2.71735  3.05482
H    -3.22280  -2.94131  4.67609
Pb    -0.87370  3.59192  1.56894
