28
Energy: -609835.1197304  eV PBE+vdW (tier 2 basis)
C    0.13151  1.21060  0.85793
C    -0.12445  0.28019  2.00141
O    0.57884  0.33115  3.04530
H    -0.50694  1.01784  -0.01009
H    1.18083  1.08735  0.55619
H    0.01544  2.24997  1.18944
N    -1.10211  -0.66618  1.90514
C    -2.47612  -0.36164  1.50276
C    -2.90323  0.99812  2.10809
O    -2.26108  1.54597  3.04130
H    -1.08983  -1.29565  2.71746
H    -2.54343  -0.28633  0.40632
C    -3.40409  -1.53046  1.96238
C    -3.96544  -1.51591  3.41185
C    -3.00143  -0.96841  4.44611
O    -1.77744  -1.40825  4.43915
O    -3.33145  -0.00460  5.18407
H    -2.83621  -2.45289  1.78233
H    -4.26608  -1.57090  1.28456
H    -4.23512  -2.54688  3.68138
H    -4.88043  -0.91628  3.47342
N    -3.99609  1.56718  1.60240
C    -4.57023  2.80712  2.12369
H    -4.44424  1.12539  0.80623
H    -4.69937  2.72993  3.20906
H    -5.54326  2.96558  1.65136
H    -3.91773  3.66111  1.90307
Pb    -0.95682  0.71588  4.96769
