28
Energy: -609834.9854990  eV PBE+vdW (tier 2 basis)
C    -3.01531  -1.70836  0.57713
C    -1.73818  -1.02253  0.98943
O    -0.63726  -1.57247  0.98677
H    -2.95835  -1.93798  -0.49496
H    -3.91589  -1.11192  0.76272
H    -3.09368  -2.66292  1.10992
N    -1.83984  0.28863  1.38298
C    -0.64790  1.04506  1.70804
C    0.24247  0.24857  2.67583
O    -0.19759  -0.15840  3.80116
H    -2.73921  0.75501  1.40682
H    -0.04544  1.19452  0.79366
C    -1.08242  2.43435  2.24285
C    -0.01777  3.28338  2.97438
C    0.23406  2.68777  4.33592
O    1.38469  2.21427  4.64346
O    -0.76757  2.50327  5.11868
H    -1.92907  2.29789  2.92932
H    -1.44894  3.00402  1.37844
H    -0.42214  4.29688  3.10281
H    0.92485  3.35986  2.42003
N    1.51243  0.09737  2.32662
C    2.50366  -0.59908  3.13016
H    1.75969  0.34564  1.37440
H    2.06536  -1.50629  3.56296
H    3.34140  -0.88410  2.48781
H    2.88827  0.05606  3.92518
Pb    0.25969  0.59850  5.92348
