28
Energy: -609835.2795235  eV PBE+vdW (tier 2 basis)
C    -1.33570  0.81772  -1.84117
C    -0.92421  -0.24851  -0.87840
O    -0.40971  -1.33375  -1.33488
H    -2.29287  0.52923  -2.29935
H    -0.59046  0.87002  -2.64283
H    -1.44856  1.80295  -1.37839
N    -1.08594  -0.10669  0.42912
C    -1.92372  0.83462  1.16677
C    -1.49366  0.62513  2.64227
O    -0.87969  -0.40260  2.94036
H    -0.71413  -0.82731  1.07258
H    -1.71578  1.86476  0.84741
C    -3.43189  0.52614  0.95866
C    -3.84505  -0.92999  1.26410
C    -3.19876  -1.92301  0.32728
O    -2.39934  -2.81245  0.78932
O    -3.39959  -1.83513  -0.93707
H    -3.70357  0.77120  -0.07700
H    -4.02005  1.19719  1.59775
H    -4.93400  -1.00678  1.13502
H    -3.60157  -1.21551  2.29421
N    -1.83866  1.56143  3.55118
C    -2.53535  2.82584  3.35744
H    -1.56343  1.31776  4.49964
H    -2.15898  3.55302  4.08493
H    -3.62143  2.72674  3.49853
H    -2.34394  3.23406  2.35903
Pb    -1.59495  -3.29207  -1.34052
