28
Energy: -609835.2401198  eV PBE+vdW (tier 2 basis)
C    0.20469  -0.02932  -0.03491
C    -0.00279  -0.31675  1.43020
O    0.92396  -0.86959  2.05928
H    0.42898  -0.97422  -0.54557
H    1.08601  0.61510  -0.14353
H    -0.65109  0.44918  -0.52314
N    -1.20209  0.06224  1.93322
C    -1.85622  -0.05542  3.24878
C    -0.99137  0.42803  4.43792
O    0.25999  0.48340  4.44384
H    -1.80471  0.48312  1.23466
H    -2.64762  0.70701  3.18909
C    -2.63970  -1.39186  3.47462
C    -1.93373  -2.73209  3.21650
C    -0.58882  -2.81359  3.89645
O    -0.43693  -2.16433  4.99907
O    0.39959  -3.33982  3.30403
H    -3.52676  -1.35256  2.82641
H    -3.01169  -1.36967  4.50798
H    -1.78043  -2.91721  2.14651
H    -2.58375  -3.54116  3.58198
N    -1.69721  0.87106  5.48422
C    -1.07412  1.28396  6.73775
H    -2.71020  0.85208  5.44245
H    -0.23257  1.95347  6.53215
H    -0.70927  0.41087  7.29544
H    -1.81738  1.81190  7.34142
Pb    1.67421  -1.49485  4.20719
