28
Energy: -609833.8035648  eV PBE+vdW (tier 2 basis)
C    -0.13251  0.02378  -0.08587
C    -0.56546  0.48710  1.28431
O    -0.61554  1.68316  1.58999
H    -0.00625  -1.06155  -0.17158
H    0.80979  0.52070  -0.34466
H    -0.88173  0.35261  -0.81825
N    -0.90878  -0.50202  2.17093
C    -1.35000  -0.31206  3.54856
C    -2.78621  0.28779  3.72226
O    -3.56204  -0.28456  4.48751
H    -0.93732  -1.45180  1.81820
H    -1.44892  -1.31893  3.97211
C    -0.36822  0.49105  4.42475
C    1.03192  -0.17481  4.47893
C    1.92681  0.63218  5.34746
O    2.06957  0.34658  6.60111
O    2.54543  1.66859  4.88100
H    -0.79761  0.53327  5.43514
H    -0.27283  1.51392  4.04232
H    1.45892  -0.21256  3.46806
H    0.95908  -1.19022  4.88883
N    -3.05766  1.41192  3.03713
C    -4.35149  2.07424  3.12189
H    -2.30140  1.81670  2.47689
H    -4.50682  2.66939  2.21644
H    -4.41046  2.73491  3.99870
H    -5.14449  1.32315  3.20567
Pb    3.46315  2.11502  6.90780
