28
Energy: -609835.3090051  eV PBE+vdW (tier 2 basis)
C    0.11920  -0.38909  0.29108
C    -0.09738  -0.08154  1.74055
O    0.89737  -0.10188  2.54346
H    -0.81434  -0.46030  -0.27612
H    0.74210  0.40170  -0.14979
H    0.67409  -1.33135  0.20425
N    -1.33508  0.19174  2.13959
C    -1.80863  0.38034  3.50742
C    -3.02808  -0.57165  3.62287
O    -3.65454  -0.86899  2.60455
H    -2.11337  -0.01631  1.50167
H    -0.99698  0.09888  4.18858
C    -2.28872  1.82704  3.81024
C    -1.40301  2.97175  3.27848
C    0.06297  2.71303  3.47141
O    0.48549  2.20381  4.57135
O    0.87265  2.88934  2.49117
H    -2.38752  1.90540  4.90064
H    -3.29446  1.96530  3.38971
H    -1.66956  3.89855  3.80880
H    -1.57254  3.15374  2.21130
N    -3.35968  -0.97527  4.86354
C    -4.53317  -1.80686  5.11863
H    -2.76993  -0.71189  5.64391
H    -5.44153  -1.31025  4.75671
H    -4.44184  -2.77423  4.60930
H    -4.61684  -1.97258  6.19631
Pb    2.35934  1.39361  3.45241
