28
Energy: -609835.1321553  eV PBE+vdW (tier 2 basis)
C    -0.42788  0.32287  0.85007
C    -0.20982  -0.67216  1.94156
O    0.97745  -0.91450  2.35723
H    0.37984  1.06100  0.88072
H    -1.39748  0.82725  0.91682
H    -0.36828  -0.19456  -0.12038
N    -1.23870  -1.32508  2.49121
C    -2.57495  -1.55053  1.91817
C    -3.74550  -0.85000  2.65738
O    -4.88571  -1.07840  2.27705
H    -0.96867  -1.99020  3.21850
H    -2.57821  -1.13884  0.89951
C    -2.83468  -3.06758  1.85319
C    -1.90570  -3.84178  0.89543
C    -0.44418  -3.68911  1.22914
O    -0.01320  -3.97876  2.40776
O    0.36398  -3.20065  0.36222
H    -3.87481  -3.19461  1.52982
H    -2.76622  -3.49026  2.86735
H    -2.15476  -4.91126  0.96374
H    -2.05614  -3.53080  -0.14550
N    -3.41017  -0.01490  3.67147
C    -4.40498  0.71962  4.44216
H    -2.43040  0.11245  3.89482
H    -5.39378  0.43941  4.06686
H    -4.33671  0.46202  5.50653
H    -4.26922  1.80218  4.32402
Pb    2.03189  -2.93181  1.97714
