28
Energy: -609834.9955009  eV PBE+vdW (tier 2 basis)
C    0.99376  0.58824  1.09545
C    0.05060  0.71482  2.23857
O    0.52213  0.99438  3.40534
H    0.53222  0.15537  0.20669
H    1.81589  -0.06372  1.41932
H    1.42685  1.57756  0.88924
N    -1.27518  0.56958  2.14151
C    -2.19685  0.65136  0.99318
C    -2.13905  -0.60719  0.08995
O    -1.10276  -1.24678  -0.05279
H    -1.73588  0.65769  3.04510
H    -3.18876  0.68978  1.46465
C    -2.00543  1.95745  0.18976
C    -2.28649  3.24419  1.00249
C    -1.35420  3.40664  2.17751
O    -1.78508  3.22283  3.37326
O    -0.11385  3.65595  1.97429
H    -2.69409  1.94073  -0.66526
H    -0.99445  1.99171  -0.23599
H    -3.31999  3.25494  1.37054
H    -2.14727  4.10695  0.33680
N    -3.29353  -0.92893  -0.54949
C    -4.62134  -0.34684  -0.39719
H    -3.19903  -1.74201  -1.15207
H    -4.65558  0.70722  -0.70638
H    -5.31037  -0.89723  -1.04458
H    -4.99701  -0.43385  0.63265
Pb    0.41100  3.12800  4.20040
