28
Energy: -609834.2780636  eV PBE+vdW (tier 2 basis)
C    0.03476  0.49577  -0.35387
C    -0.08918  -0.34747  0.89486
O    0.76943  -1.16021  1.20150
H    0.05030  1.56771  -0.12222
H    -0.77640  0.31036  -1.06967
H    0.98067  0.22380  -0.82956
N    -1.17127  -0.20619  1.77297
C    -2.43888  0.52030  1.83722
C    -3.59255  -0.51031  1.86128
O    -4.31484  -0.62395  2.91239
H    -1.00502  -0.80131  2.58324
H    -2.48905  0.95246  2.84589
C    -2.58819  1.71421  0.86666
C    -3.97574  2.41609  0.81497
C    -4.76970  2.24299  2.07803
O    -5.92751  1.69483  2.02434
O    -4.22635  2.49238  3.21528
H    -2.34770  1.42652  -0.16034
H    -1.82272  2.43632  1.17604
H    -3.81591  3.48844  0.63583
H    -4.58405  2.03324  -0.01143
N    -3.81079  -1.36444  0.86754
C    -3.07047  -1.53706  -0.37975
H    -4.54731  -2.04059  1.06280
H    -3.67219  -2.16434  -1.04343
H    -2.90849  -0.57665  -0.87728
H    -2.10493  -2.02710  -0.20221
Pb    -5.58485  0.85488  4.16132
