28
Energy: -609835.3107472  eV PBE+vdW (tier 2 basis)
C    0.23420  -0.31807  1.01789
C    -0.15976  -0.27574  2.46637
O    0.70162  -0.41636  3.36613
H    -0.53214  0.06940  0.33729
H    0.43848  -1.36668  0.75876
H    1.16391  0.24536  0.88279
N    -1.47263  -0.07911  2.72441
C    -2.17791  -0.04307  4.01368
C    -1.23380  0.25137  5.20172
O    -0.60913  -0.62206  5.84993
H    -2.07112  0.02468  1.91091
H    -2.83572  0.83649  3.94672
C    -3.14033  -1.25130  4.27899
C    -2.82519  -2.62194  3.63591
C    -1.45772  -3.08439  4.06739
O    -1.24038  -3.36983  5.28470
O    -0.48780  -2.97430  3.22781
H    -4.13697  -0.95145  3.92932
H    -3.21701  -1.37962  5.36707
H    -2.86732  -2.57396  2.54175
H    -3.58876  -3.32934  3.98390
N    -1.19596  1.53003  5.58633
C    -0.38684  1.99971  6.70712
H    -1.74247  2.21073  5.07059
H    -0.69410  3.01848  6.95805
H    0.67892  1.99702  6.44387
H    -0.53866  1.34840  7.57460
Pb    0.88160  -2.27545  4.98397
