28
Energy: -609835.1952220  eV PBE+vdW (tier 2 basis)
C    -0.14363  -0.08977  -0.48737
C    -0.42082  0.34351  0.92740
O    0.16662  -0.16589  1.89420
H    -0.50901  -1.11809  -0.61273
H    0.94021  -0.10922  -0.64835
H    -0.61541  0.54528  -1.24557
N    -1.35898  1.32618  1.08851
C    -1.93191  1.76127  2.36861
C    -0.90920  2.52435  3.23945
O    -1.12166  3.74338  3.57740
H    -1.77792  1.71384  0.25127
H    -2.67877  2.51929  2.11106
C    -2.66906  0.57641  3.06292
C    -3.08512  0.74343  4.54779
C    -3.31645  2.17928  4.91903
O    -4.03637  2.92756  4.16106
O    -2.66437  2.69385  5.89630
H    -2.03406  -0.31452  3.00038
H    -3.55667  0.38657  2.44706
H    -4.00940  0.17410  4.72042
H    -2.32244  0.34368  5.22432
N    0.18423  1.89132  3.60461
C    1.22915  2.48204  4.43037
H    0.31312  0.95281  3.15713
H    2.08045  1.79676  4.45110
H    1.54764  3.44875  4.02212
H    0.86614  2.63372  5.45558
Pb    -2.75330  4.75310  4.82793
