28
Energy: -609833.5487417  eV PBE+vdW (tier 2 basis)
C    0.20280  -1.01191  2.47490
C    -0.49331  0.32623  2.36384
O    0.03378  1.36985  2.72292
H    0.81348  -1.17693  1.57559
H    0.88643  -0.96269  3.32800
H    -0.47527  -1.86392  2.59575
N    -1.78398  0.37271  1.83893
C    -2.55585  -0.65234  1.15566
C    -3.07313  -1.80715  2.07824
O    -3.38462  -2.88992  1.58938
H    -2.13372  1.32717  1.79691
H    -3.47723  -0.14609  0.82473
C    -1.88825  -1.25771  -0.09157
C    -1.51562  -0.16780  -1.11855
C    -0.88983  -0.78519  -2.31909
O    0.26806  -1.35834  -2.23910
O    -1.49600  -0.78655  -3.45976
H    -2.59627  -1.97718  -0.52158
H    -0.99246  -1.82539  0.18757
H    -0.79021  0.53148  -0.67343
H    -2.39899  0.39890  -1.43841
N    -3.18765  -1.48508  3.38383
C    -3.72769  -2.39449  4.38317
H    -2.89893  -0.55299  3.66237
H    -4.71034  -2.05413  4.73604
H    -3.04593  -2.46593  5.23942
H    -3.83892  -3.38114  3.92360
Pb    0.22326  -1.90399  -4.44336
