28
Energy: -609834.6146496  eV PBE+vdW (tier 2 basis)
C    -0.14625  -0.48264  0.54067
C    -0.52298  -0.59568  2.00075
O    0.26127  -0.99846  2.84016
H    0.87056  -0.08048  0.47640
H    -0.10546  -1.50329  0.13236
H    -0.81561  0.11329  -0.08602
N    -1.85894  -0.36377  2.39347
C    -2.85207  0.58218  1.87951
C    -3.50735  0.09586  0.57361
O    -4.23231  0.85946  -0.14023
H    -1.92978  -0.52026  3.39841
H    -3.69608  0.48630  2.58649
C    -2.48200  2.08625  1.98529
C    -1.43808  2.71586  1.02904
C    -2.05121  2.80305  -0.33519
O    -1.76382  1.93683  -1.24035
O    -3.00878  3.63693  -0.53101
H    -2.11379  2.22084  3.01097
H    -3.40887  2.67072  1.91198
H    -0.49670  2.15930  1.00080
H    -1.23136  3.73108  1.39130
N    -3.38287  -1.19575  0.31016
C    -4.00666  -1.88570  -0.80816
H    -2.80563  -1.71419  0.97402
H    -3.35590  -1.86587  -1.69395
H    -4.18206  -2.92912  -0.52915
H    -4.96451  -1.41230  -1.04707
Pb    -3.94394  2.17216  -2.02900
