28
Energy: -609835.2002163  eV PBE+vdW (tier 2 basis)
C    -2.51648  -0.87184  -0.70510
C    -1.42418  -0.35368  0.19066
O    -0.22242  -0.47243  -0.08742
H    -2.29445  -1.91001  -0.97721
H    -2.51212  -0.28487  -1.63338
H    -3.51535  -0.81559  -0.25778
N    -1.81856  0.27444  1.34142
C    -0.86561  0.98037  2.19946
C    -0.13000  -0.04515  3.10051
O    -0.34373  -0.16136  4.35377
H    -2.80532  0.32069  1.57239
H    -0.09262  1.38753  1.52720
C    -1.57094  2.14169  2.91336
C    -0.64254  3.24465  3.48477
C    0.10751  2.68353  4.65434
O    1.29371  2.21824  4.49486
O    -0.51286  2.50318  5.76423
H    -2.22552  1.76577  3.71287
H    -2.21397  2.62288  2.16382
H    -1.26643  4.08107  3.82272
H    0.05954  3.60348  2.72270
N    0.70887  -0.83119  2.45040
C    1.46467  -1.91032  3.06678
H    0.69286  -0.72357  1.41368
H    2.37092  -1.52440  3.55633
H    0.85060  -2.43644  3.80693
H    1.77256  -2.61210  2.28648
Pb    0.81286  0.66743  6.16821
