28
Energy: -609833.8252904  eV PBE+vdW (tier 2 basis)
C    -0.01536  0.04214  0.05790
C    -0.28302  0.59542  1.43585
O    0.41809  1.51845  1.89922
H    0.07602  0.87000  -0.65407
H    -0.78841  -0.65527  -0.28303
H    0.94949  -0.48191  0.07582
N    -1.29751  0.03096  2.12239
C    -1.62323  0.27377  3.51945
C    -2.58949  -0.86862  3.90581
O    -3.20082  -1.47850  3.02846
H    -1.88535  -0.69613  1.70593
H    -0.69938  0.20337  4.11704
C    -2.28570  1.65327  3.76367
C    -1.23493  2.76598  3.86857
C    -1.64898  4.11865  3.49882
O    -0.99617  5.15427  3.94531
O    -2.61880  4.34118  2.66180
H    -2.89197  1.62431  4.67958
H    -2.97606  1.84746  2.93322
H    -0.41763  2.49964  3.12240
H    -0.72192  2.79775  4.83884
N    -2.74534  -1.13539  5.22640
C    -1.97186  -0.61214  6.34467
H    -3.40377  -1.88643  5.41154
H    -2.28668  -1.13530  7.25247
H    -2.14364  0.46165  6.50603
H    -0.89396  -0.78484  6.21709
Pb    -2.22451  6.56072  2.70430
