28
Energy: -609835.0332313  eV PBE+vdW (tier 2 basis)
 C   -0.18787    1.51483    0.58675
 C   -0.31493    0.69776    1.84673
 O    0.04402    1.08119    2.95524
 H   -0.25039    0.91609   -0.32966
 H    0.76154    2.06002    0.60705
 H   -0.99418    2.26154    0.56979
 N   -0.86455   -0.56888    1.71080
 C   -1.25594   -1.27515    2.92365
 C   -0.01101   -1.57401    3.77566
 O   -0.00935   -1.48052    5.04225
 H   -1.32722   -0.81785    0.84173
 H   -1.86695   -0.61022    3.54895
 C   -2.10613   -2.50742    2.51872
 C   -2.46058   -3.55410    3.60407
 C   -2.54430   -2.96236    4.98498
 O   -3.10448   -1.81685    5.15333
 O   -1.90952   -3.51567    5.94874
 H   -1.59088   -3.04341    1.70832
 H   -3.03247   -2.09703    2.09472
 H   -3.42620   -4.01422    3.34967
 H   -1.72176   -4.36204    3.64112
 N    1.08008   -1.97408    3.13821
 C    2.35634   -2.24638    3.78883
 H    1.04646   -1.91171    2.12350
 H    3.00841   -2.76194    3.07845
 H    2.83463   -1.31120    4.10964
 H    2.20002   -2.88478    4.66441
Pb   -1.50979   -1.38361    6.79033
