28
Energy: -609833.8336713  eV PBE+vdW (tier 2 basis)
C    -0.43344  0.21944  -0.22833
C    -0.10644  0.11905  1.24256
O    1.05905  0.11388  1.65726
H    0.06228  1.10637  -0.64081
H    -1.50636  0.27063  -0.44586
H    -0.00890  -0.65455  -0.73887
N    -1.17584  0.04826  2.09149
C    -1.13764  -0.20488  3.53064
C    -0.50261  0.87346  4.43973
O    -0.89599  0.92668  5.62017
H    -2.09889  0.11506  1.67955
H    -2.18961  -0.21822  3.84565
C    -0.51114  -1.57991  3.88337
C    -0.82313  -1.96489  5.33553
C    0.20479  -2.73254  6.05759
O    1.46058  -2.67054  5.74093
O    -0.12199  -3.45435  7.08822
H    0.57103  -1.53824  3.71173
H    -0.92284  -2.33304  3.19825
H    -0.91921  -1.00984  5.92055
H    -1.79155  -2.46693  5.45916
N    0.45853  1.65382  3.92945
C    1.13831  2.66496  4.72406
H    0.85785  1.35379  3.03172
H    1.50377  3.45622  4.06139
H    0.43678  3.09116  5.44795
H    1.99099  2.24115  5.27532
Pb    2.02335  -4.01375  7.46984
