28
Energy: -609834.7970450  eV PBE+vdW (tier 2 basis)
C    -0.36102  0.80132  -0.01649
C    0.27725  -0.02183  1.05363
O    1.55626  -0.12048  1.09147
H    0.36149  1.54377  -0.36802
H    -1.27513  1.30209  0.32020
H    -0.61895  0.15309  -0.86787
N    -0.45293  -0.65916  1.96983
C    -1.86844  -1.04640  1.86336
C    -2.69499  -1.14236  3.17179
O    -3.90963  -1.18106  3.01222
H    0.10536  -1.18099  2.64451
H    -2.38926  -0.25683  1.30977
C    -2.01002  -2.35874  1.04423
C    -1.10564  -3.52515  1.49969
C    0.35331  -3.22082  1.27238
O    0.77988  -2.98681  0.08767
O    1.15602  -3.10125  2.27350
H    -1.80035  -2.14102  -0.01178
H    -3.06106  -2.66490  1.11037
H    -1.36411  -4.40829  0.89838
H    -1.26245  -3.78033  2.55516
N    -2.13896  -1.20762  4.41386
C    -0.75698  -1.24692  4.87573
H    -2.85999  -1.25457  5.12960
H    -0.77146  -1.41964  5.95624
H    -0.22793  -0.29796  4.70653
H    -0.18991  -2.08211  4.43633
Pb    2.76444  -2.07041  0.90545
