28
Energy: -609835.3719436  eV PBE+vdW (tier 2 basis)
C    -1.66627  0.47142  -1.51065
C    -1.29273  -0.09556  -0.17970
O    -0.48428  -1.09314  -0.13292
H    -0.77451  0.47984  -2.14771
H    -2.08689  1.47995  -1.45290
H    -2.40249  -0.19426  -1.98398
N    -1.77982  0.39835  0.94960
C    -2.93511  1.26305  1.16913
C    -2.83201  1.63716  2.67361
O    -2.11799  0.95891  3.41423
H    -1.43341  0.03568  1.85492
H    -2.86371  2.17027  0.55182
C    -4.26232  0.52407  0.84773
C    -4.44873  -0.82250  1.57990
C    -3.42082  -1.84995  1.16877
O    -3.33115  -2.21065  -0.05951
O    -2.59592  -2.31227  2.03459
H    -4.32638  0.36104  -0.23672
H    -5.10001  1.18374  1.11186
H    -5.44091  -1.21677  1.31835
H    -4.40401  -0.70298  2.66876
N    -3.58701  2.67983  3.07127
C    -3.64775  3.13782  4.45487
H    -4.09810  3.20627  2.37108
H    -4.68801  3.17055  4.80061
H    -3.20330  4.13633  4.55325
H    -3.08223  2.43316  5.07087
Pb    -1.23661  -3.19672  0.36586
