28
Energy: -609835.2148221  eV PBE+vdW (tier 2 basis)
C    -1.00328  0.20977  0.34980
C    -0.48285  0.63291  1.69252
O    0.36750  1.54723  1.79315
H    -0.20637  -0.35735  -0.15170
H    -1.20815  1.10036  -0.25450
H    -1.90169  -0.41546  0.39963
N    -0.98505  -0.01942  2.76753
C    -0.60096  0.13270  4.17642
C    0.06345  1.50408  4.42766
O    1.30995  1.66868  4.48087
H    -1.67263  -0.74133  2.57628
H    -1.55061  0.17007  4.72947
C    0.18030  -1.07235  4.79637
C    1.06619  -1.95574  3.88647
C    2.12689  -1.10681  3.23765
O    3.04153  -0.58192  3.94518
O    1.95430  -0.75452  2.01131
H    0.79579  -0.67838  5.61607
H    -0.56616  -1.73368  5.25581
H    1.53111  -2.71846  4.52389
H    0.47521  -2.45940  3.11281
N    -0.74858  2.52963  4.70114
C    -2.20913  2.55959  4.72449
H    -0.25720  3.39934  4.89664
H    -2.63061  2.16268  3.79345
H    -2.52421  3.60260  4.81941
H    -2.61263  2.00482  5.58244
Pb    2.73389  1.36938  2.58574
