28
Energy: -609835.3143985  eV PBE+vdW (tier 2 basis)
C    0.72505  0.67370  1.17341
C    0.14072  0.55329  2.54699
O    0.83870  0.90089  3.56017
H    0.85871  1.73883  0.93746
H    0.09879  0.21767  0.39997
H    1.71776  0.20752  1.16434
N    -1.09348  0.07295  2.65698
C    -1.81149  -0.26388  3.88237
C    -2.31397  -1.71302  3.64711
O    -2.50259  -2.09574  2.49178
H    -1.51603  -0.38305  1.83922
H    -1.10277  -0.20253  4.71664
C    -3.04378  0.64209  4.15550
C    -2.84735  2.15559  3.93464
C    -1.53130  2.65499  4.45622
O    -0.79719  3.40199  3.71421
O    -1.08943  2.23869  5.58728
H    -3.35207  0.45228  5.19180
H    -3.87467  0.31906  3.51302
H    -3.65737  2.69471  4.44887
H    -2.90882  2.42210  2.87353
N    -2.55602  -2.43933  4.75690
C    -3.10930  -3.78808  4.72276
H    -2.34083  -2.03043  5.65953
H    -4.07697  -3.82259  5.23891
H    -2.42136  -4.49817  5.19804
H    -3.24966  -4.06960  3.67530
Pb    1.07925  2.73189  4.89798
