28
Energy: -609835.0320270  eV PBE+vdW (tier 2 basis)
 C    0.02094   -0.16849    2.98788
 C   -1.23787    0.55013    3.33458
 O   -1.14779    1.68679    3.92266
 H    0.66517   -0.15270    3.87723
 H    0.54013    0.36584    2.18337
 H   -0.14749   -1.20445    2.68044
 N   -2.45314    0.01555    3.16307
 C   -2.96699   -0.89300    2.13333
 C   -2.10431   -0.84594    0.85136
 O   -1.50183    0.17863    0.53808
 H   -3.19247    0.56759    3.60266
 H   -3.02116   -1.91596    2.53181
 C   -4.40905   -0.41931    1.79926
 C   -4.52495    0.98488    1.15665
 C   -3.93262    2.09203    1.99823
 O   -3.05259    2.87202    1.50708
 O   -4.26626    2.20323    3.24221
 H   -5.00454   -0.45670    2.72325
 H   -4.86266   -1.14565    1.11308
 H   -5.59498    1.20401    1.02389
 H   -4.04772    1.02133    0.17146
 N   -2.10889   -1.96205    0.08080
 C   -2.76063   -3.24432    0.32592
 H   -1.59361   -1.85049   -0.78816
 H   -2.44839   -3.68668    1.28135
 H   -2.46077   -3.93466   -0.46800
 H   -3.85697   -3.16989    0.30507
Pb   -2.40117    3.60018    3.62085
