28
Energy: -609835.0210275  eV PBE+vdW (tier 2 basis)
C    0.01919  -1.17162  -0.73039
C    -0.19211  0.07249  0.09419
O    -0.44724  1.17448  -0.38820
H    0.70567  -0.94443  -1.55382
H    -0.94086  -1.46015  -1.17892
H    0.40045  -2.02108  -0.15133
N    -0.11832  -0.08085  1.46350
C    -0.30306  1.10241  2.27200
C    0.81354  2.13532  2.02255
O    2.05056  1.83914  1.90801
H    0.34180  -0.89599  1.85702
H    -1.20743  1.58558  1.88151
C    -0.58479  0.82541  3.77570
C    0.17318  -0.33025  4.48208
C    1.63582  -0.24316  4.17320
O    2.34905  0.68662  4.68636
O    2.12191  -1.00065  3.25248
H    -1.65542  0.60348  3.86814
H    -0.40610  1.75670  4.33024
H    -0.20753  -1.30594  4.15892
H    0.00969  -0.23556  5.56261
N    0.46951  3.41196  1.90046
C    -0.87894  3.96900  1.78511
H    1.24983  4.04014  1.71987
H    -1.39467  3.53835  0.91631
H    -0.78461  5.04862  1.63995
H    -1.46373  3.79876  2.69662
Pb    3.73761  0.61421  2.81883
