28
Energy: -609834.9833552  eV PBE+vdW (tier 2 basis)
C    0.30981  1.71555  1.67428
C    0.22504  0.25694  1.37863
O    1.25905  -0.35691  0.92123
H    -0.50346  2.07704  2.31060
H    0.30326  2.27431  0.72727
H    1.27368  1.91219  2.15907
N    -0.89257  -0.43686  1.57524
C    -2.28300  0.03786  1.71531
C    -3.21654  -1.13411  2.10752
O    -4.09895  -0.93991  2.92912
H    -0.79256  -1.44218  1.43896
H    -2.34974  0.72702  2.56638
C    -2.77844  0.77940  0.44813
C    -2.71842  -0.00311  -0.88709
C    -1.32176  -0.47114  -1.20259
O    -0.99509  -1.70537  -1.02548
O    -0.43277  0.37477  -1.56531
H    -2.21404  1.71501  0.33716
H    -3.82197  1.06714  0.63376
H    -3.39664  -0.86422  -0.87787
H    -3.04150  0.67545  -1.68758
N    -2.98607  -2.33842  1.50309
C    -3.84598  -3.48363  1.79392
H    -2.43396  -2.38059  0.64868
H    -3.34901  -4.39717  1.45293
H    -4.82423  -3.39366  1.30107
H    -4.01373  -3.54148  2.87399
Pb    1.30036  -1.15679  -1.22362
