28
Energy: -609834.6634946  eV PBE+vdW (tier 2 basis)
C    0.61191  0.34448  1.27276
C    -0.24780  -0.80242  1.76015
O    0.20731  -1.84260  2.20741
H    1.65088  0.00588  1.26370
H    0.53761  1.21464  1.94182
H    0.32987  0.67136  0.26224
N    -1.62821  -0.64644  1.67228
C    -2.36001  0.56727  1.38964
C    -2.26281  1.62698  2.50946
O    -2.08235  2.86085  2.22930
H    -2.13942  -1.46085  2.00183
H    -1.89202  1.05951  0.52517
C    -3.84885  0.25493  1.04019
C    -4.34501  0.90425  -0.27868
C    -3.99814  2.36168  -0.22466
O    -4.63690  3.14237  0.56729
O    -2.93733  2.77339  -0.82171
H    -4.51114  0.56748  1.85832
H    -3.95332  -0.83267  0.93571
H    -5.43044  0.77010  -0.35939
H    -3.85612  0.44559  -1.14567
N    -2.31634  1.29489  3.79585
C    -2.53117  -0.00862  4.42968
H    -2.19256  2.08872  4.42181
H    -3.35560  -0.54984  3.95445
H    -2.80900  0.17597  5.47170
H    -1.62287  -0.62277  4.40714
Pb    -2.74758  4.48451  0.73187
