28
Energy: -609833.6934120  eV PBE+vdW (tier 2 basis)
 C   -0.49422    1.35430    0.90577
 C    0.04719    0.18451    1.69832
 O    1.21634    0.09660    2.04380
 H   -0.73958    1.05010   -0.12227
 H   -1.39998    1.78221    1.35644
 H    0.28437    2.11975    0.86008
 N   -0.84862   -0.81629    2.06040
 C   -2.21163   -1.00150    1.60185
 C   -3.28157   -0.59567    2.65164
 O   -4.48578   -0.78897    2.41819
 H   -0.39090   -1.60051    2.52203
 H   -2.38107   -0.32903    0.74771
 C   -2.42870   -2.45689    1.13155
 C   -3.76776   -2.64404    0.41249
 C   -4.28386   -4.02021    0.32509
 O   -3.93991   -4.93914    1.17192
 O   -5.15891   -4.33137   -0.58303
 H   -1.59736   -2.72251    0.46392
 H   -2.37602   -3.13022    1.99967
 H   -3.79352   -2.19107   -0.58756
 H   -4.52668   -2.07559    1.01372
 N   -2.81589   -0.02449    3.77374
 C   -3.66797    0.46046    4.84809
 H   -1.80703    0.08016    3.84152
 H   -4.70734    0.23534    4.59144
 H   -3.55492    1.54521    4.97112
 H   -3.41188   -0.03334    5.79386
Pb   -5.34506   -6.43419    0.20346
