28
Energy: -609835.0010885  eV PBE+vdW (tier 2 basis)
C    -0.17033  1.09902  0.31045
C    -0.47321  0.38632  1.58388
O    0.33471  -0.51050  2.01868
H    0.87294  0.92356  0.03830
H    -0.81448  0.70169  -0.48873
H    -0.38099  2.17382  0.36840
N    -1.59284  0.61922  2.28144
C    -2.47209  1.81116  2.28709
C    -3.02283  2.15925  0.87598
O    -2.61660  3.14599  0.27181
H    -1.68164  0.02450  3.10487
H    -3.32031  1.51460  2.92095
C    -1.77769  3.03029  2.91726
C    -1.22839  2.79236  4.34159
C    -0.13049  1.76127  4.36865
O    -0.32511  0.62455  4.94091
O    0.97101  1.98189  3.75227
H    -2.51140  3.84577  2.95728
H    -0.97594  3.38239  2.25668
H    -2.01993  2.48240  5.03543
H    -0.80876  3.74095  4.70474
N    -3.95465  1.31286  0.36490
C    -4.59744  0.17445  1.00984
H    -4.30515  1.60433  -0.54374
H    -5.18304  0.47121  1.89246
H    -5.28865  -0.27832  0.29285
H    -3.87154  -0.59717  1.29878
Pb    1.58905  -0.26237  3.92725
