28
Energy: -609834.6370555  eV PBE+vdW (tier 2 basis)
C    0.12274  -0.02579  0.27035
C    -0.24969  -0.36855  1.69362
O    0.56213  -0.40981  2.59990
H    0.09842  -0.91923  -0.36870
H    -0.54381  0.72827  -0.17004
H    1.14519  0.36060  0.27687
N    -1.59315  -0.67565  1.99328
C    -2.76918  -0.32521  1.19193
C    -4.02120  -0.53417  2.04645
O    -5.03961  0.22253  1.98031
H    -1.70967  -0.59387  3.00262
H    -2.76631  0.74264  0.91851
C    -2.89359  -1.19397  -0.10991
C    -3.24935  -0.40053  -1.39257
C    -4.45730  0.43381  -1.09046
O    -4.30111  1.66352  -0.74855
O    -5.60779  -0.12258  -0.98220
H    -1.93921  -1.70650  -0.26806
H    -3.64476  -1.98128  0.03757
H    -3.46800  -1.10785  -2.20151
H    -2.42255  0.25201  -1.69533
N    -4.02158  -1.57159  2.87580
C    -5.14566  -1.94628  3.72867
H    -3.18671  -2.15514  2.87648
H    -5.93735  -2.42899  3.14059
H    -5.55659  -1.05623  4.21636
H    -4.78759  -2.64410  4.49039
Pb    -6.24416  1.54115  0.50416
