28
Energy: -609833.2825863  eV PBE+vdW (tier 2 basis)
C    0.07113  0.22179  0.13204
C    0.00444  0.22742  1.63747
O    0.91663  0.67911  2.34034
H    -0.23688  1.21409  -0.22768
H    -0.58417  -0.52875  -0.32566
H    1.10479  0.05610  -0.18669
N    -1.13447  -0.28640  2.19797
C    -1.48155  -0.02097  3.59753
C    -1.39211  1.51848  3.85005
O    -2.12975  2.20929  3.14948
H    -1.90541  -0.48189  1.56917
H    -2.57005  -0.16036  3.64991
C    -0.88943  -1.04535  4.59165
C    0.53489  -1.51708  4.28181
C    1.28980  -2.10909  5.40617
O    2.31055  -2.87442  5.16787
O    0.99583  -1.86313  6.64316
H    -1.54896  -1.92529  4.58244
H    -0.95592  -0.63709  5.60734
H    1.14362  -0.66476  3.90754
H    0.56316  -2.23123  3.44724
N    -0.66671  2.08895  4.85517
C    0.57702  1.65755  5.48108
H    -0.83238  3.09294  4.86640
H    0.41967  0.84650  6.20345
H    0.98122  2.51151  6.03384
H    1.31824  1.35480  4.72956
Pb    2.72332  -3.15462  7.36717
