28
Energy: -609833.4156660  eV PBE+vdW (tier 2 basis)
C    0.84424  0.02150  1.20760
C    0.03151  -1.16035  1.69951
O    0.54924  -2.23417  1.98221
H    0.46928  0.41463  0.25293
H    1.87632  -0.31370  1.07848
H    0.83205  0.84145  1.93989
N    -1.32955  -0.99186  1.84455
C    -2.13724  0.14483  1.43559
C    -3.23700  0.40838  2.49743
O    -4.43398  0.35716  2.19451
H    -1.81546  -1.84453  2.11676
H    -1.48115  1.02664  1.40985
C    -2.74215  -0.09074  0.03657
C    -3.66362  1.00023  -0.51583
C    -3.06069  2.29395  -0.90906
O    -1.86980  2.65086  -0.54592
O    -3.74604  3.12447  -1.63260
H    -3.33731  -1.01274  0.07765
H    -1.91092  -0.28262  -0.65618
H    -4.43859  1.22331  0.24643
H    -4.23366  0.63698  -1.38370
N    -2.84000  0.69844  3.76046
C    -1.49194  0.79716  4.30423
H    -3.61717  0.80399  4.40699
H    -1.54655  1.33638  5.25541
H    -0.83655  1.37071  3.63689
H    -1.03828  -0.18664  4.48293
Pb    -2.07716  4.63386  -1.66683
