28
Energy: -609833.3644069  eV PBE+vdW (tier 2 basis)
 C   -0.13521   -1.41167    1.63761
 C   -0.65263   -0.14238    2.27612
 O    0.03537    0.51578    3.05138
 H   -0.40011   -2.26631    2.27686
 H   -0.53120   -1.61284    0.63648
 H    0.95571   -1.34790    1.59895
 N   -1.94920    0.26350    2.02921
 C   -2.94261   -0.25497    1.09597
 C   -3.15141   -1.78583    1.21200
 O   -3.09050   -2.51632    0.21584
 H   -2.18078    1.11979    2.52544
 H   -3.89620    0.20143    1.40704
 C   -2.64262    0.19631   -0.35065
 C   -3.63432   -0.23511   -1.43560
 C   -4.97714    0.38448   -1.44774
 O   -5.46838    1.01061   -0.42541
 O   -5.71828    0.28589   -2.50835
 H   -1.66403   -0.20442   -0.64409
 H   -2.53826    1.28999   -0.33434
 H   -3.79121   -1.33076   -1.34010
 H   -3.20871   -0.10206   -2.44070
 N   -3.43772   -2.29540    2.43524
 C   -3.57823   -1.61936    3.71865
 H   -3.53633   -3.30705    2.42553
 H   -4.13437   -0.67957    3.61573
 H   -4.15151   -2.27183    4.38570
 H   -2.60957   -1.40234    4.18866
Pb   -7.40278    1.43917   -1.56169
