28
Energy: -609834.8123470  eV PBE+vdW (tier 2 basis)
C    0.58555  0.08012  0.23360
C    -0.16199  0.94589  1.20565
O    -0.08681  2.22147  1.13106
H    0.27462  -0.96983  0.25664
H    1.65776  0.11125  0.48222
H    0.45353  0.47126  -0.78202
N    -0.88301  0.33986  2.14380
C    -1.71361  0.87009  3.24662
C    -3.14223  1.30062  2.78470
O    -4.11228  0.86629  3.38830
H    -0.93136  -0.67099  2.05385
H    -1.90304  -0.01109  3.87042
C    -1.11367  1.96912  4.14557
C    0.33754  1.75705  4.65415
C    1.29526  2.36302  3.67054
O    2.07613  1.63812  2.95540
O    1.21657  3.62798  3.44316
H    -1.78703  2.00933  5.01178
H    -1.17791  2.95123  3.66320
H    0.57877  0.70091  4.82028
H    0.44803  2.29198  5.60723
N    -3.18956  2.16649  1.74005
C    -4.44604  2.69613  1.22682
H    -2.31882  2.53270  1.36741
H    -4.48236  2.60167  0.13475
H    -4.57518  3.75191  1.50163
H    -5.26298  2.11707  1.66769
Pb    1.99494  3.31053  1.32026
