28
Energy: -609833.4288737  eV PBE+vdW (tier 2 basis)
C    -0.08910  1.17197  -0.55599
C    0.20577  0.36605  0.68940
O    1.35530  0.06696  1.00274
H    -1.05575  0.95389  -1.02273
H    -0.07043  2.23916  -0.29220
H    0.71724  0.99300  -1.27293
N    -0.83009  -0.01297  1.51780
C    -2.27522  0.09485  1.33855
C    -2.77607  -0.49852  -0.00598
O    -3.47442  0.17635  -0.77310
H    -0.49848  -0.51614  2.33573
H    -2.70739  -0.53781  2.13199
C    -2.77864  1.53533  1.54701
C    -4.30553  1.63085  1.59591
C    -4.85656  3.00393  1.66450
O    -6.07822  3.19719  2.05474
O    -4.16622  4.03396  1.29692
H    -2.40682  2.17202  0.73568
H    -2.33731  1.90547  2.48244
H    -4.69568  1.20961  0.64523
H    -4.76183  1.03814  2.40214
N    -2.43769  -1.77616  -0.30009
C    -1.66185  -2.73539  0.47675
H    -2.78718  -2.07927  -1.20518
H    -0.58004  -2.56642  0.39142
H    -1.94298  -2.71081  1.53722
H    -1.88860  -3.73909  0.10286
Pb    -5.93129  5.41699  1.65673
