28
Energy: -609835.1407800  eV PBE+vdW (tier 2 basis)
C    -0.87913  -0.00208  0.01080
C    -0.32629  -0.69305  1.21051
O    0.94497  -0.77802  1.38020
H    -1.07523  -0.74617  -0.77753
H    -0.12674  0.69469  -0.37062
H    -1.80520  0.53292  0.24729
N    -1.12813  -1.24902  2.11552
C    -2.54280  -1.61233  1.99058
C    -3.39392  -0.52916  2.71994
O    -3.16955  0.64463  2.44604
H    -0.64991  -1.64089  2.92685
H    -2.81713  -1.51034  0.93093
C    -2.68796  -3.08919  2.40259
C    -1.91103  -4.07723  1.50011
C    -0.42630  -3.80397  1.43934
O    0.26690  -3.74262  2.52051
O    0.12869  -3.57406  0.30899
H    -3.74838  -3.37147  2.34667
H    -2.36963  -3.22097  3.44836
H    -2.04826  -5.09367  1.89747
H    -2.30207  -4.06572  0.47555
N    -4.34127  -0.95772  3.58498
C    -5.23636  -0.04330  4.28426
H    -4.43718  -1.94945  3.76546
H    -6.28301  -0.28452  4.06123
H    -5.07709  -0.09790  5.36871
H    -5.01704  0.97153  3.94032
Pb    2.06704  -2.77293  1.35397
