28
Energy: -609834.9549074  eV PBE+vdW (tier 2 basis)
C    -0.28619  -0.19959  -0.80641
C    -0.16546  0.29887  0.60287
O    0.85786  0.91220  0.97821
H    -0.15253  0.64693  -1.49149
H    -1.24680  -0.68372  -1.01346
H    0.52727  -0.90897  -1.00482
N    -1.21615  0.06023  1.44253
C    -1.14754  0.58920  2.79561
C    -0.44394  -0.41573  3.71873
O    0.81693  -0.42553  3.74976
H    -2.01469  -0.46584  1.10407
H    -0.39910  1.36185  2.62715
C    -2.32926  1.40976  3.32704
C    -1.85727  2.45136  4.41371
C    -0.35845  2.66989  4.27598
O    0.09685  3.22988  3.21237
O    0.42418  2.07135  5.08120
H    -3.14368  0.80058  3.74343
H    -2.74378  1.95103  2.46711
H    -2.06319  2.08387  5.42384
H    -2.40114  3.39058  4.26150
N    -1.17788  -1.27329  4.42422
C    -0.62534  -2.28586  5.31944
H    -2.18717  -1.21691  4.33230
H    -0.64557  -3.27616  4.84640
H    0.40960  -2.02006  5.54990
H    -1.21297  -2.31393  6.24319
Pb    1.93940  1.67199  3.22161
