28
Energy: -609833.3847130  eV PBE+vdW (tier 2 basis)
C    -0.44592  0.04810  0.32733
C    0.08433  0.75884  1.55286
O    1.28191  0.86141  1.79620
H    0.40560  -0.34137  -0.23558
H    -1.02046  0.72951  -0.31661
H    -1.10601  -0.78764  0.59881
N    -0.83716  1.31738  2.41554
C    -2.27272  1.37048  2.26055
C    -2.86437  2.43329  1.29995
O    -4.05668  2.29110  0.97836
H    -0.40934  1.79167  3.20660
H    -2.60985  0.41957  1.82111
C    -2.94287  1.51971  3.64780
C    -4.43874  1.19392  3.60008
C    -5.28483  1.80019  4.64554
O    -6.43288  1.27003  4.93740
O    -4.94997  2.89281  5.25532
H    -2.78955  2.54198  4.02323
H    -2.43213  0.83733  4.34141
H    -4.64243  0.11547  3.56498
H    -4.83174  1.59247  2.62962
N    -2.15040  3.47924  0.82581
C    -0.78616  3.94323  1.07826
H    -2.70925  4.04797  0.19439
H    -0.69243  4.93514  0.62463
H    -0.02660  3.29171  0.63015
H    -0.57854  4.04726  2.14895
Pb    -6.90880  2.91064  6.40856
