28
Energy: -609834.7002725  eV PBE+vdW (tier 2 basis)
C    -0.29359  1.71277  2.02184
C    -0.09211  0.27603  2.45360
O    0.79262  -0.08239  3.20862
H    -1.30654  2.07715  2.24527
H    -0.12560  1.82643  0.94081
H    0.43222  2.33203  2.55451
N    -0.99599  -0.67242  1.95873
C    -1.98849  -0.47942  0.91516
C    -3.24109  0.23229  1.47137
O    -3.90689  1.08299  0.79876
H    -0.70247  -1.62635  2.15956
H    -1.60564  0.19076  0.13262
C    -2.24068  -1.87371  0.26957
C    -3.46360  -2.09083  -0.65096
C    -3.86166  -0.85345  -1.40119
O    -5.09003  -0.48641  -1.40567
O    -2.95631  -0.07949  -1.88590
H    -2.32093  -2.61282  1.08031
H    -1.31883  -2.10203  -0.28003
H    -4.34155  -2.42730  -0.08844
H    -3.22238  -2.88657  -1.37097
N    -3.57704  -0.04989  2.72079
C    -4.70637  0.52792  3.43872
H    -2.90562  -0.62511  3.22899
H    -4.42365  1.47818  3.91174
H    -5.02849  -0.17411  4.21355
H    -5.53122  0.70747  2.74317
Pb    -4.35786  1.70364  -1.39652
