28
Energy: -609834.6379204  eV PBE+vdW (tier 2 basis)
C    -0.16291  -0.36743  -0.01792
C    -0.23885  -0.11361  1.46921
O    0.75325  0.08267  2.16629
H    0.59998  0.28769  -0.45170
H    -1.11472  -0.22198  -0.54294
H    0.16596  -1.40355  -0.17987
N    -1.51028  -0.10928  2.00320
C    -1.84674  -0.16555  3.42212
C    -2.21325  1.17567  4.08049
O    -3.02061  1.11714  5.07635
H    -2.27529  -0.30281  1.36655
H    -2.81884  -0.67846  3.45241
C    -0.89486  -1.06528  4.28597
C    0.18164  -0.40484  5.17830
C    -0.49376  0.29364  6.32152
O    -1.27068  -0.38364  7.09384
O    -0.45164  1.57298  6.42864
H    -1.52660  -1.68797  4.93008
H    -0.38970  -1.73740  3.58480
H    0.81566  0.28553  4.61510
H    0.81266  -1.20977  5.58069
N    -1.80653  2.36360  3.65564
C    -0.80681  2.75583  2.66043
H    -2.22806  3.12861  4.17860
H    -1.24408  2.78604  1.65493
H    0.04658  2.07140  2.67540
H    -0.46111  3.75950  2.92523
Pb    -2.59835  1.46768  7.33907
