28
Energy: -609834.9077109  eV PBE+vdW (tier 2 basis)
C    -0.49395  -0.55578  0.22366
C    -0.73297  -1.10614  1.60753
O    -0.24660  -2.15530  2.01253
H    -0.58726  -1.36912  -0.50430
H    0.53955  -0.18765  0.16847
H    -1.17302  0.26060  -0.04892
N    -1.55709  -0.34272  2.42268
C    -1.69701  -0.67574  3.83388
C    -3.19347  -0.80599  4.13869
O    -3.83742  0.08446  4.79236
H    -1.85505  0.57412  2.10512
H    -1.24576  -1.67969  3.91424
C    -0.88152  0.28449  4.71910
C    -0.59530  -0.19563  6.16669
C    -1.87349  -0.13734  6.94013
O    -2.33622  1.00943  7.29425
O    -2.59669  -1.19050  7.07740
H    -1.34437  1.28094  4.74545
H    0.08867  0.39186  4.21700
H    0.13509  0.48610  6.61940
H    -0.19097  -1.21485  6.17275
N    -3.85468  -1.85307  3.65024
C    -3.36786  -2.94176  2.80503
H    -4.86000  -1.81896  3.80930
H    -2.30012  -3.11943  2.96092
H    -3.92264  -3.85127  3.05687
H    -3.52752  -2.70369  1.74490
Pb    -4.46195  0.19974  7.02936
