28
Energy: -609833.7383371  eV PBE+vdW (tier 2 basis)
C    -0.33100  -0.63439  0.26978
C    -0.27943  -0.71394  1.77793
O    0.60530  -1.31457  2.38282
H    -0.39746  -1.65243  -0.13401
H    0.60970  -0.20331  -0.09336
H    -1.17061  -0.04191  -0.11260
N    -1.30380  -0.08278  2.44710
C    -1.35727  -0.05443  3.89850
C    -2.74740  -0.49869  4.40059
O    -3.48074  0.28755  5.01761
H    -2.00369  0.42685  1.91898
H    -0.59970  -0.79035  4.21610
C    -0.96692  1.33056  4.43788
C    -0.96954  1.37814  5.96683
C    -0.66104  2.68891  6.57459
O    -0.33248  2.76608  7.82902
O    -0.75015  3.79316  5.90498
H    -1.66570  2.08415  4.05139
H    0.03076  1.56623  4.04306
H    -0.31877  0.62334  6.43249
H    -2.00157  1.13393  6.30228
N    -3.13030  -1.77285  4.15057
C    -2.42184  -2.81863  3.42489
H    -4.07164  -1.97878  4.47531
H    -2.73993  -3.79112  3.81593
H    -1.33843  -2.73638  3.56505
H    -2.63569  -2.78785  2.34657
Pb    -0.21683  5.01314  7.73858
