28
Energy: -609834.8602951  eV PBE+vdW (tier 2 basis)
C    0.48418  0.37384  0.54846
C    0.05910  0.34096  1.99464
O    0.77971  0.68926  2.92880
H    1.50585  -0.01274  0.46596
H    0.50398  1.41987  0.21349
H    -0.17828  -0.19247  -0.11662
N    -1.21015  -0.11709  2.25728
C    -1.74485  0.00545  3.60387
C    -0.77836  -0.57002  4.65608
O    -0.49449  0.10300  5.70207
H    -1.84250  -0.34479  1.49772
H    -1.79233  1.07038  3.87067
C    -3.19301  -0.55374  3.61776
C    -3.88756  -0.75358  4.98610
C    -3.43462  0.24769  6.01532
O    -3.03817  -0.16119  7.16108
O    -3.28685  1.47954  5.67915
H    -3.21959  -1.52022  3.09534
H    -3.78046  0.14941  3.01201
H    -4.97452  -0.66385  4.84738
H    -3.69670  -1.75225  5.39424
N    -0.26544  -1.79425  4.56026
C    -0.34084  -2.75656  3.46616
H    0.38240  -2.01522  5.31441
H    -0.16902  -3.75459  3.88198
H    -1.32678  -2.74678  2.99678
H    0.42360  -2.55133  2.70486
Pb    -1.48281  1.57505  7.15208
