28
Energy: -609834.1694364  eV PBE+vdW (tier 2 basis)
C    0.23270  0.27394  0.37558
C    0.00321  0.36093  1.86692
O    0.92765  0.55635  2.64217
H    -0.04547  1.22137  -0.10657
H    -0.32400  -0.53081  -0.11752
H    1.30354  0.11918  0.21791
N    -1.27869  0.24525  2.40590
C    -2.61034  -0.08210  1.91946
C    -3.07913  -1.50976  2.26778
O    -4.33530  -1.67890  2.46653
H    -1.23058  0.40434  3.41057
H    -3.28890  0.50860  2.55398
C    -2.95938  0.36932  0.46100
C    -3.03462  -0.67845  -0.67422
C    -4.23067  -1.56434  -0.45199
O    -4.07729  -2.81623  -0.21970
O    -5.38775  -1.02163  -0.32243
H    -2.23524  1.14288  0.18795
H    -3.93427  0.86773  0.49706
H    -3.16684  -0.13520  -1.62049
H    -2.13826  -1.30132  -0.76399
N    -2.26147  -2.53906  2.45141
C    -0.81901  -2.69397  2.23772
H    -2.75028  -3.37788  2.75714
H    -0.52883  -2.35313  1.23998
H    -0.23693  -2.15827  2.99464
H    -0.59581  -3.76237  2.30826
Pb    -5.96546  -2.68333  1.16203
