28
Energy: -609834.5957109  eV PBE+vdW (tier 2 basis)
C    -1.07881  -0.28278  -0.12749
C    -0.65701  0.50842  1.09323
O    0.49379  0.84468  1.30776
H    -0.19331  -0.42749  -0.75140
H    -1.84522  0.23460  -0.72093
H    -1.47601  -1.27025  0.14776
N    -1.65040  0.87328  2.00568
C    -3.02967  0.40236  2.05388
C    -3.85789  1.62664  2.47124
O    -4.22962  1.81539  3.67729
H    -1.26661  1.28390  2.85559
H    -3.32778  0.15144  1.02552
C    -3.17816  -0.86163  2.92284
C    -4.53531  -1.60927  2.83846
C    -5.56390  -0.78238  3.54324
O    -6.33160  0.00413  2.87848
O    -5.53544  -0.71905  4.82730
H    -2.95067  -0.62612  3.97150
H    -2.39571  -1.55239  2.58186
H    -4.43139  -2.57399  3.35013
H    -4.83522  -1.78481  1.79804
N    -4.10954  2.56104  1.55573
C    -3.68535  2.58943  0.15772
H    -4.55361  3.40079  1.92034
H    -4.14286  3.46081  -0.31831
H    -4.02679  1.69337  -0.37444
H    -2.59375  2.67214  0.08082
Pb    -6.28169  1.44178  4.71756
