28
Energy: -609834.8778547  eV PBE+vdW (tier 2 basis)
C    0.30262  -0.09099  -0.05601
C    0.39535  -0.30586  1.43280
O    1.39097  -0.76365  1.99306
H    1.24739  0.32972  -0.41677
H    0.17381  -1.06784  -0.54195
H    -0.52816  0.55909  -0.35396
N    -0.70221  0.04686  2.17842
C    -0.78577  -0.30706  3.59228
C    0.59445  -0.11075  4.25794
O    1.17752  -1.04474  4.89757
H    -1.54560  0.36840  1.71585
H    -1.44705  0.43693  4.07038
C    -1.41224  -1.70817  3.77939
C    -2.18888  -1.93973  5.10164
C    -1.20629  -1.97815  6.22969
O    -0.50894  -3.04088  6.41266
O    -0.92853  -0.90313  6.87572
H    -0.64132  -2.47889  3.65014
H    -2.13122  -1.83784  2.96024
H    -2.70658  -2.90423  5.03601
H    -2.92709  -1.14546  5.27009
N    1.11576  1.11997  4.29903
C    0.65406  2.33627  3.64114
H    2.05081  1.14926  4.69817
H    -0.43678  2.41431  3.68696
H    0.97457  2.37368  2.59147
H    1.07817  3.19367  4.17333
Pb    1.24557  -1.72370  7.08982
