28
Energy: -609834.5645718  eV PBE+vdW (tier 2 basis)
C    -0.39128  0.06928  -0.05133
C    0.12420  0.23392  1.33731
O    1.36096  -0.03376  1.57260
H    -0.16371  -0.96043  -0.36064
H    0.15091  0.73171  -0.73714
H    -1.46723  0.23863  -0.13656
N    -0.64608  0.59514  2.35915
C    -1.94553  1.27561  2.53013
C    -2.62654  2.04092  1.36083
O    -3.83249  1.84140  1.25104
H    -0.18172  0.46760  3.26168
H    -2.70058  0.50562  2.73823
C    -1.82328  2.12659  3.82566
C    -0.64643  3.12873  3.93152
C    0.71761  2.49185  3.78655
O    1.53873  2.91794  2.90212
O    1.02833  1.45928  4.49360
H    -1.76582  1.42887  4.67407
H    -2.76443  2.67735  3.94661
H    -0.72934  3.94603  3.20810
H    -0.69135  3.57894  4.93491
N    -1.99048  2.92356  0.54041
C    -0.63022  3.42764  0.47077
H    -2.65410  3.33771  -0.11183
H    -0.58926  4.49413  0.73536
H    -0.23829  3.31887  -0.54994
H    0.03579  2.89788  1.15200
Pb    2.83399  0.96798  3.05055
