28
Energy: -609834.8310903  eV PBE+vdW (tier 2 basis)
C    0.61893  -0.00091  -0.02005
C    0.36565  -0.08198  1.45615
O    1.33363  -0.30713  2.24699
H    1.10814  -0.92806  -0.34561
H    1.31490  0.82367  -0.22343
H    -0.29153  0.14985  -0.61004
N    -0.89380  0.05819  1.87921
C    -1.35705  -0.03532  3.26727
C    -2.47362  -1.09270  3.46541
O    -2.30816  -1.95200  4.32055
H    -1.58779  0.21961  1.15508
H    -0.52201  -0.47280  3.82415
C    -1.72840  1.35419  3.87429
C    -0.89379  1.71006  5.12648
C    0.56250  1.53195  4.80796
O    1.20735  0.55227  5.32745
O    1.11941  2.26720  3.91350
H    -2.78806  1.37584  4.15867
H    -1.57848  2.12998  3.11214
H    -1.15288  1.06199  5.97141
H    -1.08893  2.75442  5.40428
N    -3.61833  -1.01016  2.72657
C    -4.00204  -0.05271  1.70251
H    -4.27568  -1.75573  2.94027
H    -3.62720  0.95410  1.92652
H    -5.09451  0.02321  1.67593
H    -3.67316  -0.35270  0.69241
Pb    2.82072  0.69691  3.67993
