28
Energy: -609833.5197926  eV PBE+vdW (tier 2 basis)
C    0.33460  -0.60717  0.09188
C    0.32781  -0.09415  1.51678
O    1.36841  0.24925  2.06720
H    -0.61903  -0.54703  -0.43985
H    1.10503  -0.06069  -0.46112
H    0.63566  -1.66383  0.11641
N    -0.84899  -0.09039  2.25208
C    -2.25152  -0.09774  1.83375
C    -2.60163  -1.24166  0.84831
O    -3.26345  -1.02453  -0.17131
H    -0.67717  0.25482  3.19487
H    -2.81476  -0.33937  2.74978
C    -2.80123  1.26587  1.36959
C    -2.26362  1.75359  0.02390
C    -2.88124  2.99622  -0.49540
O    -3.99324  3.45805  -0.02477
O    -2.32540  3.63334  -1.47988
H    -2.57978  2.00026  2.15709
H    -3.89376  1.18218  1.30756
H    -2.49010  0.97597  -0.73457
H    -1.17351  1.89422  0.00336
N    -2.16747  -2.46333  1.22551
C    -2.39197  -3.66908  0.44443
H    -1.59548  -2.52052  2.06212
H    -3.05448  -3.41648  -0.38848
H    -2.86627  -4.44307  1.06016
H    -1.44642  -4.06121  0.04545
Pb    -3.99542  5.14912  -1.54200
