28
Energy: -609833.3593117  eV PBE+vdW (tier 2 basis)
C    -1.15740  1.02536  0.98281
C    -0.20078  0.77220  2.12267
O    0.53388  1.62860  2.59506
H    -1.01045  0.31360  0.15885
H    -0.99015  2.04103  0.61639
H    -2.20217  0.93469  1.31351
N    -0.15905  -0.51634  2.65367
C    -1.13805  -1.56081  2.46898
C    -2.52270  -1.40105  3.18214
O    -3.50193  -1.86179  2.59988
H    0.44120  -0.56099  3.47499
H    -1.43039  -1.57611  1.41043
C    -0.54689  -2.93320  2.82613
C    0.59662  -3.30244  1.86241
C    1.27904  -4.57807  2.20920
O    1.55490  -5.44455  1.29186
O    1.61839  -4.84522  3.42838
H    -1.34950  -3.67990  2.76519
H    -0.17825  -2.93271  3.86253
H    1.36157  -2.50460  1.88865
H    0.24479  -3.37159  0.82534
N    -2.62210  -0.78594  4.38676
C    -1.59378  -0.26820  5.28299
H    -3.58365  -0.73675  4.71264
H    -2.06259  -0.08379  6.25489
H    -1.16061  0.67745  4.93154
H    -0.79048  -0.99839  5.45092
Pb    2.54952  -6.82802  2.79737
