28
Energy: -609835.2761840  eV PBE+vdW (tier 2 basis)
C    -0.04040  -0.87687  0.23599
C    -0.33253  -0.18080  1.53848
O    0.14991  -0.56811  2.61333
H    1.04182  -1.02363  0.14471
H    -0.41391  -0.34366  -0.64538
H    -0.50101  -1.87371  0.26562
N    -1.16334  0.90301  1.47623
C    -1.75588  1.59847  2.62544
C    -0.72542  2.42285  3.43209
O    -0.91841  3.66137  3.69763
H    -1.49367  1.18945  0.56204
H    -2.43011  2.34266  2.18447
C    -2.58924  0.65072  3.54994
C    -3.97369  1.21829  3.96514
C    -3.78956  2.63278  4.42553
O    -4.04267  3.59104  3.60740
O    -3.21302  2.87588  5.54502
H    -2.01689  0.39750  4.44938
H    -2.75769  -0.28767  3.00869
H    -4.67108  1.20733  3.11956
H    -4.38106  0.60275  4.77632
N    0.36386  1.80511  3.83601
C    1.41863  2.43708  4.61649
H    0.43587  0.80031  3.54572
H    1.67077  3.41812  4.19863
H    1.10480  2.56747  5.66138
H    2.30066  1.79151  4.59088
Pb    -2.51075  4.93573  4.72025
