28
Energy: -609835.1854067  eV PBE+vdW (tier 2 basis)
C    -1.19165  -1.18847  0.37755
C    -1.77562  -0.80978  1.71233
O    -2.78102  -1.41863  2.13660
H    -0.32586  -0.58556  0.08316
H    -0.90153  -2.24625  0.40545
H    -1.97453  -1.08738  -0.38499
N    -1.15839  0.20429  2.36461
C    -1.53166  0.90050  3.60435
C    -1.39204  -0.02771  4.82195
O    -1.61269  -1.26346  4.76129
H    -0.35307  0.58941  1.88483
H    -0.73906  1.64958  3.72166
C    -2.88244  1.70334  3.45903
C    -3.92348  1.66840  4.60300
C    -4.41549  0.24596  4.74221
O    -4.94011  -0.29964  3.70567
O    -4.10884  -0.44011  5.76808
H    -3.38398  1.32521  2.56122
H    -2.61635  2.74875  3.25991
H    -4.75230  2.32429  4.30494
H    -3.53373  2.02462  5.56287
N    -0.98871  0.52498  5.96946
C    -0.56461  1.90002  6.22280
H    -0.97135  -0.12631  6.75141
H    0.38135  2.13032  5.71355
H    -1.32893  2.62634  5.92198
H    -0.40448  2.01160  7.29874
Pb    -3.74942  -2.24933  4.17735
