28
Energy: -609835.1886081  eV PBE+vdW (tier 2 basis)
C    -3.02709  -1.28741  1.52812
C    -1.65313  -0.71436  1.30755
O    -0.85733  -1.18719  0.48578
H    -3.61840  -1.12814  0.61642
H    -3.55943  -0.83687  2.37362
H    -2.94697  -2.37046  1.67594
N    -1.32306  0.38706  2.05620
C    -0.05570  1.07790  1.84857
C    1.08347  0.33677  2.59559
O    1.67636  0.74846  3.64859
H    -1.88872  0.63351  2.86232
H    0.17926  0.90983  0.78657
C    -0.14953  2.60776  2.02401
C    -1.01709  3.17763  3.17816
C    -0.46602  2.67699  4.47335
O    0.54469  3.26035  5.00144
O    -0.88491  1.55332  4.94388
H    -0.56741  3.00901  1.09181
H    0.86893  3.01024  2.10952
H    -2.06829  2.88432  3.06944
H    -0.95694  4.27154  3.14349
N    1.43237  -0.80224  2.01814
C    2.44268  -1.71533  2.53263
H    0.83475  -1.08766  1.21868
H    2.80568  -2.33466  1.70729
H    3.27762  -1.14853  2.95658
H    2.02450  -2.37305  3.30810
Pb    1.24569  1.23521  5.84319
