28
Energy: -609835.1506334  eV PBE+vdW (tier 2 basis)
C    -0.43789  1.09246  0.20744
C    -0.72090  -0.35984  0.42172
O    0.17838  -1.22824  0.11885
H    0.63507  1.25720  0.35149
H    -1.00096  1.74731  0.87965
H    -0.67839  1.35595  -0.83277
N    -1.88080  -0.78598  0.90334
C    -3.15864  -0.09577  1.03965
C    -3.72712  -0.55057  2.40742
O    -3.42725  -1.67062  2.81710
H    -1.94656  -1.77609  1.16109
H    -2.99522  0.98631  0.98021
C    -4.14024  -0.57126  -0.06753
C    -3.64026  -0.41859  -1.51377
C    -2.42366  -1.25705  -1.82920
O    -1.42654  -0.71753  -2.42766
O    -2.35801  -2.48067  -1.44869
H    -4.38367  -1.62549  0.12497
H    -5.07566  -0.00602  0.04311
H    -3.41359  0.62385  -1.77042
H    -4.44557  -0.74690  -2.18954
N    -4.57071  0.28547  3.05278
C    -4.94628  1.64513  2.68409
H    -4.93881  -0.09507  3.92057
H    -5.66410  2.01279  3.42309
H    -5.43706  1.68841  1.70207
H    -4.08535  2.32874  2.69040
Pb    -0.04054  -2.49574  -1.77836
