28
Energy: -609833.4436396  eV PBE+vdW (tier 2 basis)
C    -0.12771  1.14975  0.11615
C    0.00290  0.16970  1.26429
O    1.08930  -0.23294  1.66067
H    0.88119  1.41459  -0.20976
H    -0.65538  2.06563  0.41248
H    -0.66828  0.71347  -0.73476
N    -1.15386  -0.28509  1.87506
C    -2.54077  -0.03499  1.52783
C    -3.30936  0.30760  2.84257
O    -3.93540  -0.56619  3.43792
H    -0.97490  -0.93685  2.63809
H    -2.56976  0.82448  0.84595
C    -3.22921  -1.24855  0.87811
C    -2.48538  -1.74807  -0.37605
C    -3.04824  -3.04518  -0.84032
O    -2.95991  -4.10267  -0.09909
O    -3.65088  -3.14395  -1.97862
H    -4.26272  -0.97405  0.62367
H    -3.29050  -2.04697  1.62878
H    -1.42797  -1.92166  -0.11615
H    -2.53564  -1.02920  -1.20264
N    -3.22035  1.58181  3.29792
C    -2.44232  2.68717  2.75776
H    -3.68779  1.72281  4.18916
H    -2.68284  3.58659  3.33253
H    -2.70099  2.89296  1.71007
H    -1.36033  2.51104  2.83815
Pb    -4.05647  -5.35942  -1.63132
