28
Energy: -609834.8706630  eV PBE+vdW (tier 2 basis)
C    -0.09007  -0.46001  -0.20945
C    -0.32869  0.28300  1.06896
O    0.50984  1.16130  1.45160
H    0.92346  -0.87987  -0.19431
H    -0.13982  0.24983  -1.04668
H    -0.81225  -1.26447  -0.38602
N    -1.42488  -0.01765  1.77351
C    -1.79396  0.57322  3.06281
C    -1.73959  -0.41397  4.26179
O    -1.13685  -0.05333  5.26403
H    -2.01730  -0.74565  1.38526
H    -0.98937  1.27251  3.30367
C    -3.12331  1.35886  3.04299
C    -3.26209  2.39556  1.90161
C    -1.96677  3.10492  1.62019
O    -1.27614  3.57830  2.59288
O    -1.49227  3.12165  0.42794
H    -3.17997  1.86107  4.01749
H    -3.98747  0.68271  2.98990
H    -4.01767  3.13983  2.19292
H    -3.60160  1.93405  0.96741
N    -2.38655  -1.61251  4.19525
C    -3.15475  -2.21047  3.11623
H    -2.26720  -2.16314  5.04166
H    -3.82687  -2.96417  3.53977
H    -2.52099  -2.72067  2.37155
H    -3.79562  -1.47434  2.61258
Pb    0.64591  3.45413  1.29976
