22
Energy: -12020.0466957 eV PBE+vdW (tier 2 basis)
N    1.087406  -0.922327  3.146502
C    0.514321  -0.994425  1.788285
C    0.927812  0.305020  1.092241
O    0.210661  1.215123  0.744425
H    2.088840  -0.737433  3.081488
H    0.990298  -1.825420  3.609765
H    0.953111  -1.818719  1.185383
C    -1.017378  -1.171184  1.796393
C    -1.443946  -2.291595  2.763454
C    -1.523390  -1.425564  0.370229
C    -2.957044  -2.503059  2.859044
H    -1.447557  -0.223988  2.160893
H    -1.071065  -2.051247  3.769767
H    -0.961320  -3.238842  2.461766
H    -2.619313  -1.429270  0.331697
H    -1.174019  -2.400826  -0.003251
H    -1.181028  -0.648447  -0.323329
H    -3.471805  -1.564314  3.110220
H    -3.199083  -3.233085  3.642850
H    -3.386782  -2.877088  1.920794
O    2.284880  0.337433  0.917338
H    2.481403  1.205258  0.514046
