22
Energy: -12020.0181116 eV PBE+vdW (tier 2 basis)
N    -0.790730  -1.092909  0.008803
C    -0.363312  -0.639458  1.330828
C    0.575737  0.580048  1.252598
O    0.585125  1.418231  2.334279
H    -1.442692  -0.416089  -0.389432
H    -0.044383  1.093061  3.002458
H    -1.272289  -0.343369  1.878440
C    0.289145  -1.821406  2.114622
C    0.517095  -1.548515  3.613201
C    1.581061  -2.314646  1.454613
C    -0.732472  -1.186664  4.421040
H    -0.464015  -2.622356  2.028404
H    1.292374  -0.775644  3.743735
H    0.952523  -2.463912  4.042446
H    2.375251  -1.555753  1.491320
H    1.424189  -2.587883  0.403594
H    1.950573  -3.210341  1.971936
H    -0.502402  -1.120367  5.492243
H    -1.522265  -1.940850  4.294357
H    -1.177136  -0.218806  4.136964
O    1.290711  0.818914  0.308129
H    0.017913  -1.085286  -0.617577
