22
Energy: -12020.0720091 eV PBE+vdW (tier 2 basis)
N    -0.824697  0.969286  1.443830
C    -0.168676  -0.177718  2.077252
C    1.265059  -0.170609  1.557652
O    1.568679  -0.222824  0.383667
H    -1.789912  1.049921  1.760022
H    -0.835179  0.847290  0.429849
H    -0.139334  0.012883  3.160905
C    -0.797228  -1.585576  1.848226
C    -2.288111  -1.619246  2.265164
C    0.006570  -2.665471  2.584354
C    -3.283888  -1.422619  1.118783
H    -0.732982  -1.787489  0.765192
H    -2.469442  -0.871824  3.056688
H    -2.494151  -2.591121  2.738537
H    0.000168  -2.493244  3.671278
H    1.055511  -2.698913  2.260586
H    -0.425213  -3.658546  2.401594
H    -3.160125  -2.205199  0.356647
H    -3.154983  -0.456528  0.612851
H    -4.320481  -1.472738  1.479562
O    2.186592  -0.106212  2.555584
H    3.059823  -0.109503  2.114775
