22
Energy: -12020.2116175 eV PBE+vdW (tier 2 basis)
N    0.314032  -0.440748  -0.028564
C    -0.032023  -0.135128  1.354956
C    1.182732  0.257155  2.199414
O    2.343504  0.073287  1.894711
H    0.500089  0.421517  -0.539472
H    1.189819  -0.966800  -0.051403
H    -0.710881  0.731571  1.358279
C    -0.805231  -1.305694  2.038575
C    0.029524  -2.599599  2.070518
C    -2.163802  -1.493092  1.356496
C    -0.554106  -3.697176  2.963180
H    -0.978909  -0.990005  3.080698
H    1.047940  -2.367457  2.421362
H    0.139718  -2.981471  1.042935
H    -2.761275  -0.571892  1.407632
H    -2.746622  -2.288467  1.838066
H    -2.031299  -1.750741  0.297721
H    0.110596  -4.570743  2.994694
H    -1.532308  -4.045855  2.606178
H    -0.684607  -3.342596  3.996066
O    0.818958  0.842838  3.376161
H    1.651400  1.033438  3.851133
