22
Energy: -12020.1605611 eV PBE+vdW (tier 2 basis)
N    -0.014264  0.065252  -0.110281
C    -0.266087  0.146196  1.333480
C    0.980051  0.549334  2.121033
O    1.107687  1.562641  2.776891
H    0.723288  -0.614555  -0.302982
H    0.308723  0.964399  -0.467915
H    -0.979318  0.965196  1.501878
C    -0.874862  -1.172082  1.867813
C    -2.162987  -1.558020  1.110094
C    -1.080000  -1.111252  3.387237
C    -3.332051  -0.577291  1.228513
H    -0.136364  -1.966611  1.662752
H    -2.476940  -2.546022  1.483174
H    -1.914967  -1.689811  0.048217
H    -1.718277  -0.266940  3.682093
H    -0.128355  -1.002879  3.924749
H    -1.556909  -2.032969  3.746688
H    -3.631291  -0.405871  2.271623
H    -4.211408  -0.965714  0.697798
H    -3.093411  0.397771  0.782152
O    1.995201  -0.358640  1.978451
H    2.746796  0.003109  2.486018
