22
Energy: -12019.917077 eV PBE+vdW (tier 2 basis)
N    -1.001462  -0.826736  -0.092737
C    -0.313692  -0.546946  1.165174
C    1.064273  0.115523  0.947340
O    1.604129  0.771286  2.016126
H    -1.109629  0.039942  -0.623442
H    1.014777  0.681481  2.788268
H    -0.940565  0.174722  1.716617
C    -0.217603  -1.866444  2.012360
C    -0.797539  -1.722470  3.435180
C    1.167522  -2.527828  1.995682
C    -0.112833  -0.728912  4.377890
H    -0.906796  -2.542890  1.484692
H    -0.774361  -2.719769  3.902024
H    -1.862624  -1.456105  3.348467
H    1.528108  -2.679592  0.969709
H    1.118920  -3.513109  2.478708
H    1.931597  -1.939341  2.522336
H    -0.287991  0.318411  4.075536
H    0.969931  -0.899255  4.457501
H    -0.525102  -0.807164  5.392459
O    1.667279  0.082665  -0.099516
H    -0.395339  -1.411470  -0.674374
