22
Energy: -12020.2103205 eV PBE+vdW (tier 2 basis)
N    0.344250  -0.700598  -0.104161
C    0.024338  -0.423819  1.309614
C    1.301610  0.131606  1.978802
O    2.431651  -0.218762  1.330013
H    0.217642  0.129945  -0.681781
H    2.093701  -0.666938  0.504042
H    -0.750030  0.350711  1.432322
C    -0.447834  -1.718588  2.029349
C    -1.665335  -2.370773  1.329153
C    -0.731207  -1.480951  3.518257
C    -2.904559  -1.486900  1.168034
H    0.383302  -2.441694  1.954923
H    -1.928947  -3.262814  1.918010
H    -1.373122  -2.771375  0.343924
H    -1.515414  -0.726845  3.669320
H    0.156657  -1.128456  4.053027
H    -1.066920  -2.416193  3.986220
H    -2.716345  -0.624597  0.512800
H    -3.259117  -1.098181  2.131485
H    -3.729417  -2.057759  0.722056
O    1.302099  0.796936  2.990585
H    -0.251003  -1.431956  -0.488996
