22
Energy: -12020.071259 eV PBE+vdW (tier 2 basis)
N    -0.861318  0.766362  0.779266
C    -0.332462  -0.167349  1.777646
C    1.182798  -0.065935  1.679239
O    1.806219  -0.018035  0.638297
H    -1.838060  0.567244  0.575426
H    -0.334009  0.647698  -0.088371
H    -0.617563  0.181595  2.782853
C    -0.796184  -1.662946  1.635071
C    -2.177313  -1.898475  2.279650
C    0.197812  -2.679401  2.215411
C    -3.352015  -1.050161  1.785570
H    -0.872909  -1.845249  0.548905
H    -2.072718  -1.769900  3.370461
H    -2.426312  -2.961129  2.130639
H    0.368579  -2.510286  3.288193
H    1.170538  -2.644047  1.707667
H    -0.194287  -3.699029  2.099556
H    -3.471243  -1.116013  0.693823
H    -3.251317  0.010006  2.057314
H    -4.290982  -1.400359  2.235038
O    1.784233  -0.048467  2.898224
H    2.745514  -0.018126  2.722123
