22
Energy: -12020.1192264 eV PBE+vdW (tier 2 basis)
N    -0.272712  0.505549  0.488680
C    -0.298176  0.032384  1.869788
C    1.023491  0.286194  2.581133
O    1.161275  0.266822  3.787009
H    -1.156870  0.295724  0.026592
H    0.469987  0.055086  -0.044885
H    -1.025755  0.653117  2.417026
C    -0.721512  -1.456144  2.125728
C    0.250506  -2.458616  1.481008
C    -2.173826  -1.670516  1.688027
C    -0.010711  -3.920530  1.851281
H    -0.670722  -1.586322  3.219731
H    1.279687  -2.201193  1.776952
H    0.214149  -2.348722  0.384149
H    -2.541443  -2.658176  1.992560
H    -2.283371  -1.609236  0.594194
H    -2.839561  -0.920555  2.137942
H    -0.002667  -4.061387  2.941721
H    0.762264  -4.575216  1.427236
H    -0.979437  -4.277210  1.476751
O    2.066797  0.493054  1.730267
H    2.849606  0.614892  2.302109
