22
Energy: -12020.0268696 eV PBE+vdW (tier 2 basis)
N    -0.111168  -0.023970  -0.267273
C    0.089955  -0.146315  1.180323
C    1.574228  -0.355042  1.447218
O    2.229525  0.244876  2.272422
H    -1.101998  0.117946  -0.468056
H    0.176728  -0.877865  -0.745281
H    -0.126341  0.834733  1.627037
C    -0.842678  -1.174671  1.909986
C    -0.783163  -1.081025  3.453661
C    -0.726751  -2.610352  1.389648
C    0.333129  -1.853720  4.164287
H    -1.848565  -0.812197  1.629661
H    -1.750853  -1.438544  3.840317
H    -0.723703  -0.017601  3.735838
H    -0.896392  -2.660556  0.305703
H    -1.483448  -3.248485  1.866893
H    0.257419  -3.051860  1.590027
H    0.258452  -2.935109  3.987796
H    0.263428  -1.697847  5.249191
H    1.333170  -1.526072  3.857140
O    2.114047  -1.324023  0.651606
H    3.060354  -1.366194  0.890292
