22
Energy: -12020.1833615 eV PBE+vdW (tier 2 basis)
N    0.185751  0.590156  3.550542
C    0.315203  -0.526147  2.613294
C    1.016756  -0.110434  1.318247
O    0.905424  0.972052  0.778376
H    1.103018  0.831786  3.927012
H    -0.132306  1.420117  3.045420
H    0.933143  -1.300631  3.089300
C    -1.077419  -1.169767  2.334526
C    -0.959859  -2.500062  1.568811
C    -2.059383  -0.194522  1.676256
C    -2.229492  -3.353631  1.608001
H    -1.451994  -1.393104  3.347911
H    -0.125457  -3.081113  1.992743
H    -0.683963  -2.304352  0.520094
H    -1.744852  0.077128  0.658713
H    -2.161050  0.730735  2.257823
H    -3.060457  -0.638917  1.610207
H    -2.533799  -3.567432  2.642943
H    -2.069526  -4.316144  1.104085
H    -3.075270  -2.862514  1.108520
O    1.807962  -1.100074  0.812793
H    2.186569  -0.744128  -0.015617
