22
Energy: -12019.9853684 eV PBE+vdW (tier 2 basis)
N    -0.851885  -1.166085  0.008572
C    -0.304000  -0.721486  1.285322
C    0.736167  0.363393  0.992390
O    0.928584  1.294403  1.970918
H    -0.127234  -1.092354  -0.708429
H    0.290631  1.142873  2.690614
H    -1.119916  -0.258637  1.868268
C    0.302771  -1.868309  2.168914
C    0.568773  -1.479755  3.636335
C    1.552190  -2.495593  1.543502
C    -0.642359  -0.977304  4.427779
H    -0.497019  -2.632271  2.182257
H    1.387325  -0.742746  3.683065
H    0.965012  -2.375511  4.139289
H    2.408732  -1.807894  1.580295
H    1.393428  -2.766051  0.491841
H    1.833572  -3.408685  2.084901
H    -0.388919  -0.846634  5.487814
H    -1.480143  -1.687107  4.371324
H    -1.025823  -0.007983  4.073533
O    1.392191  0.412043  -0.021034
H    -1.154077  -2.138306  0.058530
