22
Energy: -12020.2959759 eV PBE+vdW (tier 2 basis)
N    0.193549  0.243879  0.345434
C    0.167711  -0.302440  1.716758
C    1.522012  -0.991816  2.017755
O    2.451853  -0.769154  1.070157
H    -0.222984  1.170992  0.297957
H    1.955889  -0.222963  0.393603
H    0.159857  0.555784  2.408319
C    -1.048487  -1.188354  2.083192
C    -1.359079  -2.296233  1.058281
C    -2.289035  -0.319723  2.320049
C    -0.241619  -3.303830  0.778361
H    -0.770565  -1.673437  3.032111
H    -1.700252  -1.840725  0.110037
H    -2.242328  -2.836328  1.433034
H    -2.116517  0.419241  3.114898
H    -3.149622  -0.933923  2.617212
H    -2.579221  0.227135  1.409315
H    0.626562  -2.849767  0.281132
H    -0.603622  -4.106176  0.121798
H    0.123389  -3.763900  1.705726
O    1.737095  -1.626253  3.026730
H    -0.322585  -0.355007  -0.299859
