22
Energy: -12019.9883801 eV PBE+vdW (tier 2 basis)
N    -0.764646  1.086209  1.158143
C    0.113956  0.294220  2.003623
C    1.138614  -0.399330  1.102173
O    2.280045  -0.825265  1.716788
H    -1.692387  1.189724  1.564049
H    2.270162  -0.543305  2.648657
H    0.677072  0.978631  2.669913
C    -0.571625  -0.758091  2.943091
C    -1.313239  -1.855049  2.160016
C    -1.463828  -0.041853  3.964592
C    -1.838457  -3.001459  3.026974
H    0.243237  -1.247248  3.509617
H    -0.638806  -2.267951  1.394957
H    -2.149788  -1.400634  1.605330
H    -2.346968  0.410211  3.488036
H    -0.916185  0.757566  4.482790
H    -1.834415  -0.737656  4.727263
H    -2.285546  -3.786023  2.402597
H    -2.610231  -2.670900  3.734936
H    -1.029014  -3.465797  3.609229
O    0.976286  -0.608264  -0.076565
H    -0.849236  0.634263  0.245791
