22
Energy: -12020.1784894 eV PBE+vdW (tier 2 basis)
N    -0.658139  0.616002  0.387485
C    -0.123864  0.015130  1.615973
C    1.390937  -0.173039  1.557361
O    2.200589  0.346099  2.297407
H    -0.393938  0.053901  -0.423075
H    -0.268766  1.547891  0.245234
H    -0.290878  0.727678  2.437358
C    -0.860714  -1.305731  1.951216
C    -2.350473  -1.021018  2.214911
C    -0.194786  -2.035184  3.123792
C    -3.242802  -2.262913  2.182350
H    -0.786284  -1.948450  1.055156
H    -2.699705  -0.300890  1.462097
H    -2.444561  -0.520719  3.194000
H    0.842376  -2.320180  2.902073
H    -0.735733  -2.957118  3.370777
H    -0.181960  -1.403727  4.024490
H    -3.184828  -2.766692  1.206435
H    -4.294050  -1.993548  2.351384
H    -2.968986  -2.998554  2.951277
O    1.766289  -0.988962  0.523353
H    2.741652  -1.022735  0.553346
