22
Energy: -12020.0280739 eV PBE+vdW (tier 2 basis)
N    -0.429169  0.466779  3.144575
C    0.110975  -0.426059  2.111763
C    0.717505  0.447324  1.020294
O    1.827224  0.327048  0.549808
H    -1.192691  1.023325  2.758631
H    -0.810618  -0.072540  3.918858
H    0.969309  -0.961880  2.543285
C    -0.876602  -1.485814  1.509953
C    -1.001619  -2.739199  2.400702
C    -0.491070  -1.930687  0.091150
C    -1.453859  -2.550578  3.851311
H    -1.861804  -0.989029  1.458684
H    -0.032310  -3.265944  2.389641
H    -1.710704  -3.418253  1.901261
H    -0.520159  -1.101607  -0.627397
H    -1.187496  -2.700505  -0.268148
H    0.521120  -2.359113  0.065817
H    -1.651325  -3.525006  4.318346
H    -2.380701  -1.962447  3.917332
H    -0.690612  -2.059906  4.471926
O    -0.161242  1.402511  0.591816
H    0.312847  1.911579  -0.093608
