22
Energy: -12020.0942553 eV PBE+vdW (tier 2 basis)
N    0.308947  -0.972914  -0.458366
C    0.300404  -0.537437  0.934090
C    1.684898  -0.595802  1.569508
O    1.934348  -0.177791  2.681998
H    -0.632475  -0.932418  -0.847824
H    0.638348  -1.933372  -0.549280
H    0.078561  0.544051  0.929724
C    -0.769150  -1.172511  1.889871
C    -0.792980  -2.710360  1.890584
C    -2.157226  -0.619875  1.547193
C    0.473290  -3.408263  2.392766
H    -0.502704  -0.826763  2.901707
H    -1.039006  -3.069849  0.876764
H    -1.642452  -3.019251  2.519740
H    -2.477324  -0.916104  0.535673
H    -2.178372  0.477545  1.598370
H    -2.913514  -1.002797  2.245392
H    1.325369  -3.272990  1.713462
H    0.307436  -4.489974  2.485496
H    0.774942  -3.030386  3.379481
O    2.633820  -1.159972  0.773363
H    3.457969  -1.131910  1.297622
