22
Energy: -12020.0529597 eV PBE+vdW (tier 2 basis)
N    0.395321  -0.727410  -0.143758
C    0.045405  -0.228829  1.184496
C    1.281276  0.099914  2.007484
O    1.296802  0.879167  2.937940
H    -0.450011  -0.918753  -0.680039
H    0.923511  -1.596326  -0.089832
H    -0.452918  0.742470  1.039722
C    -0.933743  -1.071337  2.081139
C    -0.328301  -2.324549  2.750595
C    -2.225273  -1.376389  1.316766
C    0.178503  -3.451626  1.843271
H    -1.194088  -0.389896  2.907521
H    -1.106033  -2.732430  3.416214
H    0.487348  -2.010083  3.420389
H    -2.061473  -2.055766  0.468191
H    -2.683582  -0.457463  0.923902
H    -2.958635  -1.857044  1.978360
H    -0.566456  -3.752323  1.094066
H    0.413806  -4.342494  2.441263
H    1.099389  -3.174396  1.314126
O    2.378835  -0.617958  1.637703
H    3.087973  -0.347146  2.252653
