22
Energy: -12020.1033581 eV PBE+vdW (tier 2 basis)
N    0.309700  -0.078331  0.366694
C    -0.179918  -0.153544  1.742830
C    0.943926  -0.070090  2.769261
O    0.817278  -0.307426  3.952045
H    -0.460193  0.129888  -0.267804
H    0.998046  0.665436  0.265609
H    -0.806523  0.721741  2.026550
C    -1.077364  -1.400660  1.976363
C    -0.479886  -2.712123  1.435554
C    -2.473259  -1.166755  1.384197
C    0.884705  -3.112047  1.997243
H    -1.180039  -1.484578  3.069703
H    -0.412576  -2.646077  0.339229
H    -1.208771  -3.509692  1.651485
H    -3.139782  -2.007547  1.618644
H    -2.444465  -1.080079  0.287006
H    -2.934894  -0.253128  1.784771
H    0.882221  -3.142964  3.095504
H    1.672479  -2.416474  1.677330
H    1.172560  -4.108255  1.634757
O    2.115295  0.390329  2.241233
H    2.733460  0.453375  2.994795
