22
Energy: -12019.9619733 eV PBE+vdW (tier 2 basis)
N    -1.017026  0.834211  0.957853
C    -0.050439  0.287188  1.902035
C    1.104181  -0.464971  1.212162
O    2.200026  -0.730160  1.988960
H    -0.607917  1.636681  0.479625
H    2.054107  -0.379212  2.885243
H    0.389068  1.145077  2.440088
C    -0.703144  -0.621667  2.997006
C    -1.053698  -2.055300  2.538015
C    -1.881309  0.100825  3.656111
C    -2.086074  -2.208699  1.415973
H    0.070074  -0.750862  3.777130
H    -1.416164  -2.589465  3.430759
H    -0.127897  -2.573563  2.242340
H    -2.676331  0.312735  2.932652
H    -1.567774  1.064951  4.080419
H    -2.296725  -0.509030  4.470037
H    -1.679963  -1.906682  0.441736
H    -2.995805  -1.623652  1.603259
H    -2.384550  -3.261031  1.319873
O    1.084359  -0.834633  0.062689
H    -1.201998  0.147261  0.225033
