22
Energy: -12020.0435389 eV PBE+vdW (tier 2 basis)
N    -0.741407  0.057291  -0.395222
C    -0.424573  0.161002  1.035018
C    1.073825  0.392159  1.211622
O    1.557439  1.303545  1.852785
H    -0.458710  0.907861  -0.883462
H    -1.750734  -0.022025  -0.518577
H    -0.887145  1.032932  1.532754
C    -0.863227  -1.123478  1.786486
C    -2.377598  -1.392312  1.640661
C    -0.428706  -1.085301  3.257140
C    -3.315389  -0.304938  2.173754
H    -0.344187  -1.958344  1.289975
H    -2.588793  -2.338036  2.164198
H    -2.610361  -1.596954  0.583949
H    -0.811662  -0.197248  3.778747
H    0.664422  -1.073172  3.358982
H    -0.798738  -1.972574  3.788346
H    -3.152265  -0.107495  3.241588
H    -4.363773  -0.608666  2.054592
H    -3.193244  0.649507  1.641875
O    1.833621  -0.548176  0.589104
H    2.759587  -0.304397  0.783342
