22
Energy: -12019.9769979 eV PBE+vdW (tier 2 basis)
N    -0.665387  0.778372  0.149519
C    -0.344365  0.332005  1.515179
C    1.172310  0.391919  1.691732
O    1.746481  1.136654  2.460390
H    -0.311700  1.725755  0.005739
H    -1.678713  0.840266  0.044459
H    -0.736732  1.008872  2.298305
C    -0.889992  -1.087103  1.802548
C    -2.427278  -1.159051  1.617524
C    -0.486911  -1.532045  3.213807
C    -2.886380  -1.696408  0.258271
H    -0.421297  -1.764226  1.071219
H    -2.871343  -0.166408  1.807828
H    -2.840950  -1.808152  2.404129
H    0.601720  -1.522058  3.361203
H    -0.835947  -2.555129  3.405928
H    -0.930309  -0.877877  3.979276
H    -2.540418  -2.729966  0.114891
H    -2.490125  -1.110328  -0.581119
H    -3.982470  -1.701203  0.183159
O    1.833633  -0.484216  0.889708
H    2.782270  -0.351353  1.081674
