22
Energy: -12020.1022634 eV PBE+vdW (tier 2 basis)
N    -0.317145  0.720864  0.339475
C    -0.133545  0.148954  1.677497
C    1.361873  0.084068  1.964463
O    1.923539  0.562252  2.925588
H    -0.025834  0.055442  -0.378064
H    -1.300461  0.934158  0.176989
H    -0.522561  0.875579  2.403931
C    -0.798898  -1.237503  1.942325
C    -2.320552  -1.201829  1.686678
C    -0.459318  -1.772457  3.340191
C    -3.136573  -0.271391  2.588896
H    -0.370238  -1.932980  1.200065
H    -2.696187  -2.231356  1.796027
H    -2.501313  -0.938658  0.632448
H    -0.734449  -1.060520  4.130604
H    0.614263  -1.973855  3.449351
H    -0.993034  -2.712962  3.534407
H    -4.204869  -0.337872  2.344283
H    -2.845076  0.782510  2.475774
H    -3.028526  -0.528388  3.651001
O    2.027121  -0.617670  0.999341
H    2.969374  -0.594959  1.254885
