22
Energy: -12020.2601069 eV PBE+vdW (tier 2 basis)
N    -1.224713  0.370314  0.619695
C    -0.193126  0.128586  1.651421
C    1.199250  0.318403  1.005149
O    1.161801  0.340743  -0.340953
H    -2.036021  -0.231768  0.758343
H    0.183766  0.279364  -0.542502
H    -0.255412  0.856515  2.475367
C    -0.339368  -1.291750  2.263178
C    0.460731  -1.422944  3.571823
C    -0.011903  -2.399305  1.251759
C    0.196690  -2.720255  4.338240
H    -1.410701  -1.374902  2.530709
H    0.209064  -0.565917  4.216674
H    1.533351  -1.323258  3.350892
H    1.062815  -2.416175  1.021000
H    -0.553623  -2.269153  0.305277
H    -0.283890  -3.384915  1.648296
H    0.715125  -2.708865  5.305892
H    0.551315  -3.604801  3.792784
H    -0.876073  -2.860614  4.539693
O    2.225829  0.416198  1.641217
H    -1.553909  1.334498  0.644045
