22
Energy: -12020.1183728 eV PBE+vdW (tier 2 basis)
N    -0.568092  0.303304  0.553490
C    -0.013400  -0.128404  1.853130
C    1.507686  -0.379425  1.634113
O    1.980501  0.240380  0.534543
H    -0.835942  -0.499802  -0.016052
H    1.158767  0.628377  0.117247
H    -0.058561  0.760604  2.507833
C    -0.722267  -1.290359  2.601519
C    -2.266093  -1.227408  2.500625
C    -0.302044  -1.300313  4.079668
C    -2.896850  -1.955710  1.310274
H    -0.385173  -2.236668  2.143693
H    -2.599942  -0.175721  2.526300
H    -2.672950  -1.675985  3.419306
H    -0.672170  -0.397019  4.590187
H    0.786163  -1.339846  4.188341
H    -0.734534  -2.170135  4.592380
H    -2.628881  -1.516748  0.339603
H    -3.993390  -1.938222  1.375356
H    -2.584669  -3.009465  1.288239
O    2.217106  -1.031595  2.367015
H    -1.398265  0.881163  0.670189
