22
Energy: -12020.0907415 eV PBE+vdW (tier 2 basis)
N    -0.249552  -0.172547  -0.247637
C    -0.216972  0.001175  1.201294
C    1.129484  0.367778  1.832842
O    1.261768  0.876686  2.927065
H    0.436042  -0.860738  -0.554284
H    -0.012421  0.702359  -0.713473
H    -0.867621  0.858045  1.435424
C    -0.819352  -1.207648  1.986916
C    0.099024  -2.444499  2.113622
C    -2.211110  -1.552519  1.449869
C    0.497750  -3.178473  0.828437
H    -0.939514  -0.829378  3.014512
H    -0.423888  -3.152907  2.775661
H    1.010967  -2.157768  2.661031
H    -2.665754  -2.348582  2.055676
H    -2.177824  -1.884286  0.405630
H    -2.875004  -0.677858  1.487780
H    -0.368149  -3.403903  0.191983
H    0.983488  -4.133402  1.070275
H    1.219131  -2.603452  0.231739
O    2.199013  0.045961  1.045887
H    2.987581  0.299525  1.564123
