22
Energy: -12019.9546209 eV PBE+vdW (tier 2 basis)
N    0.034067  -0.098519  -0.023452
C    -0.032925  -0.299461  1.432677
C    1.243838  0.224401  2.115125
O    2.356664  -0.575199  2.037614
H    0.204023  0.885804  -0.232997
H    2.104251  -1.441956  1.669084
H    -0.830887  0.354850  1.810630
C    -0.381363  -1.759362  1.787826
C    -1.643462  -2.258507  1.049199
C    -0.478096  -1.942408  3.308916
C    -2.928445  -1.473650  1.322908
H    0.443552  -2.408090  1.422581
H    -1.791069  -3.313648  1.328912
H    -1.445244  -2.246038  -0.030945
H    -1.261438  -1.303698  3.738711
H    0.461360  -1.689184  3.818341
H    -0.721341  -2.983509  3.558676
H    -3.178789  -1.437188  2.391851
H    -3.776345  -1.943175  0.807151
H    -2.858292  -0.441604  0.954567
O    1.329893  1.314969  2.628255
H    0.807050  -0.624828  -0.435631
