22
Energy: -12020.1167632 eV PBE+vdW (tier 2 basis)
N    0.418050  -0.233045  -0.045909
C    0.084023  -0.097853  1.372756
C    1.341068  0.020686  2.218389
O    1.416682  0.631981  3.264506
H    -0.435748  -0.364845  -0.589314
H    1.009760  -1.047884  -0.206884
H    -0.426510  0.866747  1.496676
C    -0.873245  -1.198031  1.956505
C    -1.432941  -0.865158  3.351795
C    -0.255164  -2.599058  1.938701
C    -2.193136  0.458142  3.460052
H    -1.725897  -1.193299  1.251861
H    -0.613228  -0.876306  4.086884
H    -2.103843  -1.691658  3.636153
H    0.159858  -2.857642  0.955081
H    -1.013701  -3.354598  2.183396
H    0.553387  -2.692732  2.677759
H    -1.525766  1.324223  3.363304
H    -2.686734  0.541673  4.437352
H    -2.974447  0.540356  2.689484
O    2.391264  -0.684592  1.709303
H    3.125889  -0.555665  2.340183
