22
Energy: -12020.185008 eV PBE+vdW (tier 2 basis)
N    -0.527059  0.858142  0.998183
C    0.165137  -0.001578  1.949273
C    1.114854  -1.001718  1.279638
O    1.255474  -1.151922  0.083229
H    0.131008  1.513937  0.578484
H    -0.881919  0.298987  0.220572
H    0.823649  0.637593  2.560880
C    -0.822013  -0.669258  2.957626
C    -1.987804  -1.422067  2.290723
C    -1.357942  0.397507  3.919254
C    -1.612809  -2.652234  1.460129
H    -0.232654  -1.396097  3.538765
H    -2.567130  -0.712530  1.678321
H    -2.669331  -1.733832  3.097622
H    -1.894930  1.181247  3.368488
H    -0.543113  0.875907  4.480947
H    -2.050186  -0.046649  4.647373
H    -2.514204  -3.193394  1.142433
H    -0.995211  -3.353504  2.039999
H    -1.055229  -2.396304  0.549860
O    1.841720  -1.706727  2.193460
H    2.421692  -2.297507  1.674743
