22
Energy: -12020.0145559 eV PBE+vdW (tier 2 basis)
N    -1.398940  -0.197794  0.946467
C    -0.023632  -0.381784  1.407098
C    0.993805  -0.164595  0.271066
O    2.110616  0.567209  0.571901
H    -1.541048  0.766414  0.643039
H    2.076600  0.829238  1.508394
H    0.159676  0.361128  2.203177
C    0.162887  -1.802138  2.006286
C    -0.856465  -2.089263  3.128631
C    1.609736  -2.060469  2.446763
C    -0.754148  -1.201329  4.370922
H    -0.060932  -2.502487  1.182615
H    -0.729060  -3.143338  3.422386
H    -1.866857  -1.999761  2.708907
H    1.695071  -3.054318  2.905892
H    1.953075  -1.328943  3.193930
H    2.310794  -2.029152  1.602592
H    0.238091  -1.247711  4.841021
H    -1.485046  -1.516749  5.127109
H    -0.970742  -0.149124  4.139020
O    0.845314  -0.598303  -0.847253
H    -1.541795  -0.775731  0.114039
