22
Energy: -12020.1390306 eV PBE+vdW (tier 2 basis)
N    -0.723829  0.090906  0.410245
C    -0.072335  -0.200677  1.691132
C    1.401762  -0.555800  1.483508
O    1.810354  -1.429732  0.744997
H    -0.310029  0.922037  -0.013696
H    -0.553105  -0.681340  -0.238245
H    -0.120643  0.709056  2.307754
C    -0.789214  -1.341459  2.454519
C    -2.281387  -1.017620  2.703843
C    -0.065428  -1.646726  3.772926
C    -3.247888  -1.504342  1.622231
H    -0.726076  -2.241136  1.817219
H    -2.396806  0.069603  2.841544
H    -2.569315  -1.473662  3.663999
H    -0.559931  -2.476722  4.293973
H    -0.078840  -0.775408  4.444803
H    0.983557  -1.934867  3.620711
H    -4.289119  -1.294992  1.904852
H    -3.159579  -2.590974  1.475231
H    -3.050811  -1.011683  0.663342
O    2.238738  0.247401  2.201592
H    3.145923  -0.052863  1.992520
