22
Energy: -12020.1703197 eV PBE+vdW (tier 2 basis)
N    -0.200167  1.171447  1.269747
C    0.341877  0.098592  2.093475
C    1.333333  -0.686376  1.252427
O    1.366770  -0.709791  0.039328
H    -0.329428  0.841945  0.312326
H    -1.096168  1.497857  1.626712
H    0.917581  0.540173  2.925202
C    -0.684296  -0.886939  2.755327
C    -1.501654  -1.673887  1.716700
C    -1.564905  -0.124340  3.752321
C    -2.384927  -2.773220  2.311472
H    -0.076344  -1.606943  3.328936
H    -0.814155  -2.128848  0.986933
H    -2.127255  -0.973858  1.139219
H    -2.248953  0.573246  3.244583
H    -0.955361  0.455287  4.459277
H    -2.187868  -0.810220  4.339686
H    -2.877245  -3.349984  1.517281
H    -3.176248  -2.368345  2.956425
H    -1.793545  -3.478117  2.914013
O    2.188549  -1.412586  2.024850
H    2.755409  -1.907094  1.401759
