22
Energy: -12019.9910422 eV PBE+vdW (tier 2 basis)
N    -0.758566  0.819674  1.546071
C    -0.047694  -0.320525  2.156611
C    1.379182  -0.269774  1.603938
O    1.916395  -1.075030  0.878174
H    -0.257276  1.682490  1.759888
H    -1.682105  0.910535  1.970245
H    0.047969  -0.214667  3.259271
C    -0.716323  -1.680191  1.871995
C    -2.246894  -1.654795  2.102282
C    -0.062669  -2.767641  2.735597
C    -3.082041  -1.326512  0.860435
H    -0.529781  -1.918695  0.813013
H    -2.491997  -0.962063  2.927216
H    -2.551055  -2.645871  2.471956
H    -0.262701  -2.594204  3.804417
H    1.024024  -2.810370  2.592132
H    -0.468518  -3.755067  2.478810
H    -4.154733  -1.304998  1.097764
H    -2.930428  -2.090289  0.084369
H    -2.806989  -0.360999  0.418205
O    2.012566  0.865230  2.031201
H    2.893635  0.854762  1.609412
