22
Energy: -12020.1445263 eV PBE+vdW (tier 2 basis)
N    0.060520  -0.059366  0.443599
C    -0.309855  -0.255989  1.840042
C    0.769126  0.001708  2.904059
O    0.618104  -0.166337  4.096427
H    0.865086  -0.634356  0.194845
H    0.339227  0.906458  0.278336
H    -1.072672  0.505572  2.079248
C    -1.002733  -1.630307  2.071785
C    -0.203595  -2.829101  1.528098
C    -2.411343  -1.610452  1.469428
C    1.187930  -3.043450  2.129417
H    -1.087644  -1.741424  3.164025
H    -0.133461  -2.748332  0.430855
H    -0.811214  -3.728692  1.712508
H    -3.032352  -0.830703  1.932356
H    -2.915533  -2.574003  1.624545
H    -2.372129  -1.414727  0.389292
H    1.147984  -3.100915  3.225940
H    1.890229  -2.238453  1.869681
H    1.629147  -3.979396  1.761135
O    1.929648  0.500648  2.382849
H    2.512531  0.650617  3.152530
