22
Energy: -12020.1365385 eV PBE+vdW (tier 2 basis)
N    0.312058  0.095611  0.166326
C    -0.123423  -0.068007  1.546130
C    1.110536  -0.096422  2.431584
O    2.251606  -0.256343  2.048545
H    -0.372087  -0.273536  -0.490893
H    1.201748  -0.383109  0.022355
H    -0.677317  0.836585  1.857163
C    -1.098514  -1.261266  1.846092
C    -0.563299  -2.654899  1.469527
C    -2.440973  -0.995747  1.151235
C    0.522678  -3.231264  2.381983
H    -1.276589  -1.240109  2.933861
H    -0.203385  -2.636792  0.427313
H    -1.423454  -3.342753  1.468339
H    -3.182946  -1.750438  1.444166
H    -2.353887  -1.044159  0.054649
H    -2.842835  -0.006709  1.410981
H    0.728395  -4.278212  2.121424
H    0.208678  -3.209154  3.435541
H    1.471662  -2.687946  2.302027
O    0.795884  0.086199  3.743398
H    1.641465  0.035470  4.229256
