22
Energy: -12020.1128345 eV PBE+vdW (tier 2 basis)
N    0.014224  -0.089343  3.412939
C    0.329817  -0.644784  2.089546
C    0.653265  0.462534  1.085631
O    1.745588  0.686424  0.605713
H    -0.785162  0.543428  3.348893
H    0.800883  0.458766  3.762468
H    1.262763  -1.219086  2.189814
C    -0.771033  -1.599011  1.574418
C    -1.026071  -2.769849  2.552561
C    -0.400345  -2.124001  0.180400
C    -2.090724  -2.516572  3.622015
H    -1.702328  -1.013393  1.481339
H    -0.075169  -3.049465  3.034492
H    -1.328419  -3.645467  1.957011
H    -1.201680  -2.763067  -0.212529
H    0.519661  -2.726277  0.216888
H    -0.238113  -1.315527  -0.545479
H    -3.052754  -2.243573  3.163381
H    -1.791724  -1.707918  4.298555
H    -2.260216  -3.418863  4.226058
O    -0.436728  1.245284  0.813240
H    -0.117737  1.941760  0.207647
