22
Energy: -12019.8993696 eV PBE+vdW (tier 2 basis)
N    -1.497642  -0.447104  1.208199
C    -0.093664  -0.362405  1.608979
C    0.675453  0.081668  0.357737
O    1.659977  1.005132  0.540108
H    -1.530683  -0.799543  0.248535
H    1.669006  1.277827  1.474169
H    0.008072  0.428401  2.378668
C    0.531146  -1.674928  2.201999
C    0.155838  -1.877742  3.684589
C    2.059106  -1.746162  2.068628
C    -1.329452  -1.942376  4.049920
H    0.101094  -2.498038  1.605745
H    0.636780  -1.076781  4.272518
H    0.637835  -2.811888  4.013439
H    2.555444  -0.930781  2.617574
H    2.391601  -1.702228  1.024050
H    2.430592  -2.688120  2.494085
H    -1.449387  -2.208292  5.108669
H    -1.859969  -2.706957  3.463047
H    -1.842774  -0.981443  3.906762
O    0.457373  -0.359195  -0.746245
H    -2.011743  -1.100047  1.794824
