22
Energy: -12020.027747 eV PBE+vdW (tier 2 basis)
N    -0.444947  0.836448  0.605736
C    0.160740  0.300833  1.819774
C    1.406830  -0.556737  1.521528
O    2.166008  -0.915749  2.600633
H    0.059058  1.670089  0.306189
H    1.764350  -0.558480  3.412363
H    0.491505  1.153079  2.438084
C    -0.871030  -0.502110  2.673967
C    -1.416446  -1.718509  1.903764
C    -1.974009  0.436743  3.171138
C    -2.237932  -2.686278  2.757919
H    -0.332777  -0.890197  3.559930
H    -0.574412  -2.270644  1.457145
H    -2.027383  -1.357225  1.061675
H    -2.511439  0.874783  2.320494
H    -1.555473  1.261538  3.765618
H    -2.695650  -0.092414  3.805857
H    -1.656070  -3.054604  3.615682
H    -2.544949  -3.560616  2.169114
H    -3.152087  -2.221617  3.150682
O    1.728430  -0.924295  0.416580
H    -0.317317  0.158960  -0.149872
