22
Energy: -12020.1114147 eV PBE+vdW (tier 2 basis)
N    0.528759  -0.163061  0.456891
C    -0.182016  -0.087021  1.728185
C    0.832276  0.173998  2.826715
O    2.019757  -0.070716  2.760230
H    1.463290  -0.542948  0.610610
H    0.043421  -0.766736  -0.203101
H    -0.854788  0.788660  1.709354
C    -1.091523  -1.299403  2.139520
C    -0.351380  -2.562767  2.630136
C    -2.108732  -1.601265  1.033106
C    0.556492  -3.295032  1.636096
H    -1.662785  -0.930148  3.006947
H    -1.125226  -3.262888  2.984826
H    0.237747  -2.305166  3.524468
H    -1.640133  -1.992003  0.118329
H    -2.676985  -0.702283  0.756848
H    -2.825382  -2.362190  1.370950
H    0.038336  -3.535138  0.697474
H    0.899596  -4.245016  2.067856
H    1.450199  -2.710071  1.388492
O    0.251277  0.695657  3.941898
H    0.968799  0.788536  4.598170
