20
Energy: -565820.548704 eV PBE+vdW (tier 2 basis)
C    0.034280  0.260840  -0.017008
C    0.021861  0.568460  1.456055
O    1.192399  0.845098  1.917793
H    1.049270  0.333655  -0.418749
H    -0.611570  0.981639  -0.541415
H    -0.341338  -0.761747  -0.174935
N    -1.084679  0.548444  2.168497
C    -2.433849  0.241939  1.699503
C    -3.315939  0.368855  2.950039
O    -2.804819  0.675373  4.028550
H    -1.096620  0.759969  3.182344
H    -2.757701  0.952499  0.923633
H    -2.490881  -0.776831  1.286544
N    -4.659269  0.141714  2.860298
C    -5.453515  -0.226751  1.719454
H    -5.142493  0.256922  3.757966
H    -6.252808  0.522556  1.567362
H    -5.976388  -1.180012  1.923857
H    -4.856184  -0.320530  0.809806
Hg    1.871239  1.370908  3.956402
