20
Energy: -565821.431245 eV PBE+vdW (tier 2 basis)
C    -1.324724  2.152447  1.212621
C    -0.938929  0.951054  0.414662
O    -0.259651  1.190759  -0.647700
H    -0.456335  2.808913  1.345208
H    -1.759110  1.885904  2.183669
H    -2.076461  2.717633  0.637056
N    -1.325863  -0.266744  0.841096
C    -1.522511  -1.509378  0.069055
C    -0.377702  -2.536618  0.103830
O    0.674672  -2.420920  -0.644433
H    -1.796185  -0.253882  1.744522
H    -2.443749  -1.969519  0.449866
H    -1.732668  -1.267240  -0.985562
N    -0.494568  -3.597887  0.867496
C    0.489687  -4.685480  0.969836
H    -1.362146  -3.714398  1.390271
H    0.206878  -5.499946  0.289435
H    0.485952  -5.056147  1.999860
H    1.481658  -4.311530  0.703241
Hg    0.814755  -0.460020  -1.507028
