20
Energy: -565821.324896 eV PBE+vdW (tier 2 basis)
C    0.158107  0.307097  0.519510
C    0.513469  -0.815154  1.438415
O    1.769136  -1.047433  1.561526
H    0.420535  0.005533  -0.507636
H    -0.910660  0.550254  0.550411
H    0.760751  1.191272  0.761166
N    -0.477192  -1.494615  2.047231
C    -0.463005  -2.855800  2.612177
C    -0.233609  -2.968169  4.127932
O    0.968694  -3.001735  4.622346
H    -1.405774  -1.119677  1.862393
H    -1.415569  -3.322919  2.337144
H    0.309513  -3.463109  2.114519
N    -1.225085  -3.106480  4.977591
C    -2.670672  -3.227389  4.751450
H    -0.926793  -3.202455  5.954390
H    -3.182571  -2.530985  5.426512
H    -2.989671  -4.251312  4.984782
H    -2.937550  -2.984953  3.720265
Hg    2.417492  -2.230264  3.239538
