20
Energy: -565820.759163 eV PBE+vdW (tier 2 basis)
C    0.406672  -0.352674  0.208491
C    -0.009318  0.333536  1.464625
O    0.816443  0.868498  2.304056
H    0.906679  0.373718  -0.452303
H    -0.442566  -0.778566  -0.335871
H    1.114490  -1.159596  0.446442
N    -1.288089  0.393769  1.798113
C    -1.818055  1.013852  3.008407
C    -3.335270  0.855860  2.903612
O    -3.799714  0.252852  1.930421
H    -2.007445  -0.079446  1.229035
H    -1.421209  0.525682  3.911484
H    -1.551045  2.082880  3.048772
N    -4.160822  1.368821  3.854548
C    -3.826344  1.876797  5.162422
H    -5.154614  1.225358  3.644595
H    -4.420303  2.787606  5.348840
H    -2.760887  2.101639  5.254289
H    -4.121106  1.152242  5.944519
Hg    2.958906  1.254305  1.823445
