20
Energy: -565820.626156 eV PBE+vdW (tier 2 basis)
C    -1.317927  -0.368385  -0.417818
C    -0.708665  0.446916  0.689664
O    0.072126  1.375407  0.258510
H    -2.414258  -0.281058  -0.369034
H    -1.022034  -1.421728  -0.295882
H    -0.974978  -0.012400  -1.393856
N    -0.968939  0.209192  1.959294
C    -1.843669  -0.824894  2.501673
C    -1.771294  -0.650060  4.027050
O    -1.077170  0.236204  4.516032
H    -0.548512  0.767408  2.721715
H    -2.880973  -0.695493  2.154316
H    -1.502774  -1.831044  2.211514
N    -2.509023  -1.519090  4.787171
C    -2.544267  -1.491521  6.223806
H    -3.045133  -2.249208  4.313187
H    -2.017043  -0.611330  6.598920
H    -2.078705  -2.412614  6.630412
H    -3.594172  -1.519113  6.566834
Hg    1.279412  2.895812  1.327492
