20
Energy: -565821.325106 eV PBE+vdW (tier 2 basis)
C    0.168213  2.896926  0.852775
C    -0.435853  2.188287  2.020289
O    0.260143  2.212076  3.097649
H    -0.390541  2.724673  -0.074956
H    1.215349  2.593196  0.732977
H    0.165048  3.977827  1.068936
N    -1.639082  1.601566  1.872157
C    -2.636709  1.250020  2.898501
C    -2.631038  -0.205860  3.391501
O    -1.846258  -0.582514  4.357604
H    -2.002878  1.645745  0.922041
H    -2.515982  1.898776  3.780435
H    -3.619272  1.506969  2.486434
N    -3.457640  -1.108738  2.916593
C    -4.534677  -0.994407  1.925378
H    -3.367011  -2.030305  3.357980
H    -5.504109  -1.095681  2.429901
H    -4.421746  -1.810247  1.201265
H    -4.493423  -0.039931  1.395673
Hg    -0.222535  0.791621  4.641869
