20
Energy: -565820.860667 eV PBE+vdW (tier 2 basis)
C    0.402817  -0.345328  0.257691
C    -0.027992  0.435909  1.451239
O    0.761662  1.181954  2.150747
H    0.874483  0.326862  -0.472973
H    -0.431063  -0.864536  -0.225992
H    1.141744  -1.101757  0.568657
N    -1.296271  0.426414  1.833240
C    -1.839380  1.170736  2.962045
C    -3.328791  0.821783  3.003120
O    -3.785860  0.053412  2.155743
H    -2.013817  -0.064830  1.278302
H    -1.362371  0.853358  3.905732
H    -1.677519  2.253213  2.845003
N    -4.095937  1.371659  3.984133
C    -5.511049  1.123213  4.107675
H    -3.680881  2.088009  4.582763
H    -5.790967  1.164499  5.169379
H    -5.760831  0.163944  3.638518
H    -6.095164  1.911663  3.590050
Hg    2.987654  1.032470  2.055286
