20
Energy: -565820.968885 eV PBE+vdW (tier 2 basis)
C    -0.553850  2.544105  1.031521
C    -0.060919  1.315903  1.780967
O    1.167317  1.245234  2.033530
H    -0.622898  2.265583  -0.032520
H    0.185676  3.343249  1.133723
H    -1.531666  2.876571  1.396424
N    -0.894819  0.336579  2.183455
C    -2.246652  0.111669  1.728114
C    -3.281063  0.396190  2.808230
O    -2.892807  0.915154  3.945936
H    -1.917940  1.036234  3.940460
H    -2.473400  0.730769  0.841796
H    -2.354282  -0.931353  1.390259
N    -4.554011  0.159864  2.669301
C    -5.263166  -0.396394  1.510352
H    -5.135561  0.409749  3.476352
H    -4.569948  -0.656401  0.706843
H    -5.981700  0.347642  1.144697
H    -5.807667  -1.293711  1.828187
Hg    0.967358  -0.866639  2.963373
