21
Energy: -575226.0573093  eV PBE+vdW (tier 2 basis)
N    2.675530  -0.203062  1.840052
C    1.266565  0.321784  1.864104
C    1.289685  1.657259  2.728835
O    0.341857  2.450506  2.434055
H    3.129644  0.006909  2.747920
H    3.251746  0.222597  1.099863
H    0.977503  0.577873  0.837776
C    0.318178  -0.698612  2.484509
C    0.145748  -1.997347  1.640838
S    1.560000  -3.128278  1.552712
C    1.541663  -3.966642  3.145754
H    -0.674863  -0.232957  2.553237
H    0.624403  -0.941312  3.512926
H    -0.100496  -1.758698  0.596924
H    -0.701686  -2.558946  2.061372
H    2.426043  -4.614274  3.163055
H    0.634116  -4.583005  3.212886
H    1.576583  -3.260589  3.985783
O    2.179896  1.778166  3.571364
H    2.657377  -1.257404  1.694440
Hg    0.737507  4.113029  3.931593
