21
Energy: -575226.0793497  eV PBE+vdW (tier 2 basis)
N    0.244752  -0.062917  -0.215234
C    -0.145629  0.129662  1.101677
C    0.846358  -0.497539  2.136072
O    0.861254  -0.106791  3.277125
H    0.590566  -0.964850  -0.538257
H    0.280164  0.708491  -0.877628
H    -0.229315  1.200915  1.324460
C    -1.603552  -0.537148  1.409201
C    -2.156200  -0.066377  2.769550
S    -3.855826  -0.702635  2.792984
C    -3.701516  -2.390706  3.422146
H    -1.504637  -1.628588  1.350333
H    -2.241146  -0.195825  0.584310
H    -2.238476  1.027268  2.815630
H    -1.594338  -0.427990  3.636956
H    -3.141728  -2.421720  4.363001
H    -3.203294  -2.990269  2.648137
H    -4.721646  -2.773052  3.549586
O    1.583899  -1.460982  1.594902
H    2.210363  -1.825143  2.258183
Hg    -5.258524  0.451556  4.796793
