21
Energy: -575226.5800295  eV PBE+vdW (tier 2 basis)
N    1.591010  -0.151590  -0.200149
C    0.925557  0.194476  1.082280
C    1.816239  -0.294850  2.245318
O    2.495590  -1.321982  2.154782
H    0.974195  0.018856  -1.000662
H    2.443090  0.400409  -0.350784
H    0.830764  1.291240  1.148319
C    -0.510588  -0.410386  1.188645
C    -0.718501  -1.865899  1.650224
S    -0.395787  -3.190973  0.385043
C    -0.548752  -4.709918  1.360336
H    -1.033812  -0.221892  0.238686
H    -1.053962  0.197137  1.928473
H    -1.786813  -2.010372  1.874118
H    -0.155318  -2.117843  2.558515
H    -0.282988  -5.537184  0.691259
H    -1.611861  -4.787614  1.631463
H    0.086770  -4.693558  2.251117
O    1.803953  0.352145  3.385974
H    1.312033  1.197912  3.367485
Hg    1.970182  -2.475115  0.121557
