21
Energy: -575226.4562373  eV PBE+vdW (tier 2 basis)
N    0.052873  0.804719  0.546767
C    0.171959  0.375788  1.955469
C    1.335470  -0.642461  2.069740
O    1.653898  -1.394916  1.144809
H    0.865812  1.353629  0.246768
H    -0.774671  1.385448  0.386618
H    0.451463  1.244209  2.575968
C    -1.154916  -0.221828  2.545786
C    -2.243046  -0.791883  1.618526
S    -1.864464  -2.398665  0.774682
C    -3.356394  -2.686170  -0.211158
H    -1.661082  0.591702  3.086721
H    -0.896902  -0.962270  3.316178
H    -2.587599  -0.080537  0.856740
H    -3.117663  -1.038300  2.240776
H    -3.623209  -1.818412  -0.822122
H    -4.152784  -2.925196  0.508559
H    -3.152570  -3.566515  -0.832579
O    1.985264  -0.737832  3.203764
H    1.743085  -0.063799  3.870628
Hg    -0.009650  -1.361667  -0.537498
