21
Energy: -575225.5339096  eV PBE+vdW (tier 2 basis)
N    0.662049  0.681299  0.041400
C    0.277064  0.223120  1.312772
C    1.526379  -0.293168  2.172128
O    2.390018  -1.015119  1.786021
H    0.867563  0.025511  -0.709898
H    1.036690  1.619290  -0.076320
H    -0.102644  1.080623  1.888700
C    -0.773859  -0.903300  1.217684
C    -1.192512  -1.585454  2.526117
S    -2.309543  -0.520717  3.526620
C    -3.241924  -1.716229  4.508537
H    -0.389739  -1.707784  0.569156
H    -1.651273  -0.486343  0.701142
H    -0.344907  -1.911400  3.145249
H    -1.795592  -2.480599  2.314086
H    -3.916591  -2.219614  3.797345
H    -3.839069  -1.150192  5.233319
H    -2.590911  -2.446753  5.000963
O    1.452031  0.211810  3.455240
H    2.283611  -0.053485  3.914027
Hg    -0.682392  0.530385  5.312331
