21
Energy: -575225.8868063  eV PBE+vdW (tier 2 basis)
N    0.627108  0.639295  0.240784
C    0.440220  0.084010  1.646436
C    1.845531  -0.467289  2.074658
O    1.853787  -1.115438  3.164877
H    0.083978  1.499197  0.082998
H    0.372527  -0.036600  -0.492167
H    0.281053  0.955493  2.298598
C    -0.742879  -0.867344  1.795236
C    -0.611645  -2.222990  1.052797
S    -1.717258  -3.513643  1.677386
C    -3.329537  -3.041625  1.065529
H    -1.660214  -0.349724  1.478710
H    -0.844651  -1.049038  2.873766
H    0.386670  -2.658806  1.203746
H    -0.791339  -2.129076  -0.029550
H    -3.649952  -2.079021  1.493020
H    -4.021174  -3.828676  1.389282
H    -3.324174  -2.978436  -0.032900
O    2.811937  -0.178150  1.345664
H    1.647606  0.832128  0.134707
Hg    4.162681  -1.366085  3.337322
