21
Energy: -575225.3180601  eV PBE+vdW (tier 2 basis)
N    0.036262  0.882323  0.900800
C    0.100106  -0.218811  1.895593
C    1.545610  -0.695558  2.162786
O    2.553019  0.131732  2.137116
H    0.115506  0.568873  -0.071856
H    -0.822007  1.435551  0.987357
H    -0.211186  0.231346  2.853469
C    -0.911907  -1.375914  1.628511
C    -0.614231  -2.384221  0.507092
S    0.218235  -3.958239  0.970341
C    -0.924782  -4.805067  2.087792
H    -1.879156  -0.904072  1.404141
H    -1.070476  -1.887584  2.586784
H    0.028475  -1.991532  -0.294187
H    -1.541643  -2.715017  0.020599
H    -1.253834  -4.163203  2.909805
H    -0.369243  -5.669876  2.473173
H    -1.766581  -5.154773  1.479067
O    1.779184  -1.860165  2.491146
H    1.078293  -3.369679  1.880576
Hg    2.070562  2.115905  1.399004
