21
Energy: -575225.8533119  eV PBE+vdW (tier 2 basis)
N    -0.187627  0.374802  0.238202
C    -0.276915  0.276662  1.641814
C    1.181206  0.520852  2.317117
O    1.310597  0.462098  3.531226
H    -0.600047  1.168111  -0.245119
H    -0.079993  -0.466239  -0.324459
H    -0.852717  1.128701  2.037904
C    -0.835856  -1.059152  2.169698
C    -2.326789  -1.198670  1.773405
S    -2.947739  -2.749865  2.444829
C    -4.549289  -2.339882  3.115540
H    -0.717971  -1.083971  3.261575
H    -0.254679  -1.898818  1.759068
H    -2.435747  -1.233526  0.674982
H    -2.941953  -0.370115  2.150479
H    -4.444622  -1.614794  3.938999
H    -4.976498  -3.275176  3.496339
H    -5.191510  -1.910035  2.331317
O    2.153311  0.816739  1.502397
H    1.804738  0.832372  0.575500
Hg    3.512821  0.922082  4.677408
