21
Energy: -575225.9617206  eV PBE+vdW (tier 2 basis)
N    0.234642  0.013839  0.077023
C    0.059484  -0.275596  1.563109
C    1.516234  -0.280249  2.141456
O    1.592667  -0.575258  3.378217
H    -0.357247  0.781747  -0.263662
H    0.064191  -0.813631  -0.510092
H    -0.439605  0.599880  2.003223
C    -0.718155  -1.562476  1.854280
C    -2.219471  -1.476749  1.534754
S    -3.035033  -3.025146  2.030902
C    -4.750273  -2.710865  1.639654
H    -0.582232  -1.763117  2.926238
H    -0.250718  -2.407746  1.323506
H    -2.430466  -1.327772  0.462419
H    -2.703467  -0.653750  2.085584
H    -5.126286  -1.852706  2.217176
H    -5.298227  -3.618379  1.919536
H    -4.874153  -2.515777  0.563688
O    2.436721  0.028687  1.368388
H    1.249221  0.274543  -0.021265
Hg    3.843637  -0.327234  3.720926
