21
Energy: -575225.5795196  eV PBE+vdW (tier 2 basis)
N    0.474409  -0.026124  0.127884
C    0.159818  -0.131770  1.542278
C    1.439749  -0.372638  2.428671
O    2.546432  -0.603865  1.966041
H    0.069100  0.790952  -0.332717
H    0.272866  -0.869362  -0.413561
H    -0.226172  0.848119  1.867620
C    -0.873216  -1.260614  1.850380
C    -2.274173  -0.930622  1.278758
S    -3.536885  -2.007108  1.977658
C    -3.329558  -3.572068  1.135423
H    -0.942184  -1.402543  2.938854
H    -0.503369  -2.214183  1.443556
H    -2.298569  -0.996702  0.179695
H    -2.592124  0.079966  1.572260
H    -3.408419  -3.435550  0.047144
H    -4.143051  -4.214680  1.494430
H    -2.367312  -4.041707  1.389083
O    1.294046  -0.320253  3.735491
H    0.403891  -0.057015  4.040146
Hg    2.968969  0.087957  -0.342471
