21
Energy: -575225.9866758  eV PBE+vdW (tier 2 basis)
N    -0.485939  -0.225703  -0.132294
C    -0.243360  0.090745  1.334942
C    1.294953  0.325156  1.508414
O    1.960072  0.504790  0.466318
H    -1.414709  0.089907  -0.443782
H    -0.428364  -1.257866  -0.287791
H    -0.671149  1.089063  1.515861
C    -0.882868  -0.919305  2.278790
C    -0.247549  -2.329057  2.365778
S    -0.315427  -3.319145  0.847203
C    -1.836746  -4.260768  1.017044
H    -1.953858  -1.004903  2.041387
H    -0.820983  -0.482344  3.287190
H    -0.738770  -2.892610  3.168999
H    0.820128  -2.251475  2.621202
H    -1.734641  -4.959235  1.860451
H    -1.966013  -4.823042  0.085137
H    -2.697408  -3.598871  1.187049
O    1.707765  0.368501  2.703323
H    0.251093  0.234534  -0.698939
Hg    3.875441  1.010975  2.101434
