21
Energy: -575226.0559660  eV PBE+vdW (tier 2 basis)
N    -0.546078  1.927970  1.377066
C    -0.432162  1.169751  2.674303
C    0.986777  1.502516  3.282299
O    1.065512  1.273058  4.530503
H    -0.871882  2.896118  1.507378
H    -1.208428  1.428097  0.719274
H    -1.203476  1.545717  3.357737
C    -0.568295  -0.342244  2.450393
C    -1.942869  -0.779188  1.909526
S    -2.121140  -0.498641  0.120343
C    -3.898453  -0.576529  -0.139977
H    -0.425371  -0.822264  3.428268
H    0.240766  -0.711522  1.800772
H    -2.784019  -0.304149  2.438127
H    -2.036313  -1.866071  2.072426
H    -4.257222  -1.581536  0.123531
H    -4.059776  -0.396190  -1.209149
H    -4.422758  0.179972  0.458850
O    1.861496  1.917394  2.514973
H    0.390279  1.975322  0.933748
Hg    3.252722  1.831189  4.841911
