21
Energy: -575225.8937447  eV PBE+vdW (tier 2 basis)
N    -1.267897  -1.372279  0.358718
C    -0.449914  -0.627680  1.223203
C    0.836561  -0.128401  0.506543
O    1.910688  -0.151934  1.064355
H    -1.266150  -1.159828  -0.637649
H    -2.088846  -1.858493  0.712878
H    -0.940299  0.337888  1.520018
C    -0.190893  -1.281759  2.612131
C    0.707179  -2.547943  2.484903
S    0.972141  -3.253180  4.117240
C    2.308347  -2.260733  4.816891
H    -1.159168  -1.532781  3.064867
H    0.290602  -0.525898  3.242789
H    1.671906  -2.292758  2.028505
H    0.194071  -3.322223  1.896198
H    2.619938  -2.750441  5.747281
H    3.143904  -2.150366  4.116772
H    1.881028  -1.277729  5.063893
O    0.568554  0.313025  -0.714949
H    1.381512  0.653672  -1.147898
Hg    2.199302  -5.637067  3.831083
