21
Energy: -575225.8992908  eV PBE+vdW (tier 2 basis)
N    0.074261  0.977362  0.391799
C    0.214073  0.165091  1.538402
C    1.196728  -1.084424  1.310500
O    1.706607  -1.629984  2.250387
H    0.759619  1.714392  0.228662
H    -0.290869  0.563788  -0.466472
H    0.696950  0.741572  2.338638
C    -1.138632  -0.403025  2.014358
C    -2.045946  0.801481  2.340473
S    -3.691699  0.497855  2.973183
C    -4.494521  -0.567441  1.760246
H    -0.983409  -1.038818  2.895730
H    -1.583311  -1.020698  1.221161
H    -2.185965  1.405004  1.415874
H    -1.594474  1.470187  3.088609
H    -3.957826  -1.507115  1.594648
H    -4.561515  0.010773  0.825996
H    -5.505047  -0.760985  2.140120
O    1.308404  -1.377449  0.021108
H    1.914208  -2.142831  -0.101152
Hg    -3.523872  -1.107388  5.184322
