21
Energy: -575225.6501897  eV PBE+vdW (tier 2 basis)
N    -0.060335  -0.741402  0.009429
C    -0.447337  -0.077834  1.198476
C    0.745803  0.787030  1.813889
O    1.337422  0.304107  2.774229
H    0.007797  -0.235609  -0.869133
H    0.479471  -1.601986  0.055800
H    -1.245171  0.646550  0.954070
C    -0.930598  -1.060999  2.281665
C    -1.446516  -0.383230  3.564249
S    -0.586958  -0.576410  5.186999
C    -0.062783  -2.298615  5.262644
H    -0.122817  -1.773768  2.493967
H    -1.752037  -1.646985  1.848067
H    -2.448226  -0.757356  3.839272
H    -1.556858  0.707879  3.477831
H    0.422789  -2.434985  6.236675
H    0.609954  -2.577416  4.445501
H    -0.984467  -2.900347  5.231376
O    1.054297  1.965539  1.332337
H    0.510464  2.243568  0.567589
Hg    1.641196  0.800599  5.156832
