21
Energy: -575225.3316882  eV PBE+vdW (tier 2 basis)
N    0.169630  1.085079  0.750627
C    0.141545  0.006891  1.774422
C    1.527215  -0.642593  1.988718
O    2.631871  0.048014  1.886504
H    0.167365  0.737517  -0.213786
H    -0.613164  1.738408  0.853839
H    -0.074315  0.512977  2.730045
C    -1.002518  -1.031479  1.568706
C    -0.780970  -2.175382  0.554266
S    -0.573021  -3.779600  1.429207
C    -0.000286  -4.935894  0.160754
H    -1.903132  -0.475000  1.277763
H    -1.241532  -1.439400  2.561294
H    0.086259  -2.040754  -0.104579
H    -1.668819  -2.326909  -0.071844
H    -0.850780  -5.127344  -0.503861
H    0.260564  -5.858983  0.694221
H    0.861827  -4.536238  -0.381532
O    1.623008  -1.820401  2.328315
H    0.619118  -3.443126  2.018971
Hg    2.355490  2.065983  1.144075
