21
Energy: -575225.5648752  eV PBE+vdW (tier 2 basis)
N    -0.143141  1.061028  1.182230
C    0.230512  -0.081320  2.015974
C    1.737075  -0.499676  1.868544
O    2.451585  -0.177604  0.929227
H    -0.246945  1.943603  1.688980
H    -0.948538  0.913699  0.572697
H    0.129932  0.236993  3.068600
C    -0.646281  -1.329411  1.739097
C    -2.171611  -1.098498  1.789682
S    -2.632193  0.344269  2.782383
C    -4.405989  0.443426  2.545740
H    -0.373336  -2.096275  2.475325
H    -0.391888  -1.755968  0.756912
H    -2.652706  -1.983589  2.236523
H    -2.618663  -0.980368  0.791236
H    -4.659493  0.502520  1.478105
H    -4.740504  1.344874  3.072038
H    -4.879504  -0.445402  2.990538
O    2.233739  -1.278680  2.803395
H    1.635952  -1.454083  3.556553
Hg    1.628071  1.579271  -0.511801
