21
Energy: -575225.9186676  eV PBE+vdW (tier 2 basis)
N    -0.497449  0.099649  0.563293
C    0.014399  -0.101325  1.865307
C    1.599072  -0.351337  1.895330
O    2.135605  -0.785315  2.879697
H    -0.330449  0.992364  0.099756
H    -0.540193  -0.690948  -0.080234
H    -0.079682  0.841069  2.432838
C    -0.712641  -1.243236  2.587431
C    -2.201841  -0.875819  2.680499
S    -3.202767  -2.236769  3.296804
C    -4.773597  -1.449463  3.708514
H    -0.265335  -1.385363  3.578606
H    -0.581076  -2.182759  2.028406
H    -2.589028  -0.672888  1.655494
H    -2.388678  0.026649  3.280559
H    -5.221305  -1.133231  2.753784
H    -4.641784  -0.586840  4.371144
H    -5.406322  -2.216513  4.170694
O    2.156253  0.015779  0.750290
H    3.133164  -0.091667  0.798033
Hg    -2.343595  -2.912339  5.791316
