21
Energy: -575226.3840186  eV PBE+vdW (tier 2 basis)
N    0.405909  -0.132701  -0.119363
C    0.191761  0.128769  1.362557
C    1.576547  0.185205  2.023973
O    2.490154  -0.467265  1.452955
H    1.287230  -0.676231  -0.216972
H    0.541106  0.750370  -0.634720
H    -0.350621  1.074491  1.462957
C    -0.583482  -1.001052  2.080123
C    0.128287  -2.351010  2.359814
S    1.132884  -2.709002  3.881415
C    0.101836  -2.117499  5.246044
H    -1.482361  -1.244510  1.491790
H    -0.968169  -0.565098  3.011065
H    0.789476  -2.686748  1.549503
H    -0.647620  -3.124892  2.472125
H    -0.837003  -2.687744  5.202691
H    -0.084818  -1.040200  5.194295
H    0.637197  -2.374235  6.168409
O    1.587300  0.656742  3.196171
H    -0.376113  -0.632584  -0.565652
Hg    3.099499  -1.029807  3.820817
