21
Energy: -575225.6900785  eV PBE+vdW (tier 2 basis)
N    -0.407677  1.075774  0.304025
C    0.159457  0.297578  1.399253
C    1.726563  0.109205  1.297254
O    2.391478  0.421398  0.323419
H    -0.918146  0.539740  -0.399708
H    -0.932326  1.908702  0.578212
H    0.013676  0.880692  2.322803
C    -0.508549  -1.093704  1.511992
C    -1.949578  -1.006424  2.061842
S    -3.114260  -0.072460  1.046486
C    -3.602525  -1.241438  -0.230139
H    0.067355  -1.748876  2.181369
H    -0.490928  -1.593118  0.530688
H    -1.970116  -0.521058  3.047384
H    -2.347525  -2.026079  2.181357
H    -2.746233  -1.748747  -0.692805
H    -4.172058  -0.677758  -0.978398
H    -4.262474  -1.992288  0.233039
O    2.327221  -0.425478  2.337490
H    1.751211  -0.595090  3.108681
Hg    1.386841  2.034892  -1.211121
