21
Energy: -575225.8949009  eV PBE+vdW (tier 2 basis)
N    -0.817397  0.485831  0.491158
C    -1.204290  -0.254367  1.764214
C    0.068569  -0.300725  2.665984
O    -0.030243  -1.034224  3.698323
H    -1.605109  1.025211  0.105499
H    -0.029469  1.124307  0.710707
H    -1.895560  0.410734  2.304406
C    -1.910288  -1.591285  1.513534
C    -1.107013  -2.731257  0.872298
S    -0.863307  -2.474693  -0.911869
C    0.158472  -3.861124  -1.408320
H    -2.828701  -1.397717  0.936802
H    -2.252456  -1.938257  2.498899
H    -1.664506  -3.673884  0.991341
H    -0.125755  -2.883045  1.349434
H    1.115429  -3.853756  -0.868004
H    0.328575  -3.752002  -2.485596
H    -0.378491  -4.799883  -1.207763
O    1.033608  0.419465  2.341297
H    -0.492947  -0.175586  -0.242615
Hg    1.991011  -0.399524  4.623851
