21
Energy: -575225.6115638  eV PBE+vdW (tier 2 basis)
N    0.347047  0.173893  0.248141
C    0.035416  0.028434  1.663120
C    1.305085  0.134004  2.586065
O    2.454513  0.107340  2.171655
H    -0.118514  0.959212  -0.210323
H    0.224019  -0.677836  -0.302619
H    -0.595490  0.884891  1.954958
C    -0.683401  -1.318263  1.961610
C    -2.108761  -1.340708  1.373847
S    -2.854118  -2.951516  1.707577
C    -4.583170  -2.583471  1.976984
H    -0.726775  -1.492193  3.045810
H    -0.077403  -2.141228  1.550097
H    -2.090009  -1.194058  0.277393
H    -2.748276  -0.554649  1.800588
H    -4.708500  -1.957006  2.873652
H    -5.079219  -3.549765  2.128652
H    -5.007327  -2.069514  1.101601
O    1.101833  0.242660  3.881749
H    0.163781  0.322017  4.142978
Hg    2.818574  0.549436  -0.192770
