21
Energy: -575225.9953013  eV PBE+vdW (tier 2 basis)
N    0.495028  -0.444764  -0.247381
C    0.059109  -0.137076  1.181186
C    1.372861  0.331894  1.927284
O    2.401765  0.407463  1.230555
H    -0.081951  0.020948  -0.959825
H    0.502229  -1.454639  -0.446084
H    -0.583093  0.754250  1.133493
C    -0.649610  -1.304173  1.860169
C    -2.087666  -1.556555  1.312688
S    -2.886763  -2.952903  2.138738
C    -3.592310  -2.231150  3.616249
H    -0.701217  -1.060060  2.929146
H    -0.042995  -2.218350  1.775510
H    -2.079583  -1.838407  0.250169
H    -2.716786  -0.663503  1.431042
H    -4.323293  -1.453425  3.350681
H    -2.811689  -1.803306  4.263282
H    -4.090652  -3.051486  4.146663
O    1.228039  0.625188  3.146221
H    1.483450  -0.100353  -0.312744
Hg    3.447831  1.260072  3.551834
