21
Energy: -575225.9824980  eV PBE+vdW (tier 2 basis)
N    0.111134  1.189349  1.657361
C    -0.221571  0.064462  2.631543
C    1.057261  -0.078510  3.552837
O    0.987720  -0.998999  4.417831
H    0.304879  0.844000  0.707912
H    -0.621923  1.907973  1.597649
H    -1.011732  0.444154  3.295675
C    -0.641781  -1.235937  1.958707
C    -2.028672  -1.153599  1.250948
S    -2.676277  -2.800460  0.879400
C    -1.946636  -3.212953  -0.701308
H    -0.682621  -1.990965  2.756267
H    0.130966  -1.572045  1.250531
H    -2.004795  -0.561639  0.325604
H    -2.776682  -0.716368  1.927691
H    -2.338632  -4.201452  -0.969635
H    -0.849781  -3.269609  -0.628521
H    -2.234127  -2.474258  -1.463549
O    1.965015  0.747388  3.366349
H    0.996433  1.614143  2.027665
Hg    3.026958  -0.659668  5.474011
