21
Energy: -575226.3727614  eV PBE+vdW (tier 2 basis)
N    -0.145432  -0.518075  0.047749
C    -0.584476  -0.008489  1.405999
C    0.536479  0.881631  1.961173
O    0.157446  1.836890  2.700495
H    -0.264581  0.203559  -0.680243
H    -0.669573  -1.352383  -0.256470
H    -1.523461  0.540622  1.277912
C    -0.721980  -1.193722  2.394075
C    -0.889583  -0.826853  3.890122
S    0.526719  -0.639487  5.078000
C    1.544898  -2.110909  4.815106
H    0.131082  -1.875576  2.262481
H    -1.626434  -1.761612  2.129357
H    -1.435897  -1.644202  4.386247
H    -1.473333  0.090606  4.044396
H    2.352009  -2.061310  5.556231
H    1.956024  -2.163088  3.802445
H    0.907515  -2.979657  5.032636
O    1.700547  0.423814  1.832860
H    0.865498  -0.746477  0.096414
Hg    1.894497  1.357756  4.180916
