21
Energy: -575225.8731949  eV PBE+vdW (tier 2 basis)
N    1.573881  -0.587157  0.283928
C    0.668821  -0.427597  1.411919
C    1.245011  -1.067441  2.693625
O    2.430898  -1.336338  2.855551
H    1.470338  0.145425  -0.422915
H    1.537300  -1.505830  -0.166473
H    0.633801  0.651024  1.642324
C    -0.828629  -0.829607  1.105793
C    -1.095952  -2.328987  0.908486
S    -2.881703  -2.586804  1.081021
C    -3.540626  -2.345742  -0.562233
H    -1.145077  -0.261611  0.219838
H    -1.415720  -0.438436  1.951024
H    -0.655073  -2.938754  1.709756
H    -0.760960  -2.715569  -0.063854
H    -4.626436  -2.475476  -0.478666
H    -3.121022  -3.098001  -1.248192
H    -3.319677  -1.336517  -0.940269
O    0.324452  -1.227511  3.625968
H    0.733458  -1.543523  4.462538
Hg    3.956785  -0.562308  1.030417
