21
Energy: -575226.4943568  eV PBE+vdW (tier 2 basis)
N    1.041727  -0.177244  -0.226101
C    0.604580  0.069068  1.178563
C    1.839864  -0.058742  2.096438
O    2.742331  -0.859792  1.844514
H    0.242316  -0.198408  -0.866977
H    1.680519  0.553322  -0.562196
H    0.212321  1.096788  1.247070
C    -0.530773  -0.915925  1.616565
C    -0.195057  -2.273888  2.260305
S    0.453968  -3.720999  1.281797
C    -0.898437  -4.148162  0.152285
H    -1.224933  -1.037695  0.771403
H    -1.123582  -0.390332  2.381347
H    -1.110393  -2.689951  2.708889
H    0.539993  -2.191591  3.074198
H    -0.518396  -4.941884  -0.502356
H    -1.260200  -3.297547  -0.432261
H    -1.697241  -4.556025  0.788377
O    1.902050  0.645270  3.201979
H    1.199418  1.319604  3.296537
Hg    2.032150  -2.284418  0.029695
