21
Energy: -575226.3795992  eV PBE+vdW (tier 2 basis)
N    -0.664468  0.972592  0.135379
C    -0.056821  0.523422  1.453888
C    1.307558  -0.100543  1.133577
O    1.430120  -0.629449  0.001503
H    -0.357382  1.926547  -0.108095
H    -1.694236  0.971430  0.136732
H    0.025234  1.400266  2.104499
C    -0.884410  -0.581432  2.166224
C    -0.835786  -2.023071  1.601532
S    0.398893  -3.178502  2.386415
C    -0.018307  -4.742295  1.573388
H    -1.941317  -0.272995  2.186926
H    -0.568069  -0.570520  3.218648
H    -0.714323  -2.086831  0.513206
H    -1.776316  -2.530355  1.864354
H    0.713758  -5.480310  1.922399
H    -0.004053  -4.657017  0.482053
H    -1.017999  -5.024136  1.933023
O    2.067395  -0.245368  2.139587
H    -0.300637  0.339052  -0.605232
Hg    2.660167  -2.370484  1.443992
