21
Energy: -575225.6839819  eV PBE+vdW (tier 2 basis)
N    -0.270461  0.132946  -0.169603
C    -0.064748  -0.047478  1.219634
C    1.496825  0.136119  1.546553
O    1.944025  -0.112951  2.660719
H    -0.270645  -0.688211  -0.773474
H    -0.911222  0.862251  -0.475147
H    -0.520912  0.800112  1.755958
C    -0.590045  -1.399806  1.789038
C    -0.883078  -1.360964  3.323188
S    -1.886705  -2.810541  3.702809
C    -0.775390  -3.940599  4.517075
H    0.105524  -2.219063  1.562249
H    -1.525092  -1.607703  1.250306
H    -1.510206  -0.492789  3.570784
H    0.018496  -1.342569  3.942730
H    -1.352763  -4.845717  4.740174
H    -0.385173  -3.488888  5.442380
H    0.067830  -4.194792  3.853783
O    2.228586  0.611003  0.579312
H    1.647972  0.732918  -0.218439
Hg    4.405232  0.388600  3.149854
