21
Energy: -575225.7676995  eV PBE+vdW (tier 2 basis)
N    0.226756  -0.478333  0.190128
C    -0.204480  -0.205587  1.545926
C    0.982160  -0.302795  2.569964
O    0.784145  -0.276799  3.768528
H    0.887657  0.209891  -0.180607
H    0.601216  -1.420458  0.043764
H    -0.504556  0.854355  1.597809
C    -1.385522  -1.105441  1.980605
C    -1.895486  -0.798526  3.388315
S    -2.641098  -2.173549  4.224281
C    -3.483361  -1.427508  5.611937
H    -1.097293  -2.164271  1.887601
H    -2.198170  -0.929278  1.253766
H    -2.528708  0.099132  3.452981
H    -0.974485  -0.557037  4.013306
H    -4.252495  -0.722707  5.263765
H    -2.760265  -0.902918  6.256379
H    -3.941063  -2.254492  6.167983
O    2.162151  -0.369099  1.981980
H    2.888389  -0.382135  2.646872
Hg    -1.636939  -0.476744  -1.678425
