21
Energy: -575226.8552690  eV PBE+vdW (tier 2 basis)
N    0.599294  -0.610751  0.218705
C    -0.278699  -0.249125  1.372284
C    0.711956  0.213808  2.465828
O    1.911650  0.201657  2.250208
H    1.546920  -0.221017  0.446939
H    0.256008  -0.292676  -0.695847
H    -0.925622  0.594789  1.087405
C    -1.112853  -1.486323  1.724073
C    -0.198598  -2.711824  1.675412
S    0.742582  -2.601764  0.093799
C    2.495392  -2.697566  0.577525
H    -1.949619  -1.590473  1.019901
H    -1.549780  -1.396033  2.728243
H    -0.765441  -3.648589  1.635746
H    0.533303  -2.762133  2.491952
H    3.082129  -2.621848  -0.346613
H    2.657578  -3.671145  1.052075
H    2.723649  -1.889774  1.284462
O    0.086578  0.590078  3.561932
H    0.722399  0.926207  4.231968
Hg    0.634722  -5.436198  -0.615938
