21
Energy: -575225.4391318  eV PBE+vdW (tier 2 basis)
N    -0.017909  -0.110839  -0.053410
C    -0.010961  -0.072041  1.356301
C    1.383082  -0.332394  2.024958
O    2.356552  -0.822814  1.555031
H    0.168720  0.743503  -0.572430
H    0.288819  -0.959643  -0.526483
H    -0.273755  0.951342  1.666482
C    -1.021148  -1.113451  1.972521
C    -2.441722  -0.622329  2.206281
S    -2.560124  0.894374  3.252097
C    -4.147303  0.707230  4.090685
H    -0.621239  -1.512341  2.917740
H    -1.080554  -1.977340  1.294188
H    -3.047317  -1.410796  2.672484
H    -2.959076  -0.306600  1.284185
H    -4.216350  -0.236879  4.641165
H    -4.907609  0.745133  3.293225
H    -4.268095  1.575566  4.749278
O    1.344880  0.101694  3.367677
H    2.245951  -0.048864  3.738262
Hg    -0.668870  0.478020  4.974503
