21
Energy: -575226.0908479  eV PBE+vdW (tier 2 basis)
N    -0.261301  0.591535  0.713429
C    -0.090747  -0.099708  1.911720
C    1.458321  -0.397262  2.211986
O    1.874188  -0.270193  3.328856
H    -0.481159  1.584930  0.724364
H    0.169138  0.245647  -0.142988
H    -0.438431  0.506597  2.755960
C    -0.758835  -1.532742  1.973181
C    -2.296769  -1.369411  1.949760
S    -3.010582  -2.992904  2.277652
C    -2.862128  -3.892003  0.716804
H    -0.424902  -2.007634  2.905962
H    -0.407047  -2.133559  1.124509
H    -2.651906  -0.961300  0.993939
H    -2.641734  -0.732531  2.775785
H    -1.803483  -4.148615  0.575063
H    -3.241984  -3.305951  -0.126927
H    -3.427865  -4.823798  0.838820
O    2.097908  -0.760769  1.108938
H    3.049216  -0.917434  1.301808
Hg    -5.725452  -2.766998  2.505313
