21
Energy: -575225.9164067  eV PBE+vdW (tier 2 basis)
N    1.117109  -0.777964  -0.272117
C    0.328406  -0.207084  0.901354
C    1.405991  0.463335  1.830354
O    2.584901  0.441001  1.433463
H    0.774495  -0.460556  -1.188024
H    1.135107  -1.807091  -0.272787
H    -0.284302  0.616264  0.507185
C    -0.524014  -1.250586  1.614322
C    -1.749259  -1.787266  0.822132
S    -3.158339  -0.659786  0.673069
C    -3.989627  -0.818894  2.250626
H    -0.852476  -0.808900  2.564151
H    0.101074  -2.115571  1.891417
H    -2.103082  -2.702704  1.317928
H    -1.494973  -2.063373  -0.211431
H    -4.842671  -0.130973  2.218573
H    -3.326749  -0.546684  3.085060
H    -4.346679  -1.851212  2.384291
O    0.948184  0.995884  2.885853
H    2.100191  -0.437852  -0.130291
Hg    2.951029  1.808434  3.724909
