21
Energy: -575225.8446763  eV PBE+vdW (tier 2 basis)
N    0.011329  0.407620  -0.238985
C    -0.181029  0.225497  1.145613
C    1.247046  0.345691  1.924117
O    1.297603  0.194131  3.135523
H    0.103009  -0.404891  -0.844789
H    -0.368227  1.234076  -0.693665
H    -0.721568  1.091876  1.559765
C    -0.849292  -1.091317  1.579513
C    -2.340882  -1.118747  1.131766
S    -3.208990  -2.436487  1.987430
C    -2.860686  -3.905329  1.035091
H    -0.766819  -1.164370  2.674275
H    -0.317522  -1.955590  1.154778
H    -2.444881  -1.233982  0.044105
H    -2.856804  -0.200147  1.444358
H    -3.392561  -4.728211  1.527439
H    -1.781305  -4.124773  1.024986
H    -3.218487  -3.779719  0.001750
O    2.271487  0.662796  1.187606
H    1.969229  0.760355  0.247729
Hg    3.436366  0.494115  4.443812
