21
Energy: -575226.1110568  eV PBE+vdW (tier 2 basis)
N    0.290958  -0.001274  -0.173325
C    0.076574  -0.028123  1.202904
C    1.406835  0.345736  2.020083
O    1.326063  1.078835  2.965192
H    1.070405  -0.517179  -0.579799
H    -0.059077  0.776049  -0.728794
H    -0.664415  0.727151  1.488959
C    -0.334592  -1.436850  1.800357
C    -1.749291  -1.796609  1.289576
S    -2.141607  -3.408233  2.000231
C    -2.978863  -3.013834  3.553001
H    -0.308948  -1.349493  2.894487
H    0.400717  -2.190588  1.490190
H    -1.738290  -1.911419  0.195810
H    -2.512126  -1.062474  1.576184
H    -3.834663  -2.348815  3.393644
H    -2.239945  -2.543284  4.216640
H    -3.291430  -3.967718  3.994654
O    2.471031  -0.243036  1.494218
H    3.282378  0.010005  1.988529
Hg    -4.189251  -4.605488  0.643292
