21
Energy: -575225.9343376  eV PBE+vdW (tier 2 basis)
N    -0.178713  -2.329022  0.475189
C    0.038253  -1.059996  1.291756
C    1.573475  -1.038303  1.598434
O    2.268230  -1.943661  1.110050
H    -0.702756  -3.048308  0.991775
H    0.789780  -2.697713  0.296393
H    -0.154576  -0.208750  0.622699
C    -0.828973  -0.995371  2.553943
C    -2.336527  -0.785207  2.342375
S    -2.708311  0.888644  1.737797
C    -4.496658  0.927677  1.765977
H    -0.426429  -0.182082  3.173666
H    -0.685652  -1.914379  3.145643
H    -2.854808  -0.911274  3.305923
H    -2.792743  -1.513029  1.650377
H    -4.859154  0.797146  2.797256
H    -4.915126  0.136912  1.126080
H    -4.790657  1.914157  1.389373
O    1.955230  -0.055317  2.313681
H    -0.653473  -2.162491  -0.420872
Hg    4.205588  -0.454635  2.371484
