21
Energy: -575226.4251947  eV PBE+vdW (tier 2 basis)
N    1.093764  -0.413590  0.845132
C    0.052141  0.136708  1.736406
C    0.685167  1.250716  2.605649
O    1.853944  1.198751  3.005385
H    1.390776  0.270873  0.141186
H    0.771989  -1.241343  0.336147
H    -0.738873  0.605960  1.128673
C    -0.622552  -0.937987  2.672255
C    -0.007842  -2.335830  2.855700
S    1.565010  -2.638902  3.794374
C    1.283782  -1.905380  5.428875
H    -1.622022  -1.138818  2.257623
H    -0.813829  -0.483959  3.654381
H    0.172866  -2.865177  1.909251
H    -0.734199  -2.954221  3.406967
H    2.219074  -2.036223  5.987010
H    0.494339  -2.509376  5.898746
H    1.002184  -0.849092  5.385448
O    -0.054369  2.263137  2.984538
H    -0.942521  2.293762  2.574121
Hg    2.778606  -0.903861  2.500744
