21
Energy: -575226.0422059  eV PBE+vdW (tier 2 basis)
N    0.092988  -0.145247  0.300225
C    -0.373291  -0.478014  1.707757
C    0.576082  0.362346  2.635447
O    1.096812  1.352857  2.111267
H    0.572697  0.784116  0.390863
H    -0.685594  -0.081038  -0.369487
H    -1.338055  0.040225  1.822536
C    -0.590989  -1.966381  1.945700
C    0.634273  -2.817257  2.355133
S    1.111820  -2.627819  4.086873
C    -0.163094  -3.520200  4.969550
H    -1.015978  -2.406597  1.029991
H    -1.380745  -2.071597  2.700135
H    1.540676  -2.577096  1.780619
H    0.413341  -3.880754  2.186994
H    -1.170796  -3.155031  4.729681
H    0.041427  -3.382619  6.037569
H    -0.088574  -4.589486  4.712868
O    0.664868  0.000863  3.873882
H    0.775535  -0.820844  -0.070259
Hg    1.712318  1.896804  4.792557
