21
Energy: -575226.7568422  eV PBE+vdW (tier 2 basis)
N    -0.245221  0.011452  0.417138
C    0.012124  -0.190815  1.859575
C    0.944836  -1.406585  2.032301
O    0.988679  -2.363987  1.253661
H    -0.959629  0.724759  0.247625
H    0.599786  0.311122  -0.081293
H    0.577197  0.664826  2.262792
C    -1.288570  -0.341859  2.719166
C    -2.599381  -0.840868  2.087627
S    -2.646803  -2.616466  1.555375
C    -4.319174  -2.781601  0.880394
H    -1.536776  0.659561  3.102229
H    -1.046163  -0.933912  3.612104
H    -2.942049  -0.226877  1.244411
H    -3.386025  -0.789689  2.856742
H    -4.377566  -3.780862  0.432574
H    -4.549243  -2.000926  0.148882
H    -4.999140  -2.728800  1.743144
O    1.676665  -1.304433  3.114474
H    2.254279  -2.091453  3.238742
Hg    -0.917824  -2.209591  -0.208664
