21
Energy: -575226.8613002  eV PBE+vdW (tier 2 basis)
N    -0.193069  -1.134343  -0.200211
C    0.009478  -0.271843  0.994369
C    1.394768  -0.577951  1.583966
O    1.911634  -1.700497  1.554734
H    0.422272  -0.863360  -0.975766
H    -1.156452  -1.075382  -0.544911
H    0.014678  0.785425  0.686693
C    -1.114811  -0.447368  2.059841
C    -1.065162  -1.606346  3.072378
S    -1.556970  -3.284490  2.436893
C    -1.176666  -4.366703  3.838335
H    -2.087079  -0.418407  1.544700
H    -1.095529  0.464573  2.676073
H    -1.818646  -1.421244  3.853692
H    -0.092427  -1.705344  3.571625
H    -1.899409  -4.105197  4.625119
H    -0.147857  -4.240836  4.189246
H    -1.363596  -5.392885  3.499936
O    1.939569  0.471868  2.148625
H    2.817950  0.260982  2.539331
Hg    0.244179  -3.265207  0.719564
