27
Energy: -35051.41787 eV PBE+vdW (tier 2 basis)
N    -2.000596  -1.129962  -0.248360
C    -1.294632  -0.499214  0.837673
C    0.242483  -0.466715  0.775042
O    0.945012  0.269475  1.473391
H    -1.888107  -0.638500  -1.132888
H    -1.735088  -2.104062  -0.388391
H    -1.581559  0.565558  0.833384
C    -1.793050  -1.138586  2.167225
C    -1.227800  -0.587604  3.488302
C    -1.401195  0.921404  3.625659
N    -0.747623  1.466867  4.861897
C    0.700970  1.392583  4.978703
N    1.060113  1.386169  6.254817
N    1.457767  1.323388  3.904010
H    -1.592077  -2.219051  2.130084
H    -2.885962  -1.031618  2.144339
H    -0.164766  -0.857832  3.577165
H    -1.757485  -1.098083  4.314062
H    -2.463186  1.189985  3.702247
H    -1.003290  1.450173  2.748596
H    -0.983756  2.466743  4.920219
H    2.064320  1.434734  6.438249
H    2.465229  1.222969  4.010835
H    1.094413  1.124214  2.942339
O    0.759028  -1.301632  -0.119107
H    1.734517  -1.209296  -0.122290
Ca    -0.809372  0.676172  7.155963
