27
Energy: -35052.1000089 eV PBE+vdW (tier 2 basis)
N    -0.863335  0.388556  -0.109690
C    -0.781118  0.354099  1.357656
C    0.559929  -0.315040  1.687873
O    0.847573  -0.733414  2.819361
H    -1.423425  -0.374953  -0.490149
H    -1.246994  1.263122  -0.466789
H    -1.577537  -0.242922  1.826207
C    -0.831952  1.798312  1.929133
C    -0.380672  1.970262  3.391967
C    1.123627  2.295479  3.522390
N    1.667758  1.901995  4.834789
C    2.431791  0.851421  5.116193
N    2.755596  0.395816  6.317691
N    3.007692  0.044640  4.067570
H    -1.872643  2.134282  1.833328
H    -0.235724  2.453113  1.272492
H    -0.607254  1.059981  3.962673
H    -0.958084  2.783460  3.850452
H    1.302514  3.372083  3.402479
H    1.714479  1.794842  2.748227
H    1.309008  2.424194  5.634027
H    2.346815  0.882295  7.117116
H    2.208928  -0.385606  3.464636
H    3.561817  0.615983  3.420326
O    1.398285  -0.339645  0.681385
H    0.793616  0.005596  -0.087326
Ca    3.973721  -1.337765  5.730148
