27
Energy: -35051.124701 eV PBE+vdW (tier 2 basis)
N    0.207397  1.056525  0.422839
C    -0.083357  0.384278  1.677488
C    1.173355  -0.291715  2.275399
O    1.319863  -1.490750  2.413592
H    0.595278  0.439654  -0.290547
H    0.808665  1.871248  0.531033
H    -0.399835  1.158838  2.394804
C    -1.213932  -0.631814  1.468327
C    -1.746821  -1.251043  2.766370
C    -2.762879  -2.349630  2.467758
N    -3.216004  -2.993528  3.722547
C    -4.013887  -4.044787  3.788937
N    -4.579053  -4.712211  2.803738
N    -4.362199  -4.611156  5.089829
H    -0.843223  -1.432082  0.808464
H    -2.018615  -0.110399  0.931402
H    -2.216978  -0.473336  3.389931
H    -0.908967  -1.687855  3.329963
H    -2.305101  -3.125236  1.833390
H    -3.645433  -1.946779  1.945852
H    -2.861898  -2.594766  4.590593
H    -4.382522  -4.363736  1.863704
H    -4.855468  -3.923656  5.671789
H    -3.521687  -4.877227  5.616243
O    2.104428  0.626690  2.594526
H    2.900521  0.157640  2.916609
Ca    -5.671403  -6.321028  3.876022
