27
Energy: -35052.4732932 eV PBE+vdW (tier 2 basis)
N    1.114475  -0.239398  0.130552
C    0.465226  0.186715  1.353498
C    1.555071  0.744977  2.269793
O    2.715009  0.918420  1.862913
H    0.443290  -0.705849  -0.480261
H    -3.083062  -2.125055  -0.365071
H    0.019628  -0.662943  1.919824
C    -0.636327  1.278776  1.161125
C    -1.913364  0.821309  0.438483
C    -2.871238  -0.002091  1.316212
N    -4.229450  -0.090076  0.763622
C    -4.809412  -1.149234  0.183155
N    -4.081982  -2.196832  -0.230220
N    -6.139266  -1.167748  0.018016
H    -0.180546  2.092300  0.579643
H    -0.925439  1.716985  2.132415
H    -1.666624  0.275504  -0.486066
H    -2.446326  1.725939  0.110680
H    -2.969457  0.470469  2.304622
H    -2.509630  -1.022564  1.501599
H    -4.808278  0.739315  0.858634
H    -4.524559  -3.073589  -0.478499
H    -6.745861  -0.534788  0.526048
H    -6.582986  -1.819824  -0.618290
O    1.298747  1.063907  3.524997
H    0.374024  0.874873  3.771649
Ca    3.188842  0.132715  -0.154519
