27
Energy: -35050.6801189 eV PBE+vdW (tier 2 basis)
N    1.849925  -0.979399  1.942465
C    0.541947  -0.805450  2.676707
C    0.851102  -0.164425  4.028953
O    1.991092  0.303121  4.266011
H    2.111493  -1.971793  2.017401
H    1.667779  -0.853441  0.940623
H    -0.035767  -0.040203  2.128118
C    -0.295610  -2.105936  2.718636
C    -1.703105  -1.979093  3.321996
C    -2.638408  -3.158330  2.921413
N    -3.934131  -3.075583  3.558423
C    -4.790177  -1.986090  3.326188
N    -5.240011  -1.358136  4.354671
N    -4.999638  -1.715255  1.981212
H    0.274694  -2.888301  3.245344
H    -0.392984  -2.435376  1.672116
H    -2.193876  -1.047352  2.992879
H    -1.673234  -1.991686  4.427422
H    -2.177593  -4.115307  3.202009
H    -2.751093  -3.161501  1.828656
H    -3.937308  -3.296808  4.552839
H    -5.955313  -0.662429  4.123041
H    -5.117932  -2.526656  1.378454
H    -5.686757  -0.991977  1.792568
O    -0.062419  -0.033282  4.940597
H    -0.912770  -0.470394  4.689667
Ca    3.650888  0.378145  2.933852
