27
Energy: -35053.0914716 eV PBE+vdW (tier 2 basis)
N    0.435349  -0.684631  -0.488434
C    0.532241  0.152656  0.748582
C    2.009435  0.278964  1.118948
O    2.878401  -0.432929  0.597420
H    -0.497173  -1.109262  -0.515806
H    0.443801  -0.054456  -1.298254
H    0.176806  1.175491  0.536050
C    -0.369133  -0.384545  1.898879
C    -0.287766  -1.883272  2.232516
C    0.823832  -2.320569  3.212481
N    1.140886  -3.742106  3.064326
C    1.770965  -4.226603  1.968333
N    2.535797  -3.433749  1.201329
N    1.586821  -5.511987  1.618383
H    -1.400276  -0.146689  1.601129
H    -0.192580  0.221372  2.800900
H    -0.192555  -2.473392  1.308188
H    -1.255922  -2.181065  2.656706
H    0.506447  -2.164379  4.249978
H    1.740172  -1.722595  3.098526
H    0.721551  -4.393397  3.721017
H    2.912767  -2.694508  1.806837
H    2.292102  -5.968237  1.051093
H    0.931347  -6.111663  2.107366
O    2.387925  1.161143  2.016953
H    1.661369  1.728419  2.343178
Ca    2.461473  -2.232664  -0.665095
