27
Energy: -35052.3300506 eV PBE+vdW (tier 2 basis)
N    -0.316946  -0.959049  -0.524326
C    -0.115700  -0.064059  0.630188
C    1.337022  0.376843  0.809770
O    1.614064  1.348984  1.602913
H    -1.722559  -1.949454  -0.214621
H    -0.332346  -0.434290  -1.401239
H    -0.687780  0.862719  0.467754
C    -0.613726  -0.736387  1.935995
C    -2.138112  -0.699868  2.185277
C    -3.082761  -1.047282  1.029576
N    -2.629164  -2.271797  0.282488
C    -3.582890  -2.950695  -0.654938
N    -3.643270  -4.196772  -0.445289
N    -4.111448  -2.118884  -1.593651
H    -0.143033  -0.246978  2.798458
H    -0.240841  -1.773371  1.938657
H    -2.427359  0.305639  2.522756
H    -2.347277  -1.368055  3.033455
H    -3.122800  -0.230273  0.296255
H    -4.098197  -1.221773  1.404615
H    -2.395571  -3.039446  0.929439
H    -4.263641  -4.717590  -1.070463
H    -4.814334  -2.504169  -2.216265
H    -4.190107  -1.121514  -1.432487
O    2.286264  -0.225499  0.186612
H    0.474106  -1.605634  -0.601954
Ca    3.715495  1.135926  1.128031
