27
Energy: -35051.7702917 eV PBE+vdW (tier 2 basis)
N    -0.165006  -0.897809  0.143794
C    -0.323453  -0.494191  1.613032
C    0.699666  0.102024  0.724307
O    0.730050  1.383256  0.334431
H    -0.860960  -0.419444  -0.436984
H    -0.962234  -2.945434  -0.442382
H    -1.162654  0.178195  1.803649
C    -0.052242  -1.546755  2.681054
C    -0.424405  -2.981408  2.284497
C    -1.913330  -3.143976  1.945840
N    -2.224912  -4.413106  1.282778
C    -2.092099  -4.637018  -0.030558
N    -1.498531  -3.729024  -0.818990
N    -2.568250  -5.772447  -0.564504
H    -0.603333  -1.251065  3.584774
H    1.009419  -1.531722  2.966938
H    -0.158070  -3.663060  3.103812
H    0.185436  -3.291620  1.422674
H    -2.269487  -2.332576  1.295348
H    -2.525858  -3.099113  2.854894
H    -2.509286  -5.195656  1.862563
H    -1.561691  -3.811676  -1.825924
H    -2.324504  -6.057536  -1.504860
H    -3.200756  -6.373760  -0.050614
O    2.119449  -0.321315  0.842240
H    2.214892  -1.267635  0.639970
Ca    2.712016  1.803615  0.243551
