27
Energy: -35052.1026929 eV PBE+vdW (tier 2 basis)
N    1.431085  -0.938577  -0.519282
C    0.768391  -0.293748  0.624206
C    1.814822  0.105281  1.676864
O    2.863603  -0.562153  1.788460
H    -0.044300  -1.215784  -1.802673
H    1.686278  -0.196488  -1.181886
H    0.206339  0.606462  0.319787
C    -0.201224  -1.264094  1.363102
C    -1.245692  -1.974943  0.496158
C    -2.443505  -1.168722  -0.005646
N    -2.203776  -0.047891  -0.957241
C    -1.780855  -0.186237  -2.234819
N    -0.778803  -1.024070  -2.518442
N    -2.355045  0.546552  -3.199562
H    -0.694300  -0.727051  2.188579
H    0.406014  -2.046694  1.850597
H    -1.688935  -2.769251  1.116018
H    -0.757130  -2.504477  -0.331425
H    -2.953157  -0.701951  0.846785
H    -3.161226  -1.865373  -0.463994
H    -2.825402  0.743086  -0.813475
H    -0.577356  -1.248361  -3.486571
H    -1.916964  0.665868  -4.106327
H    -3.280488  0.943951  -3.081879
O    1.637313  1.105034  2.511461
H    0.802484  1.584213  2.346415
Ca    3.245968  -1.994246  0.165217
