27
Energy: -35051.0326207 eV PBE+vdW (tier 2 basis)
N    -1.079632  0.322340  0.398084
C    -0.227174  0.149319  1.566660
C    0.790343  1.302737  1.708680
O    1.980826  1.201760  1.485592
H    -1.747014  1.083844  0.513180
H    -0.547936  0.483954  -0.457997
H    -0.879202  0.170675  2.453460
C    0.506291  -1.197229  1.482669
C    1.233890  -1.582544  2.777124
C    2.236309  -2.720470  2.602554
N    1.560668  -3.951256  2.115901
C    2.022564  -5.188377  2.122873
N    1.438034  -6.296617  1.701216
N    3.358821  -5.465195  2.637714
H    1.229456  -1.142536  0.653171
H    -0.264060  -1.936353  1.205854
H    0.517500  -1.833921  3.574348
H    1.823157  -0.728019  3.137107
H    2.727353  -2.943360  3.559952
H    3.006067  -2.429791  1.869905
H    0.643871  -3.796777  1.692115
H    0.485314  -6.194605  1.345829
H    3.404631  -5.269022  3.645610
H    4.056328  -4.843713  2.210736
O    0.174847  2.445308  2.064889
H    0.842092  3.161289  2.081066
Ca    3.029357  -7.809945  1.947149
