27
Energy: -35051.3626431 eV PBE+vdW (tier 2 basis)
N    0.009282  -0.407495  0.323780
C    -0.063795  -0.307814  1.780261
C    1.355511  -0.319821  2.357919
O    2.261543  -1.002457  1.902490
H    -0.912728  -0.242086  -0.082823
H    0.630644  0.302160  -0.067684
H    -0.566767  0.615245  2.131086
C    -0.877872  -1.498862  2.364952
C    -0.203752  -2.887428  2.337721
C    0.200296  -3.352194  0.939965
N    0.975857  -4.642727  0.962280
C    2.310478  -4.654848  1.543121
N    2.619022  -5.871899  1.971333
N    3.026684  -3.553789  1.605416
H    -1.829093  -1.534167  1.812552
H    -1.143137  -1.270952  3.406514
H    -0.917213  -3.606948  2.780800
H    0.675163  -2.869938  3.001722
H    0.758224  -2.566688  0.411376
H    -0.687137  -3.553955  0.325591
H    1.097697  -4.929905  -0.018374
H    3.575560  -5.998440  2.308007
H    2.647701  -2.598609  1.422753
H    3.933496  -3.569927  2.068152
O    1.586921  0.413502  3.449039
H    0.824644  0.981901  3.669654
Ca    0.610214  -6.718241  2.162203
