27
Energy: -35052.6111164 eV PBE+vdW (tier 2 basis)
N    -0.041201  0.093622  0.011314
C    0.292571  -0.200611  1.404977
C    1.539905  -1.068319  1.208832
O    1.543930  -2.308377  1.017249
H    0.366247  0.966091  -0.319383
H    -1.043931  0.103518  -0.163601
H    0.593965  0.689443  1.981167
C    -0.847358  -0.928186  2.115446
C    -0.536707  -1.353354  3.558581
C    -1.508150  -2.410073  4.127860
N    -1.765046  -3.529138  3.197019
C    -0.840090  -4.336991  2.668682
N    -0.906827  -5.050131  1.562845
N    0.457706  -4.417508  3.263985
H    -1.119895  -1.799358  1.498257
H    -1.719935  -0.258412  2.104365
H    -0.568937  -0.484854  4.231239
H    0.501044  -1.720987  3.624831
H    -2.489490  -1.965232  4.328798
H    -1.150543  -2.799274  5.091919
H    -2.645507  -3.486161  2.689390
H    -1.833323  -5.113559  1.135314
H    0.639050  -3.727698  3.993733
H    0.593636  -5.352011  3.662984
O    2.642738  -0.358810  1.177091
H    3.422198  -0.895712  0.920223
Ca    1.188324  -4.451304  0.870101
