27
Energy: -35053.09495 eV PBE+vdW (tier 2 basis)
N    1.399855  -0.974668  -0.454390
C    0.429602  -0.268692  0.392630
C    1.251600  0.276646  1.579557
O    0.762309  1.036754  2.450336
H    1.153297  -1.946155  -0.639719
H    1.595560  -0.511831  -1.341161
H    0.034323  0.619300  -0.125001
C    -0.744201  -1.161457  0.865268
C    -2.006860  -1.090986  -0.017502
C    -3.103811  -0.128395  0.468703
N    -2.645591  1.259141  0.648657
C    -2.315735  1.893736  1.779976
N    -1.814176  3.102688  1.912892
N    -2.401632  1.222506  3.042062
H    -0.987309  -0.920048  1.910058
H    -0.376110  -2.196774  0.906621
H    -2.476461  -2.083079  -0.069976
H    -1.730069  -0.845738  -1.054204
H    -3.542502  -0.479676  1.412409
H    -3.930659  -0.110304  -0.253380
H    -2.502720  1.791335  -0.207671
H    -1.829904  3.683733  1.072540
H    -3.185657  1.599066  3.584769
H    -2.513126  0.210047  2.983526
O    2.479113  -0.094782  1.590743
H    2.510492  -0.668774  0.702299
Ca    -0.315548  2.529281  3.544576
