27
Energy: -35053.501069 eV PBE+vdW (tier 2 basis)
N    0.735621  -0.267384  -1.077444
C    0.067223  0.055507  0.239418
C    1.079258  0.740902  1.184364
O    2.340169  0.468828  0.943289
H    0.560167  0.511170  -1.722975
H    0.240939  -1.057776  -1.506650
H    -0.755456  0.763475  0.063497
C    -0.494827  -1.246624  0.848137
C    -1.113535  -1.197880  2.258200
C    -2.352729  -0.312804  2.466744
N    -1.985325  1.080592  2.733664
C    -2.744159  1.967229  3.379707
N    -2.192176  3.115449  3.806068
N    -4.043836  1.732109  3.616068
H    0.316613  -1.994213  0.877098
H    -1.248564  -1.636976  0.144498
H    -0.355354  -0.939957  3.011586
H    -1.417779  -2.227655  2.489184
H    -2.907373  -0.702423  3.333226
H    -3.021381  -0.377336  1.590994
H    -1.007112  1.350636  2.518490
H    -1.187876  3.244310  3.789417
H    -4.585322  2.334879  4.223246
H    -4.532229  0.964946  3.174161
O    0.685281  1.452956  2.100236
H    -2.757928  3.887188  4.135592
Ca    3.147609  -0.452429  -0.675080
