27
Energy: -35051.2078187 eV PBE+vdW (tier 2 basis)
N    -0.296400  0.360603  -0.017366
C    -0.465997  0.386724  1.501867
C    0.923997  0.642904  2.092766
O    1.886449  0.951056  1.297295
H    -1.102393  0.778317  -0.501101
H    0.569439  0.874773  -0.265942
H    -1.072273  1.279488  1.725745
C    -1.203971  -0.869771  1.990426
C    -1.812992  -0.726750  3.391322
C    -2.824302  -1.859907  3.701254
N    -3.634786  -1.593588  4.862934
C    -4.613387  -0.607495  4.866912
N    -5.047769  0.054407  3.837562
N    -5.113964  -0.300326  6.110543
H    -0.533693  -1.742616  1.929202
H    -2.026617  -1.051239  1.276950
H    -2.350893  0.231849  3.457919
H    -1.029392  -0.709504  4.159113
H    -2.301500  -2.812178  3.861768
H    -3.484350  -2.017463  2.831822
H    -3.272403  -1.898483  5.759347
H    -4.634409  -0.269874  2.961323
H    -5.941097  0.287577  6.081879
H    -5.134960  -1.020075  6.824665
O    1.102622  0.592582  3.347459
H    -0.193152  -0.605409  -0.360085
Ca    3.206016  1.238770  3.102004
