27
Energy: -35052.1193588 eV PBE+vdW (tier 2 basis)
N    0.978888  0.151516  0.517304
C    -0.074498  -0.446693  1.425467
C    0.577517  -1.592649  2.240285
O    1.866347  -1.468305  2.429556
H    0.956290  -0.374724  -0.365964
H    0.670127  1.091254  0.245655
H    -0.304268  0.335243  2.169734
C    -1.370574  -0.825411  0.676381
C    -2.695686  -0.587429  1.426489
C    -3.148049  -1.651941  2.434392
N    -3.439167  -2.932353  1.778555
C    -3.102519  -4.197692  2.148521
N    -3.409030  -5.350567  1.725656
N    -2.108248  -4.262323  3.278747
H    -1.306993  -1.869009  0.332975
H    -1.410821  -0.206219  -0.232038
H    -3.489816  -0.476084  0.672822
H    -2.664909  0.380051  1.951422
H    -4.050550  -1.288887  2.949640
H    -2.379351  -1.801554  3.199721
H    -4.160620  -2.900471  1.062386
H    -4.088533  -5.378202  0.961811
H    -1.839857  -5.256292  3.318584
H    -2.530375  -4.007399  4.181677
O    -0.094343  -2.511682  2.693627
H    -1.267488  -3.655516  3.105479
Ca    3.157049  -0.143003  1.571543
