27
Energy: -35053.4495256 eV PBE+vdW (tier 2 basis)
N    -0.618802  0.053971  0.920508
C    -0.022046  0.528546  2.239059
C    1.501700  0.493070  2.048433
O    2.228148  0.915886  2.986426
H    -1.184367  0.775684  0.457148
H    0.214151  -0.172746  0.323406
H    -0.295393  1.587180  2.348814
C    -0.574776  -0.219511  3.468002
C    -0.519820  -1.760873  3.559391
C    0.756927  -2.450212  4.076311
N    1.802767  -2.573819  3.056782
C    3.088455  -2.170959  3.061576
N    3.938823  -2.272121  2.061605
N    3.596530  -1.383601  4.113035
H    -1.629389  0.078607  3.561865
H    -0.076278  0.231557  4.338049
H    -0.825147  -2.246855  2.614926
H    -1.314072  -2.044477  4.264539
H    0.490622  -3.458386  4.425113
H    1.152006  -1.918284  4.950390
H    1.530017  -3.077330  2.216010
H    3.664033  -2.924744  1.324297
H    4.449009  -1.785613  4.505827
H    2.950487  -1.101571  4.846685
O    1.962967  0.033720  0.949272
H    -1.202927  -0.784488  1.027842
Ca    4.119618  0.042328  2.006208
