27
Energy: -35052.2025401 eV PBE+vdW (tier 2 basis)
N    -0.803973  -0.279788  -0.271688
C    -0.268755  -0.137787  1.093586
C    1.251933  -0.024348  1.164125
O    1.982092  -0.230257  0.126183
H    -0.555729  -1.198028  -0.652734
H    -2.560737  -0.038375  -0.446851
H    -0.643796  0.812672  1.507426
C    -0.720699  -1.297920  2.021892
C    -2.195157  -1.690789  1.873065
C    -3.209605  -0.559994  2.134438
N    -4.480702  -0.749537  1.427826
C    -4.601403  -0.737275  0.068511
N    -5.401420  -1.255636  -0.762060
N    -3.613027  0.189626  -0.600951
H    -0.490665  -1.007723  3.055670
H    -0.110156  -2.188558  1.806495
H    -2.395719  -2.529066  2.554478
H    -2.367032  -2.096468  0.864702
H    -2.799625  0.422969  1.856859
H    -3.444883  -0.475913  3.201781
H    -5.169687  -1.331568  1.897088
H    -6.083491  -1.908454  -0.367384
H    -3.843830  0.105386  -1.601411
H    -3.781409  1.163998  -0.315467
O    1.809442  0.275954  2.283206
H    -0.353604  0.395974  -0.894955
Ca    3.754254  0.154654  1.346368
