27
Energy: -35051.0118807 eV PBE+vdW (tier 2 basis)
N    0.385348  -2.094721  1.197909
C    0.441884  -0.652861  1.088407
C    1.714775  -0.014632  0.481458
O    1.762130  1.152426  0.159871
H    1.166836  -2.473486  1.734215
H    0.383342  -2.556084  0.289557
H    -0.352911  -0.337490  0.392485
C    0.208482  0.003408  2.468443
C    -1.173531  -0.290345  3.066488
C    -2.281646  0.523940  2.398026
N    -3.597538  0.160035  2.975859
C    -4.689584  0.899271  3.073872
N    -5.854536  0.585413  3.613456
N    -4.712124  2.252634  2.532855
H    0.380532  1.085936  2.384952
H    0.969665  -0.376665  3.165635
H    -1.163602  -0.063590  4.142440
H    -1.381767  -1.366706  2.948659
H    -2.315571  0.334235  1.314172
H    -2.109085  1.598250  2.552157
H    -3.653606  -0.793330  3.337992
H    -5.917217  -0.340629  4.041218
H    -4.379857  2.271267  1.561442
H    -4.066882  2.860909  3.052480
O    2.732577  -0.888164  0.371792
H    3.498269  -0.410523  -0.008398
Ca    -7.102623  2.351555  3.149651
