27
Energy: -35052.0436013 eV PBE+vdW (tier 2 basis)
N    1.341201  0.319048  1.040153
C    0.388885  0.341749  2.171076
C    1.124266  0.277982  3.501862
O    0.460578  0.125632  4.589993
H    1.453750  -1.155422  0.392375
H    1.007713  0.924515  0.286546
H    -0.118021  1.324800  2.228363
C    -0.735602  -0.707974  2.046029
C    -0.328449  -2.191224  1.927611
C    0.008060  -2.698742  0.523349
N    1.358224  -2.211419  0.051225
C    1.695978  -2.307284  -1.424314
N    2.705690  -2.915710  -1.872271
N    0.867616  -1.525216  -2.181425
H    -1.358045  -0.425352  1.183381
H    -1.383373  -0.587456  2.923752
H    -1.183447  -2.794528  2.263784
H    0.486666  -2.443639  2.627008
H    -0.748097  -2.353124  -0.192082
H    0.019413  -3.794283  0.484437
H    2.083318  -2.749068  0.537786
H    3.316208  -3.374634  -1.195416
H    1.054249  -1.587840  -3.180050
H    -0.118927  -1.463052  -1.956482
O    2.397346  0.459639  3.558255
H    2.248787  0.690396  1.335413
Ca    2.240669  0.554410  5.745641
