27
Energy: -35053.7034318 eV PBE+vdW (tier 2 basis)
N    0.359617  -0.649624  -0.072259
C    -0.213972  -0.022082  1.189490
C    0.835199  1.000157  1.648374
O    0.492641  1.942347  2.409135
H    1.396235  -0.581102  0.029025
H    0.076435  -1.631334  -0.192504
H    -1.158811  0.469327  0.929676
C    -0.423007  -1.119740  2.256057
C    -1.225003  -0.688005  3.513743
C    -0.500942  -0.799518  4.877657
N    0.042754  0.465769  5.386204
C    1.254458  0.971148  5.120169
N    2.281933  0.394723  4.543225
N    1.467040  2.358765  5.359291
H    0.560205  -1.528379  2.536136
H    -0.967448  -1.942313  1.768026
H    -2.113809  -1.327675  3.571802
H    -1.605894  0.335931  3.400829
H    0.293948  -1.557521  4.855081
H    -1.212506  -1.145343  5.635975
H    -0.583071  1.022944  5.960243
H    2.223107  -0.621101  4.469408
H    2.146563  2.516294  6.107735
H    0.622189  2.903414  5.537045
O    2.047088  0.769660  1.308709
H    0.090930  -0.134023  -0.921104
Ca    2.695416  2.130492  3.089741
