27
Energy: -35053.5460718 eV PBE+vdW (tier 2 basis)
N    0.422017  -2.038222  1.111115
C    0.406122  -0.577585  0.720477
C    1.374913  -0.359076  -0.474733
O    2.350829  -1.240091  -0.543472
H    -0.304169  -2.512369  0.558436
H    0.081473  -2.117524  2.075393
H    0.864892  -0.034274  1.564248
C    -1.019593  -0.046876  0.502473
C    -1.127137  1.492710  0.368185
C    -1.664200  1.915710  -1.009527
N    -1.544975  3.349485  -1.271702
C    -0.510424  3.937594  -1.893826
N    0.597848  3.250394  -2.179567
N    -0.600771  5.235163  -2.230845
H    -1.634065  -0.379876  1.350616
H    -1.442796  -0.535902  -0.390633
H    -0.146883  1.960028  0.530105
H    -1.787691  1.887626  1.151229
H    -2.727530  1.658264  -1.103754
H    -1.138603  1.378064  -1.808802
H    -2.280587  3.956510  -0.926002
H    1.287039  3.639672  -2.810979
H    -1.488400  5.721833  -2.231048
H    0.207771  5.751965  -2.552873
O    1.243460  0.580914  -1.241952
H    0.773399  2.307971  -1.819533
Ca    2.604950  -2.949649  0.514905
