27
Energy: -35052.5221533 eV PBE+vdW (tier 2 basis)
N    -1.178948  -0.245417  0.693661
C    -0.400085  -0.011718  1.950495
C    0.939306  0.568093  1.480356
O    0.888459  1.501209  0.662015
H    -0.744441  -1.004037  0.155892
H    -2.106500  -0.597219  0.945230
H    -0.816138  0.891167  2.422104
C    -0.479339  -1.093088  3.029563
C    -1.908622  -1.297026  3.596780
C    -2.677316  -0.064686  4.134442
N    -3.258616  0.777120  3.067437
C    -2.763866  1.925295  2.545452
N    -2.976850  2.335100  1.290474
N    -1.870354  2.651946  3.283468
H    0.177849  -0.793527  3.863394
H    -0.109647  -2.060904  2.656851
H    -1.825947  -2.009163  4.429818
H    -2.543625  -1.813761  2.858219
H    -2.039392  0.547285  4.784847
H    -3.502734  -0.414806  4.766868
H    -3.970894  0.319474  2.504674
H    -3.805757  1.883261  0.889997
H    -1.803270  3.630804  3.019017
H    -1.828764  2.504348  4.287304
O    2.098851  0.175511  1.938475
H    2.034136  -0.579279  2.557602
Ca    -1.160727  2.102894  -0.132682
