27
Energy: -35053.4943883 eV PBE+vdW (tier 2 basis)
N    0.362886  -0.302527  -0.315634
C    0.230924  -0.326699  1.153480
C    1.440671  0.313514  1.812312
O    1.415282  0.600688  3.066395
H    -0.117824  -1.116833  -0.704163
H    -0.271389  1.173525  -1.498061
H    0.288382  -1.363927  1.546580
C    -1.104607  0.258443  1.659299
C    -1.487250  1.603913  1.018708
C    -2.439947  1.419342  -0.179173
N    -2.452845  2.540248  -1.117984
C    -1.587730  2.673577  -2.133558
N    -0.535074  1.854957  -2.236403
N    -1.784056  3.641645  -3.045246
H    -1.037533  0.350136  2.749775
H    -1.893538  -0.485814  1.475551
H    -0.584595  2.140961  0.689211
H    -1.969830  2.249514  1.763617
H    -3.469909  1.279412  0.171534
H    -2.185722  0.515263  -0.747843
H    -3.138719  3.275131  -0.983521
H    -0.008116  1.830644  -3.100881
H    -2.673083  4.119845  -3.124123
H    -1.087420  3.850566  -3.748977
O    2.534601  0.488275  1.152830
H    1.349451  -0.413716  -0.563778
Ca    3.526913  1.014617  3.019684
