27
Energy: -35051.6403688 eV PBE+vdW (tier 2 basis)
N    0.998830  -1.016016  -0.240682
C    0.924687  -0.473584  1.111591
C    2.287892  -0.616877  1.811994
O    2.554775  -1.490657  2.645987
H    1.397015  -1.953012  -0.285110
H    1.465719  -0.416746  -0.917815
H    0.698503  0.602253  1.024439
C    -0.218702  -1.158218  1.876889
C    -0.513273  -0.601317  3.291529
C    -0.498218  -1.660781  4.397088
N    0.846475  -2.255347  4.475488
C    1.351425  -2.927343  5.474081
N    0.816264  -3.312917  6.628691
N    2.759392  -3.336671  5.387179
H    -0.009414  -2.239772  1.912816
H    -1.104741  -1.060175  1.239335
H    -1.503658  -0.129962  3.309927
H    0.196170  0.196269  3.562900
H    -1.230024  -2.456752  4.186966
H    -0.754427  -1.210908  5.368460
H    1.490346  -2.029942  3.653016
H    -0.175373  -3.099504  6.745795
H    3.337239  -2.561157  5.037281
H    2.861574  -4.072582  4.676798
O    3.280746  0.190579  1.441929
H    2.990173  0.840360  0.774382
Ca    2.567637  -4.079852  7.682808
