27
Energy: -35053.4427112 eV PBE+vdW (tier 2 basis)
N    -0.061966  0.492401  0.347674
C    -0.130398  0.405145  1.838031
C    1.292588  0.246492  2.374803
O    2.202857  -0.189963  1.661780
H    -0.981805  0.245094  -0.030056
H    0.051674  1.479727  0.090436
H    -0.562599  1.332612  2.248139
C    -1.024059  -0.762676  2.331583
C    -0.541480  -2.218616  2.200414
C    -0.513477  -2.861571  0.801474
N    0.886291  -2.967177  0.252989
C    0.942347  -3.429674  -1.119734
N    1.219609  -2.476014  -1.965451
N    0.732613  -4.727017  -1.367210
H    -2.006326  -0.643012  1.847070
H    -1.220070  -0.581617  3.398424
H    -1.232967  -2.810904  2.814306
H    0.439118  -2.349254  2.685682
H    -1.106040  -2.293144  0.072000
H    -0.964626  -3.863046  0.851599
H    1.415732  -3.604841  0.857727
H    1.218326  -2.751690  -2.950132
H    0.803012  -5.106193  -2.307598
H    0.478973  -5.381367  -0.634948
O    1.554392  0.519637  3.634079
H    0.798267  0.906279  4.118171
Ca    1.908042  -0.804966  -0.498284
