27
Energy: -35051.5302556 eV PBE+vdW (tier 2 basis)
N    0.231871  0.659020  0.545962
C    -0.049523  0.206850  1.888510
C    1.159219  -0.065765  2.795710
O    1.122444  -0.077120  4.031519
H    0.736846  -0.031732  -0.008662
H    0.763275  1.527738  0.524772
H    -0.604346  1.008556  2.404069
C    -0.990399  -1.027373  1.816185
C    -1.767343  -1.367826  3.100033
C    -1.065429  -2.395496  4.002780
N    -1.626875  -2.420697  5.369695
C    -1.293177  -1.553442  6.315663
N    -0.430592  -0.565704  6.260384
N    -1.913275  -1.673213  7.640241
H    -0.435524  -1.904301  1.446022
H    -1.706344  -0.770031  1.025366
H    -2.756971  -1.761313  2.830713
H    -1.950883  -0.442423  3.667688
H    0.007570  -2.193130  4.098750
H    -1.170373  -3.410838  3.602586
H    -2.362934  -3.094277  5.568764
H    0.051225  -0.377968  5.345790
H    -1.842878  -2.630564  8.003667
H    -2.917628  -1.463151  7.595075
O    2.287239  -0.292680  2.126398
H    3.011374  -0.453659  2.765272
Ca    -0.387335  0.120455  8.325234
