27
Energy: -35051.3444512 eV PBE+vdW (tier 2 basis)
N    0.347110  -1.613986  0.579631
C    -0.034100  -0.436449  1.349621
C    1.193321  0.096458  2.087159
O    2.024192  -0.623463  2.629791
H    -0.439074  -1.934129  0.011275
H    1.107944  -1.406489  -0.068372
H    -0.444213  0.389552  0.735266
C    -1.144320  -0.808409  2.380426
C    -0.858938  -2.086635  3.192042
C    -0.136075  -1.883508  4.531107
N    0.420951  -3.181684  5.054701
C    1.745157  -3.610179  4.650661
N    2.192985  -4.550713  5.481439
N    2.365022  -3.056402  3.634139
H    -2.063009  -0.968703  1.799580
H    -1.354846  0.053773  3.030646
H    -0.268779  -2.753301  2.543244
H    -1.812927  -2.597219  3.392131
H    -0.831439  -1.506250  5.293096
H    0.694170  -1.171500  4.471161
H    -0.220560  -3.928745  4.752846
H    3.070389  -4.999283  5.211887
H    3.331516  -3.318538  3.450207
H    2.025768  -2.214649  3.092290
O    1.329080  1.417217  2.200406
H    0.656446  1.891725  1.675375
Ca    1.046744  -4.041508  7.262769
