27
Energy: -35052.8401021 eV PBE+vdW (tier 2 basis)
N    -0.364215  0.472534  0.712575
C    0.396935  0.509143  1.928528
C    1.716605  1.283262  1.916142
O    2.141850  1.908829  2.920364
H    0.075751  -0.062262  -0.035040
H    -0.642505  1.385035  0.357835
H    -0.205897  1.029660  2.691253
C    0.689469  -0.940519  2.417946
C    -0.558606  -1.670095  2.948357
C    -0.807747  -1.571783  4.458341
N    -1.058889  -0.197633  4.939368
C    -0.140619  0.630138  5.436784
N    1.112413  0.390526  5.755448
N    -0.466485  2.025734  5.557733
H    1.491787  -0.941133  3.171142
H    1.094075  -1.487394  1.554147
H    -0.460442  -2.743352  2.731829
H    -1.443891  -1.335872  2.387566
H    0.032346  -1.991380  5.028284
H    -1.687146  -2.167109  4.733424
H    -2.016823  0.137566  4.871876
H    1.369347  -0.596322  5.798434
H    -0.632158  2.279126  6.537671
H    -1.283021  2.315824  5.014806
O    2.379308  1.250034  0.789869
H    3.219773  1.753869  0.844495
Ca    2.011073  2.342144  5.056984
