27
Energy: -35051.8101708 eV PBE+vdW (tier 2 basis)
N    -1.705778  -0.185976  0.990430
C    -0.341871  -0.649012  1.349336
C    0.343397  -1.376974  0.197861
O    1.414749  -1.912642  0.274307
H    -1.669341  0.428735  0.174074
H    -2.076871  0.381682  1.756991
H    0.320046  0.213919  1.541389
C    -0.335126  -1.501379  2.640670
C    -0.879682  -2.939121  2.583104
C    -2.383728  -3.114483  2.324137
N    -2.742344  -2.637833  0.982558
C    -3.076056  -3.370295  -0.044144
N    -3.338474  -4.670871  -0.160010
N    -3.171743  -2.704534  -1.351516
H    -0.859410  -0.926924  3.420738
H    0.710131  -1.561790  2.969538
H    -0.674586  -3.404451  3.557884
H    -0.312755  -3.530395  1.847326
H    -2.978475  -2.536546  3.046417
H    -2.669340  -4.166947  2.446304
H    -2.486857  -1.573155  0.845445
H    -3.299966  -5.206649  0.707940
H    -2.297463  -2.173559  -1.506773
H    -3.918301  -1.999705  -1.334704
O    -0.368186  -1.331807  -1.001578
H    0.277736  -1.638399  -1.671439
Ca    -3.676325  -4.874018  -2.299548
