27
Energy: -35051.1858416 eV PBE+vdW (tier 2 basis)
N    -0.390574  -0.519150  -0.369094
C    -0.110397  -0.505648  1.053460
C    1.401535  -0.473077  1.216159
O    2.205835  -1.052687  0.546363
H    0.223389  -1.171809  -0.858999
H    -1.356344  -0.778792  -0.565208
H    -0.517619  0.432702  1.472036
C    -0.702019  -1.710979  1.851217
C    -0.488486  -1.781451  3.373144
C    -1.099282  -0.654230  4.210855
N    -0.313048  0.595673  4.099309
C    -0.680957  1.765630  4.563869
N    -1.767350  2.107033  5.241941
N    0.174609  2.930607  4.321414
H    -0.297218  -2.630950  1.405887
H    -1.782886  -1.718210  1.639541
H    0.578015  -1.884899  3.628183
H    -0.954781  -2.710559  3.729933
H    -1.124692  -0.945981  5.271932
H    -2.132385  -0.444926  3.888360
H    0.579743  0.530578  3.568974
H    -2.402251  1.341099  5.473709
H    0.421569  3.001380  3.326492
H    1.069314  2.825512  4.815466
O    1.803742  0.310014  2.313404
H    2.776863  0.205056  2.366739
Ca    -1.554854  4.284356  5.390131
