27
Energy: -35051.8840692 eV PBE+vdW (tier 2 basis)
N    -0.577310  0.661527  0.597205
C    -0.247988  -0.192158  1.789706
C    1.278472  -0.142402  1.941382
O    1.948533  0.657247  1.321052
H    0.100649  1.441339  0.566050
H    -0.456287  0.136014  -0.277260
H    -0.669826  0.344104  2.654745
C    -0.886614  -1.579601  1.677036
C    -2.347654  -1.588251  1.181882
C    -3.331534  -0.626114  1.861490
N    -3.196231  0.763607  1.378360
C    -4.179622  1.567901  1.614000
N    -5.354163  1.418466  2.268469
N    -4.124508  2.948616  1.068289
H    -0.820827  -2.042224  2.670623
H    -0.282205  -2.212166  1.009986
H    -2.725086  -2.609581  1.325333
H    -2.394869  -1.423026  0.093400
H    -3.199147  -0.656550  2.958077
H    -4.350821  -0.994537  1.654533
H    -1.613976  0.947957  0.714531
H    -5.472495  0.513642  2.724167
H    -3.821424  2.920233  0.090105
H    -3.402133  3.484405  1.561273
O    1.716892  -1.031429  2.831158
H    2.688964  -0.940650  2.920819
Ca    -6.400476  3.237674  1.807645
