27
Energy: -35052.5517159 eV PBE+vdW (tier 2 basis)
N    -1.087644  -0.115544  -0.253668
C    -0.592515  -0.235246  1.109588
C    0.110617  1.079574  1.445460
O    1.274070  1.343741  1.063239
H    -1.857521  0.537839  -0.384563
H    -0.368948  0.031400  -0.959871
H    -1.468401  -0.348341  1.768582
C    0.308935  -1.469359  1.265369
C    0.529044  -1.966874  2.716038
C    1.984190  -2.157787  3.172975
N    2.636544  -0.887493  3.535887
C    3.427050  -0.096303  2.808363
N    3.853826  1.114886  3.111198
N    3.818145  -0.471026  1.487494
H    1.260035  -1.264419  0.750298
H    -0.175969  -2.257194  0.675332
H    0.030118  -2.937613  2.835127
H    0.030207  -1.302787  3.440199
H    2.589461  -2.680840  2.419842
H    2.013269  -2.790425  4.069281
H    2.340795  -0.496193  4.428511
H    3.711205  1.402792  4.081379
H    4.827452  -0.644965  1.455797
H    3.333466  -1.285728  1.110018
O    -0.539838  2.051106  2.061878
H    -1.438283  1.779661  2.336903
Ca    3.355931  1.966545  1.069290
