27
Energy: -35053.3907789 eV PBE+vdW (tier 2 basis)
N    0.325851  0.661800  0.062887
C    0.365328  0.213567  1.504410
C    1.751748  -0.413446  1.816840
O    2.726057  0.045090  1.056903
H    0.045003  -0.139684  -0.515051
H    -0.448086  1.326251  -0.046763
H    0.367726  1.143781  2.098743
C    -0.860072  -0.586413  1.975475
C    -1.201922  -1.929802  1.304640
C    -0.235454  -3.106773  1.532361
N    0.127374  -3.320822  2.931474
C    -0.307054  -4.285652  3.745146
N    0.342222  -4.513174  4.897819
N    -1.376099  -5.037149  3.439704
H    -1.738845  0.067866  1.873839
H    -0.740667  -0.733809  3.058296
H    -1.327622  -1.816369  0.214696
H    -2.201365  -2.209591  1.669567
H    0.708564  -2.953327  0.991539
H    -0.665568  -4.029007  1.120170
H    0.842109  -2.666195  3.270258
H    -0.070433  -5.068616  5.637093
H    -1.583474  -5.884690  3.953646
H    -2.011115  -4.781028  2.696270
O    1.903931  -1.203469  2.734240
H    1.257888  -4.116085  5.068913
Ca    2.609415  1.342744  -0.495689
