27
Energy: -35051.8186508 eV PBE+vdW (tier 2 basis)
N    -0.034094  1.373323  1.050908
C    0.190810  0.268028  1.990194
C    1.680748  -0.135758  1.836844
O    2.183455  -1.136740  2.371216
H    -0.533576  2.158857  1.462533
H    -0.527978  1.085306  0.206150
H    0.110776  0.683302  3.008182
C    -0.752448  -0.959794  1.847960
C    -1.387624  -1.521961  3.134850
C    -0.447338  -1.905222  4.292369
N    0.727118  -2.656136  3.840859
C    1.158512  -3.837081  4.186284
N    2.275376  -4.436942  3.768313
N    0.447032  -4.702668  5.138305
H    -0.229140  -1.761873  1.307529
H    -1.586847  -0.664690  1.198294
H    -1.984022  -2.401364  2.850823
H    -2.100183  -0.792365  3.547776
H    -1.008217  -2.461960  5.054301
H    -0.058694  -1.001145  4.786084
H    1.363348  -2.050344  3.176441
H    2.828493  -3.889437  3.103956
H    -0.485066  -4.942757  4.781720
H    0.280730  -4.210431  6.023328
O    2.379689  0.674548  1.097716
H    1.675475  1.355614  0.795537
Ca    2.295580  -6.286598  4.893037
