27
Energy: -35051.7387906 eV PBE+vdW (tier 2 basis)
N    -0.840617  -0.977893  -0.515636
C    -0.330417  -0.778731  0.818589
C    1.095073  -1.266803  1.106183
O    1.828063  -0.751118  1.966400
H    -0.981683  -1.961435  -0.744291
H    -0.254446  -0.561743  -1.236857
H    -0.286385  0.310535  0.993298
C    -1.334017  -1.399858  1.827374
C    -1.061574  -1.290627  3.335137
C    -0.930007  0.121754  3.919739
N    0.424803  0.665913  3.698959
C    0.931268  1.696469  4.321107
N    0.396001  2.514716  5.222474
N    2.328797  2.062464  4.052115
H    -1.439812  -2.467737  1.583641
H    -2.301354  -0.936485  1.586380
H    -0.184107  -1.883843  3.635902
H    -1.912650  -1.760918  3.846588
H    -1.112709  0.088998  5.004715
H    -1.670387  0.805658  3.473689
H    1.033206  0.142149  2.984541
H    -0.587001  2.343754  5.439984
H    2.427850  2.379554  3.079855
H    2.936002  1.236997  4.122090
O    1.491320  -2.287063  0.363301
H    2.400743  -2.547270  0.619024
Ca    2.107302  3.744125  5.790331
