27
Energy: -35052.7200575 eV PBE+vdW (tier 2 basis)
N    0.585375  0.240471  0.666689
C    0.004986  -0.118154  1.928313
C    0.884063  -0.937880  2.876521
O    0.708937  -0.977165  4.122535
H    0.738480  -0.542398  0.033387
H    1.437934  0.791653  0.737698
H    -0.202895  0.810199  2.488926
C    -1.365674  -0.818877  1.687215
C    -2.293538  -0.955799  2.907107
C    -2.200653  -2.298657  3.646521
N    -2.458802  -2.106083  5.122294
C    -2.226262  -3.279995  5.930378
N    -1.030418  -3.299263  6.460842
N    -3.210191  -4.170761  6.069311
H    -1.205978  -1.794236  1.201530
H    -1.844629  -0.181938  0.932880
H    -3.330980  -0.801971  2.581911
H    -2.091187  -0.129428  3.610485
H    -1.203572  -2.750936  3.558967
H    -2.909280  -3.026193  3.224281
H    -3.411478  -1.752261  5.255699
H    -0.789278  -4.144042  6.982843
H    -4.080108  -4.095197  5.552210
H    -3.112187  -4.981570  6.675004
O    1.861050  -1.597949  2.305483
H    2.401960  -2.083651  2.963612
Ca    -0.328136  -1.169606  6.024236
