27
Energy: -35051.4470538 eV PBE+vdW (tier 2 basis)
N    0.015021  -0.218080  0.009981
C    -0.166334  -0.223100  1.459572
C    1.180322  -0.189464  2.178515
O    1.478712  -0.823789  3.190628
H    -0.823345  0.134453  -0.453299
H    0.780040  0.396146  -0.268074
H    -0.652359  0.702174  1.842238
C    -1.091375  -1.388891  1.883480
C    -0.731136  -2.758414  1.278775
C    0.476279  -3.519883  1.824813
N    0.163092  -4.391857  3.016632
C    -0.285280  -3.802753  4.275768
N    -1.222370  -4.555777  4.828689
N    0.248871  -2.684270  4.718073
H    -2.092604  -1.127302  1.511589
H    -1.183404  -1.405052  2.976452
H    -0.539296  -2.587587  0.208600
H    -1.628766  -3.414937  1.304987
H    1.312198  -2.849977  2.058217
H    0.842763  -4.225580  1.067749
H    1.018216  -4.919548  3.237880
H    -1.544459  -4.263441  5.753640
H    0.818664  -2.040804  4.111452
H    -0.083310  -2.285903  5.594359
O    2.019783  0.673952  1.615719
H    2.847644  0.714796  2.138518
Ca    -1.774207  -5.810613  3.111375
