27
Energy: -35053.3480993 eV PBE+vdW (tier 2 basis)
N    -1.511647  0.376484  1.210220
C    -0.403410  0.970581  1.946093
C    0.481203  1.798888  1.036928
O    1.673106  2.134544  1.398139
H    -1.016783  -5.354273  1.553136
H    -2.334274  0.292210  1.806281
H    -0.735586  1.744496  2.675785
C    0.359461  -0.083555  2.779402
C    0.871476  -1.278666  1.966186
C    1.198354  -2.464121  2.883975
N    1.675415  -3.665120  2.184390
C    0.912481  -4.676658  1.751258
N    -0.418501  -4.545501  1.670225
N    1.483453  -5.838874  1.398804
H    -0.350923  -0.436763  3.543326
H    1.177760  0.404944  3.325301
H    1.770361  -1.002119  1.393876
H    0.099303  -1.557814  1.232566
H    0.320633  -2.747998  3.483207
H    1.981895  -2.193453  3.604198
H    2.675735  -3.757317  2.042191
H    -0.861770  -3.636263  1.693029
H    0.971582  -6.539896  0.876724
H    2.421427  -6.078247  1.696619
O    0.014851  2.263235  -0.072807
H    -1.775497  0.954004  0.412004
Ca    1.769262  3.498055  -0.272336
