27
Energy: -35049.7956192 eV PBE+vdW (tier 2 basis)
N    1.213504  -0.360195  -0.319184
C    0.487139  -0.148557  0.927410
C    1.640690  0.250333  1.850264
O    2.093389  1.427673  1.897534
H    1.378307  -1.338785  -0.544730
H    0.834432  0.133647  -1.120961
H    -0.146742  0.743848  0.834071
C    -0.329233  -1.341543  1.450759
C    -1.521829  -1.748707  0.569617
C    -2.703993  -0.755469  0.590487
N    -3.909441  -1.280143  -0.014426
C    -4.754210  -2.165823  0.626736
N    -4.660657  -2.576166  1.864006
N    -5.770069  -2.675902  -0.128496
H    -0.684649  -1.118782  2.470744
H    0.330281  -2.228165  1.531155
H    -1.882460  -2.721663  0.930964
H    -1.194519  -1.915105  -0.467643
H    -2.454919  0.173287  0.057205
H    -2.930653  -0.459237  1.627470
H    -4.002506  -1.181990  -1.019605
H    -3.894979  -2.132553  2.375487
H    -6.442500  -3.247661  0.370898
H    -6.087561  -2.226633  -0.978340
O    2.274144  -0.640918  2.570881
H    1.833346  -1.517584  2.523634
Ca    3.471965  2.961087  2.222723
