27
Energy: -35053.5881002 eV PBE+vdW (tier 2 basis)
N    0.475115  -1.036424  2.761805
C    0.533777  0.411391  3.007150
C    1.519317  1.151080  2.104121
O    1.816950  2.377949  2.355997
H    -1.137370  -1.821761  3.363168
H    0.586981  -1.229787  1.763259
H    0.917101  0.571040  4.027026
C    -0.857741  1.094550  2.969380
C    -1.691594  0.931581  1.689247
C    -2.442415  -0.398778  1.497589
N    -3.377233  -0.716892  2.580479
C    -3.220192  -1.680686  3.504247
N    -2.027288  -2.240452  3.713764
N    -4.287558  -2.069962  4.223056
H    -0.700209  2.164823  3.157994
H    -1.423241  0.725804  3.837187
H    -1.075551  1.086553  0.788198
H    -2.434457  1.742593  1.671288
H    -1.764871  -1.251382  1.385083
H    -3.026793  -0.344871  0.568814
H    -4.261403  -0.218404  2.589426
H    -1.966427  -3.083826  4.271731
H    -5.232553  -1.861597  3.924884
H    -4.181925  -2.645364  5.049324
O    2.068326  0.565084  1.097572
H    1.264042  -1.502298  3.213977
Ca    3.249178  2.365278  0.747395
