27
Energy: -35053.0109248 eV PBE+vdW (tier 2 basis)
N    0.284717  0.090481  0.193825
C    -0.301226  -0.306760  1.531197
C    0.896876  -0.076019  2.518942
O    0.677218  -0.400500  3.745540
H    0.367948  -0.693370  -0.463427
H    -0.205893  0.858845  -0.274749
H    -1.075801  0.430253  1.779254
C    -0.834002  -1.744898  1.601182
C    -2.346715  -2.013142  1.476452
C    -3.364552  -1.075052  2.154202
N    -3.046530  -0.475911  3.470957
C    -2.395966  -0.980160  4.531309
N    -1.884368  -2.165945  4.742193
N    -2.053514  -0.050723  5.569688
H    -0.494984  -2.140736  2.564231
H    -0.314696  -2.363254  0.852399
H    -2.507792  -3.046016  1.816728
H    -2.649739  -2.025680  0.419279
H    -4.325103  -1.607102  2.222787
H    -3.547837  -0.205340  1.509526
H    -3.538547  0.398203  3.637956
H    -2.212430  -2.898404  4.112727
H    -2.575210  -0.246731  6.428929
H    -2.165612  0.934400  5.324848
O    1.928940  0.389792  2.040116
H    1.268003  0.409257  0.512286
Ca    0.129114  -1.304978  5.548106
