27
Energy: -35051.0854413 eV PBE+vdW (tier 2 basis)
N    -1.467493  0.896577  0.828988
C    -0.737529  -0.198884  1.537316
C    0.738235  0.171326  1.623105
O    1.137012  1.298718  1.249054
H    -1.837729  0.515195  -0.051146
H    -2.355884  1.043556  1.419551
H    -1.099052  -0.188846  2.582737
C    -0.966116  -1.619572  0.954704
C    -2.431052  -1.967844  0.642030
C    -3.443155  -1.913401  1.823641
N    -4.652010  -1.143420  1.531117
C    -4.651054  0.234196  1.396888
N    -5.260539  0.979933  0.556551
N    -3.828735  0.917907  2.361283
H    -0.571946  -2.355098  1.675854
H    -0.371180  -1.736768  0.035473
H    -2.425289  -2.974156  0.202287
H    -2.805781  -1.318883  -0.165681
H    -2.975094  -1.513080  2.734421
H    -3.761018  -2.927748  2.090797
H    -5.297450  -1.605416  0.895238
H    -5.781161  0.458468  -0.153521
H    -4.211647  1.863392  2.433754
H    -3.878405  0.482294  3.285115
O    1.627574  -0.648400  2.106902
H    1.261087  -1.521676  2.356122
Ca    -0.138428  2.818864  0.445065
