27
Energy: -35053.5835063 eV PBE+vdW (tier 2 basis)
N    0.574099  -0.899591  0.889246
C    -0.637637  -0.333869  1.617483
C    -0.132242  0.181150  2.966969
O    -0.979910  0.547151  3.826189
H    0.563368  -0.698751  -0.118694
H    0.655683  -1.918015  1.008324
H    -1.366387  -1.142108  1.746947
C    -1.272996  0.857340  0.874388
C    -0.375089  2.106624  0.765471
C    -1.114826  3.442344  0.913561
N    -1.937614  3.597892  2.129785
C    -1.516213  4.235781  3.261923
N    -0.324606  3.959665  3.806421
N    -2.377211  5.119068  3.808031
H    -2.173237  1.090743  1.460227
H    -1.628344  0.524093  -0.111510
H    0.137272  2.135515  -0.207585
H    0.430983  2.086062  1.511819
H    -1.799264  3.585411  0.067446
H    -0.379822  4.256913  0.870236
H    -2.932299  3.691853  1.949085
H    -0.034491  4.762822  4.375865
H    -3.131614  5.533848  3.271987
H    -2.245785  5.465534  4.751130
O    1.126276  0.385274  3.091542
H    1.406930  -0.458748  1.337379
Ca    0.522720  2.001464  4.645930
