27
Energy: -35051.193062 eV PBE+vdW (tier 2 basis)
N    0.321261  -0.591030  0.000179
C    -0.009313  0.047721  1.343456
C    1.304769  0.257288  2.091209
O    1.321339  1.004649  3.119952
H    -0.485395  -1.137073  -0.351324
H    0.573431  0.103915  -0.715790
H    -0.467937  1.025939  1.142915
C    -0.970559  -0.838964  2.160179
C    -2.422756  -0.903666  1.660143
C    -2.647565  -1.584811  0.284716
N    -3.957935  -2.135247  0.086521
C    -4.340914  -3.325668  0.724025
N    -3.589003  -4.110985  1.421986
N    -5.673136  -3.619435  0.567366
H    -0.970604  -0.425798  3.178600
H    -0.539473  -1.852318  2.238485
H    -2.865973  0.103211  1.655643
H    -2.980390  -1.480221  2.411623
H    -1.928623  -2.422338  0.158574
H    -2.477825  -0.868572  -0.540879
H    -4.700308  -1.478734  -0.134414
H    -2.640668  -3.758056  1.557798
H    -5.941751  -4.523664  0.942123
H    -6.135611  -3.364094  -0.298358
O    2.362180  -0.357279  1.699738
H    1.135200  -1.218091  0.119172
Ca    3.446491  0.551156  3.447896
