27
Energy: -35051.8804768 eV PBE+vdW (tier 2 basis)
N    1.703753  -0.900980  2.019711
C    0.467970  -0.250869  1.439812
C    1.379857  0.436362  2.388534
O    2.113745  1.523764  2.099765
H    2.490768  -0.948917  1.368530
H    -4.428066  -3.389988  -2.056587
H    0.570093  0.126377  0.416668
C    -0.858467  -0.902843  1.752590
C    -1.078576  -2.171536  0.912221
C    -2.410023  -2.860716  1.238010
N    -2.609741  -4.129168  0.524766
C    -3.311385  -4.313921  -0.600436
N    -3.726255  -3.273244  -1.335783
N    -3.612708  -5.559272  -0.998509
H    -1.660363  -0.171732  1.562383
H    -0.913280  -1.155092  2.822440
H    -0.252592  -2.874214  1.100209
H    -1.034804  -1.922599  -0.160487
H    -3.269764  -2.208563  1.027397
H    -2.465555  -3.094433  2.310231
H    -2.157711  -4.950407  0.914390
H    -3.350682  -2.344810  -1.198589
H    -3.940399  -5.747203  -1.938366
H    -3.540225  -6.348513  -0.368035
O    1.021512  0.556055  3.843134
H    1.027899  -0.339628  4.226129
Ca    2.279908  2.445380  3.892779
