27
Energy: -35053.5648916 eV PBE+vdW (tier 2 basis)
N    -0.978262  0.414579  0.599524
C    -0.227973  0.498071  1.858434
C    1.214507  0.972860  1.697138
O    1.779973  0.992892  0.540964
H    -0.383258  0.009953  -0.128112
H    -4.020677  -2.089112  -0.727449
H    -0.702924  1.252961  2.505332
C    -0.242357  -0.865892  2.602315
C    -1.479766  -1.119334  3.484708
C    -2.852007  -0.816885  2.865577
N    -3.069099  -1.421957  1.552018
C    -3.791230  -2.506501  1.274088
N    -4.082199  -2.796776  -0.006936
N    -4.231675  -3.326870  2.240682
H    0.639607  -0.944599  3.251468
H    -0.140563  -1.654997  1.841576
H    -1.405091  -0.512663  4.399611
H    -1.439374  -2.168621  3.814094
H    -2.981827  0.265679  2.728215
H    -3.655166  -1.122103  3.548875
H    -2.549640  -0.936302  0.805977
H    -4.470931  -3.694335  -0.267927
H    -4.964960  -4.001703  2.060956
H    -3.893404  -3.254446  3.190699
O    1.881587  1.354519  2.731066
H    -1.232181  1.346024  0.265728
Ca    3.570443  1.803906  1.471869
