27
Energy: -35051.5679845 eV PBE+vdW (tier 2 basis)
N    -0.312574  0.434728  -0.086089
C    -0.791718  0.308304  1.352362
C    0.161152  1.085866  2.237036
O    -0.172764  1.357822  3.435947
H    -0.575717  -0.410642  -0.616213
H    -0.716059  1.249863  -0.566309
H    -1.809149  0.744485  1.416284
C    -0.816894  -1.177030  1.774694
C    -1.746508  -2.072632  0.939354
C    -3.241352  -1.676905  0.947524
N    -3.774473  -1.413537  2.272828
C    -3.689963  -0.184698  2.913618
N    -3.351918  -0.142440  4.152011
N    -3.939175  0.919007  2.062585
H    -1.144946  -1.182586  2.824036
H    0.208495  -1.580260  1.750788
H    -1.636028  -3.088160  1.348043
H    -1.404214  -2.173029  -0.109571
H    -3.814421  -2.489833  0.481068
H    -3.416360  -0.792987  0.318984
H    -3.705261  -2.177460  2.941789
H    -3.514715  0.775355  4.574427
H    -4.080450  1.777409  2.590728
H    -4.725931  0.776033  1.427376
O    1.325581  1.416091  1.792025
H    0.716640  0.537878  -0.096994
Ca    1.796897  2.187592  3.827797
