27
Energy: -35051.4860818 eV PBE+vdW (tier 2 basis)
N    0.135379  -0.208937  0.452095
C    0.022832  0.318821  1.794934
C    0.950216  1.510807  2.002923
O    1.099489  2.097264  3.080701
H    -0.403190  -1.067095  0.345360
H    1.096043  -0.399556  0.173512
H    0.323748  -0.383243  2.605846
C    -1.470472  0.676044  2.038203
C    -1.874131  1.023778  3.482633
C    -1.958792  2.537138  3.728518
N    -2.027660  2.879597  5.165106
C    -0.964910  2.936985  5.954576
N    0.294569  2.724545  5.651178
N    -1.140632  3.312677  7.361727
H    -2.031448  -0.215304  1.728129
H    -1.765560  1.464334  1.330316
H    -1.157890  0.570572  4.185002
H    -2.851560  0.577778  3.710859
H    -2.855648  2.963182  3.263402
H    -1.092408  3.063389  3.310188
H    -2.946977  3.018541  5.578169
H    0.514681  2.414064  4.673354
H    -1.650408  2.582986  7.874114
H    -1.701554  4.166926  7.456889
O    1.630102  1.861401  0.917090
H    2.218411  2.611251  1.140938
Ca    1.307986  3.300644  7.488392
