27
Energy: -35051.5929416 eV PBE+vdW (tier 2 basis)
N    1.468014  -0.944249  1.376092
C    0.460621  -0.114232  2.045324
C    1.021756  0.374182  3.378765
O    1.754244  -0.271620  4.128637
H    2.341650  -0.424117  1.272075
H    1.156827  -1.141105  0.422167
H    0.187975  0.797106  1.487671
C    -0.864867  -0.913677  2.229433
C    -0.701539  -2.355687  2.749143
C    -0.515590  -2.470362  4.264171
N    0.193230  -3.745355  4.624986
C    1.543718  -3.936815  4.097769
N    1.748735  -5.215512  3.808964
N    2.357277  -2.917387  3.949297
H    -1.335854  -0.961064  1.237816
H    -1.559566  -0.337587  2.857511
H    0.177033  -2.777938  2.231737
H    -1.588899  -2.934842  2.441682
H    -1.480987  -2.498634  4.785464
H    0.039827  -1.621102  4.676925
H    0.262974  -3.796653  5.650102
H    2.696419  -5.459807  3.514993
H    2.080838  -1.903270  4.051059
H    3.262477  -3.071744  3.510105
O    0.609178  1.603716  3.665286
H    0.979157  1.879448  4.530630
Ca    -0.317597  -5.921601  3.721734
