27
Energy: -35052.3216865 eV PBE+vdW (tier 2 basis)
N    0.146771  -0.126282  0.314219
C    0.267602  0.081008  1.770183
C    1.593708  -0.509324  2.269008
O    2.153546  -1.427688  1.634575
H    -2.238296  1.464957  -1.929718
H    0.325486  0.774665  -0.141283
H    0.261541  1.155780  2.024170
C    -0.853910  -0.605826  2.604001
C    -2.230818  0.087552  2.579519
C    -3.209089  -0.343150  1.485932
N    -2.750058  0.046377  0.151204
C    -3.552818  0.293480  -0.881959
N    -3.034745  0.844786  -2.003967
N    -4.857946  -0.009679  -0.848008
H    -0.528071  -0.657765  3.653826
H    -0.942401  -1.654629  2.273526
H    -2.107366  1.180997  2.552549
H    -2.730949  -0.133162  3.532517
H    -4.175817  0.142336  1.681143
H    -3.368543  -1.434077  1.534706
H    -1.709033  0.018001  0.013440
H    -3.613051  0.959078  -2.828292
H    -5.504699  0.362719  -1.533340
H    -5.243637  -0.613643  -0.133173
O    2.165929  -0.108874  3.381415
H    1.684407  0.624716  3.811458
Ca    1.442359  -1.763012  -0.398904
