27
Energy: -35050.5486841 eV PBE+vdW (tier 2 basis)
N    0.389959  0.128109  -0.097289
C    -0.331689  0.298323  1.206882
C    0.572142  1.086255  2.142751
O    1.809424  1.099862  1.964406
H    0.039839  -0.735906  -0.529797
H    0.092119  0.869849  -0.742675
H    -1.273995  0.848721  1.056285
C    -0.628866  -1.083761  1.849979
C    -1.697653  -1.919209  1.133065
C    -3.147513  -1.404607  1.315029
N    -4.152887  -2.368990  0.949385
C    -4.404448  -3.501534  1.718831
N    -3.906343  -3.772332  2.886594
N    -5.238344  -4.418446  1.133106
H    -0.939676  -0.924748  2.894384
H    0.321348  -1.642537  1.907813
H    -1.641233  -2.934595  1.552972
H    -1.479746  -2.040410  0.057474
H    -3.330658  -0.499157  0.718103
H    -3.299062  -1.113587  2.368926
H    -4.459029  -2.379463  -0.017113
H    -3.310978  -3.030714  3.258755
H    -5.525034  -5.174682  1.746507
H    -5.932695  -4.119304  0.458094
O    0.100330  1.711594  3.185928
H    -0.874884  1.682069  3.263812
Ca    2.839978  0.286763  0.260476
