27
Energy: -35052.9751917 eV PBE+vdW (tier 2 basis)
N    -0.713407  -0.526030  -0.549174
C    -0.077348  -0.514582  0.789659
C    1.147237  0.094317  0.754504
O    1.631192  0.570671  -0.411894
H    -0.019630  -0.050902  -1.167114
H    -0.884642  -1.475959  -0.912687
H    1.482899  0.052180  3.577063
C    -0.810912  -1.180449  1.907619
C    -1.844549  -0.294020  2.638459
C    -1.232297  0.673691  3.656900
N    -0.828557  -0.000534  4.897654
C    0.408993  -0.198998  5.369118
N    1.493982  -0.020901  4.607632
N    0.558026  -0.584105  6.649777
H    -0.081160  -1.581526  2.626652
H    -1.325729  -2.075915  1.521067
H    -2.586550  -0.926511  3.148976
H    -2.417075  0.303063  1.912302
H    -1.963850  1.444878  3.934237
H    -0.362604  1.199707  3.242979
H    -1.586586  -0.318641  5.494230
H    2.401865  -0.030791  5.054749
H    1.431739  -0.967808  6.987204
H    -0.200672  -0.513210  7.316555
O    1.961632  0.264722  1.804565
H    -1.605562  -0.012947  -0.598947
Ca    3.434883  1.121051  0.484834
