27
Energy: -35053.2889947 eV PBE+vdW (tier 2 basis)
N    0.990142  -1.136465  -0.422386
C    0.760704  -0.327660  0.807635
C    1.898645  -0.625365  1.786250
O    2.503134  -1.706992  1.741093
H    0.081015  -1.324229  -0.862003
H    1.523128  -0.579893  -1.098018
H    0.752618  0.748878  0.573879
C    -0.595627  -0.679930  1.471157
C    -0.804731  -2.158406  1.868169
C    -1.812807  -2.956534  1.037240
N    -1.591814  -3.011013  -0.430383
C    -0.946769  -4.079204  -1.015540
N    0.228409  -4.481255  -0.536691
N    -1.537103  -4.629696  -2.092838
H    -1.382176  -0.350664  0.775848
H    -0.708659  -0.039708  2.356165
H    -1.170135  -2.200699  2.903874
H    0.152761  -2.705115  1.926668
H    -2.807796  -2.513430  1.172317
H    -1.865926  -3.980368  1.431965
H    -2.396114  -2.688302  -0.961810
H    0.438458  -5.419530  -0.892059
H    -1.043530  -5.292743  -2.680269
H    -2.523408  -4.499479  -2.290771
O    2.211368  0.229229  2.730705
H    1.720573  1.073187  2.675652
Ca    2.036723  -3.289523  0.220036
