27
Energy: -35051.6607152 eV PBE+vdW (tier 2 basis)
N    -0.366169  -0.064162  -0.129581
C    -0.078474  -0.041132  1.285127
C    1.422930  0.037061  1.548611
O    1.887733  0.427971  2.633463
H    -1.341483  -0.287819  -0.318133
H    -0.136085  0.805507  -0.606823
H    -0.491524  0.837950  1.829084
C    -0.683732  -1.328150  1.914421
C    -0.423872  -1.663524  3.390279
C    -0.871045  -0.638011  4.440826
N    0.124533  0.441500  4.580698
C    0.220034  1.253024  5.598696
N    -0.533934  1.374497  6.688296
N    1.339074  2.204431  5.634132
H    -0.342939  -2.174774  1.302104
H    -1.770786  -1.251805  1.755068
H    0.633070  -1.915691  3.566168
H    -0.977107  -2.588676  3.603238
H    -0.978191  -1.135391  5.416988
H    -1.847099  -0.198606  4.178676
H    0.848824  0.511065  3.785850
H    -1.357179  0.771259  6.720199
H    1.221086  2.910805  4.897289
H    2.221540  1.731065  5.406005
O    2.194274  -0.342731  0.549982
H    3.133186  -0.271632  0.822791
Ca    0.616639  2.797630  7.875556
