27
Energy: -35052.5251551 eV PBE+vdW (tier 2 basis)
N    -1.612164  0.306186  1.882551
C    -0.737155  -0.837621  2.308475
C    0.498192  -0.349101  3.016910
O    1.414134  -1.187753  3.335234
H    -2.575371  -0.165663  1.622411
H    -1.753931  0.969154  2.653165
H    -1.373602  -1.350368  3.071997
C    -0.452482  -1.801583  1.142460
C    -1.663077  -2.133110  0.244915
C    -2.964457  -2.527540  0.950808
N    -3.744317  -1.343832  1.444364
C    -4.233617  -1.404017  2.789934
N    -3.339421  -1.497242  3.716148
N    -5.578243  -1.250493  2.918122
H    -0.061241  -2.722706  1.593661
H    0.354950  -1.401491  0.510696
H    -1.357202  -2.971222  -0.396258
H    -1.867791  -1.307831  -0.456656
H    -2.767344  -3.175308  1.813854
H    -3.596092  -3.092754  0.253520
H    -4.477954  -1.088062  0.783857
H    -3.740949  -1.620755  4.647553
H    -5.988200  -1.214323  3.844682
H    -6.212047  -1.504139  2.168687
O    0.623441  0.891120  3.345950
H    -1.237938  0.823119  1.078825
Ca    2.530075  0.386273  4.315641
