27
Energy: -35050.9962367 eV PBE+vdW (tier 2 basis)
N    0.013185  0.729457  -0.236310
C    -0.159693  0.465109  1.173796
C    1.082416  -0.172764  1.828913
O    1.733906  -1.067251  1.350488
H    0.657813  1.494418  -0.426854
H    0.314451  -0.095417  -0.756633
H    -0.342940  1.428088  1.672927
C    -1.373716  -0.474841  1.356890
C    -1.686809  -0.929066  2.789116
C    -2.035274  0.223395  3.731635
N    -2.447435  -0.308815  5.051638
C    -2.934831  0.412496  6.044874
N    -3.147108  1.712584  6.093587
N    -3.329491  -0.240550  7.291283
H    -1.194125  -1.377612  0.755317
H    -2.243690  0.027518  0.910335
H    -0.834734  -1.490216  3.205664
H    -2.539784  -1.623818  2.742937
H    -2.870698  0.815626  3.325386
H    -1.168702  0.884454  3.885197
H    -2.331860  -1.311792  5.190970
H    -2.877237  2.236377  5.258950
H    -2.522393  -0.684971  7.745357
H    -4.007196  -0.992841  7.120659
O    1.351620  0.388198  3.050559
H    2.171546  -0.039034  3.374300
Ca    -4.065696  1.974298  8.094142
