27
Energy: -35051.5253676 eV PBE+vdW (tier 2 basis)
N    -1.153635  2.140646  -0.056207
C    -0.495434  1.509482  1.077689
C    0.976891  1.265449  0.759116
O    1.668800  0.354188  1.229730
H    -0.647359  2.959864  -0.390555
H    -2.094300  2.442785  0.195514
H    -0.447991  2.158185  1.987675
C    -1.241567  0.200870  1.446081
C    -1.467987  -0.097013  2.936994
C    -0.221508  -0.243536  3.824723
N    0.790606  -1.117704  3.216182
C    1.201879  -2.303209  3.576030
N    2.126657  -3.059816  2.983984
N    0.669411  -2.989680  4.759781
H    -0.758543  -0.650517  0.944965
H    -2.232585  0.270644  0.980084
H    -2.067935  -1.017199  3.008509
H    -2.079015  0.698227  3.390394
H    -0.500004  -0.603355  4.823429
H    0.272298  0.729186  3.964366
H    1.209505  -0.651217  2.346297
H    2.551267  -2.646502  2.150834
H    0.810735  -2.419952  5.602139
H    -0.347048  -3.110780  4.682416
O    1.489098  2.170752  -0.061338
H    2.439119  1.981725  -0.205577
Ca    2.195663  -4.827008  4.243842
