27
Energy: -35053.157768 eV PBE+vdW (tier 2 basis)
N    -0.167918  0.425137  0.384904
C    -0.011902  -0.113767  1.765461
C    1.359627  -0.797121  1.788550
O    1.765128  -1.383325  0.774688
H    0.389317  1.284247  0.313851
H    -1.133759  0.740142  0.258828
H    -0.073089  0.693503  2.512087
C    -1.035885  -1.242433  2.113684
C    -2.481195  -1.074673  1.609368
C    -3.165621  -2.415323  1.250402
N    -2.317493  -3.346882  0.481690
C    -1.559457  -3.016177  -0.575775
N    -1.626511  -1.932795  -1.314459
N    -0.413654  -3.805729  -0.860694
H    -1.031223  -1.360814  3.205408
H    -0.636050  -2.188792  1.721428
H    -2.532075  -0.411762  0.736106
H    -3.107221  -0.591638  2.370447
H    -4.105075  -2.217654  0.714529
H    -3.436215  -2.957419  2.164238
H    -2.284784  -4.307731  0.809949
H    -2.516837  -1.437575  -1.256234
H    -0.455313  -4.231603  -1.790058
H    -0.175133  -4.513633  -0.164913
O    2.081894  -0.843570  2.882141
H    1.709134  -0.319116  3.618500
Ca    0.613386  -1.391258  -1.189698
