27
Energy: -35051.4790827 eV PBE+vdW (tier 2 basis)
N    -0.190783  1.287464  1.118376
C    0.285493  0.392618  2.143044
C    1.795256  0.132602  2.230922
O    2.358182  -0.298145  3.244273
H    0.195602  2.226097  1.201852
H    0.001097  0.949487  0.175648
H    0.034015  0.845776  3.117223
C    -0.467268  -0.960192  2.008045
C    -0.187798  -2.021611  3.079763
C    -0.668835  -1.619709  4.478109
N    -0.065322  -2.473984  5.569591
C    1.066614  -1.931072  6.311034
N    1.038739  -2.348178  7.570615
N    1.919309  -1.113062  5.736791
H    -0.230816  -1.393600  1.025206
H    -1.536161  -0.704871  1.977147
H    0.889372  -2.246146  3.112333
H    -0.690296  -2.955160  2.783421
H    -1.760984  -1.719387  4.546350
H    -0.428140  -0.576488  4.716483
H    0.254604  -3.349369  5.131831
H    1.845409  -2.092004  8.143226
H    2.662194  -0.703728  6.300704
H    1.933613  -0.835417  4.710782
O    2.458154  0.395119  1.113599
H    3.409036  0.197042  1.244848
Ca    -1.011682  -3.084224  7.724806
