27
Energy: -35052.5900369 eV PBE+vdW (tier 2 basis)
N    1.675096  1.109111  1.148783
C    1.250933  0.443187  2.363251
C    2.333487  -0.566063  2.735405
O    3.374935  -0.676274  2.067566
H    1.000310  1.838736  0.911266
H    -5.250506  -2.970027  -0.111924
H    1.222943  1.137738  3.234182
C    -0.171498  -0.195664  2.325396
C    -0.374024  -1.317492  1.300294
C    -1.839959  -1.760894  1.263257
N    -2.036817  -2.878191  0.330441
C    -3.223578  -3.301871  -0.130824
N    -4.361677  -2.771377  0.332343
N    -3.271134  -4.248386  -1.079592
H    -0.865958  0.632308  2.117088
H    -0.448376  -0.550411  3.333962
H    0.259989  -2.183193  1.557627
H    -0.065715  -0.966634  0.304780
H    -2.470556  -0.921554  0.933502
H    -2.165846  -2.057338  2.274899
H    -1.233277  -3.467267  0.136334
H    -4.385995  -2.231982  1.188119
H    -4.136571  -4.722995  -1.308103
H    -2.446035  -4.521007  -1.598945
O    2.204657  -1.343769  3.796942
H    1.381761  -1.152843  4.286418
Ca    3.651566  0.824615  0.440815
