27
Energy: -35051.1428066 eV PBE+vdW (tier 2 basis)
N    0.025372  0.262911  0.262963
C    0.107778  -0.308731  1.588745
C    1.520577  -0.585438  2.164038
O    1.728164  -1.358947  3.076596
H    0.585193  -0.239930  -0.425112
H    0.293454  1.244530  0.234563
H    -0.322486  0.427403  2.290948
C    -0.722617  -1.603681  1.681945
C    -2.223895  -1.341727  1.553442
C    -3.073000  -2.609959  1.539788
N    -2.881553  -3.379616  2.792757
C    -3.627421  -4.390788  3.194500
N    -4.674723  -4.933834  2.604649
N    -3.329022  -5.050239  4.464934
H    -0.452636  -2.075818  2.641372
H    -0.389846  -2.294703  0.889614
H    -2.418896  -0.807350  0.612770
H    -2.572207  -0.678160  2.361181
H    -2.798014  -3.259547  0.693382
H    -4.140636  -2.358159  1.454875
H    -2.066815  -3.119832  3.349385
H    -4.928324  -4.534343  1.699221
H    -2.396902  -5.481528  4.444326
H    -3.309506  -4.375372  5.238511
O    2.466495  0.152191  1.558743
H    3.321369  -0.034870  1.997764
Ca    -5.300372  -6.475966  4.066293
