27
Energy: -35052.8447473 eV PBE+vdW (tier 2 basis)
N    -0.070213  1.001534  1.637342
C    0.509643  0.000911  2.591338
C    2.017422  0.271597  2.578215
O    2.374436  1.455935  2.682365
H    0.295151  0.827529  0.693975
H    -1.076535  0.833034  1.559320
H    0.252624  0.359206  3.600996
C    -0.071185  -1.411392  2.509187
C    -1.588635  -1.441261  2.822614
C    -2.047950  -0.811821  4.154249
N    -1.932493  0.658688  4.160142
C    -1.293287  1.440749  5.076317
N    -0.693990  2.563165  4.654960
N    -1.240374  1.000019  6.348097
H    0.446388  -2.046002  3.247847
H    0.099187  -1.857193  1.517085
H    -1.904793  -2.493362  2.835272
H    -2.164016  -0.997468  1.992239
H    -1.444406  -1.197363  4.987356
H    -3.088817  -1.108709  4.344064
H    -2.385117  1.170493  3.410265
H    -0.568796  3.203104  5.447090
H    -0.654194  1.464489  7.032570
H    -1.942642  0.363841  6.711321
O    2.918691  -0.674404  2.523020
H    2.534301  -1.567586  2.415559
Ca    0.684781  2.988611  2.853929
