27
Energy: -35051.6447161 eV PBE+vdW (tier 2 basis)
N    0.027514  1.397184  0.756222
C    0.447079  0.562781  1.880130
C    1.972140  0.484527  1.904630
O    2.608627  -0.286991  1.177762
H    0.402042  1.076614  -0.136587
H    0.248188  2.385166  0.873646
H    0.091247  1.052603  2.801827
C    -0.205396  -0.824473  1.769656
C    -0.101451  -1.748660  2.993221
C    1.240009  -2.442054  3.277076
N    1.636917  -3.355290  2.185391
C    2.766973  -3.383590  1.493202
N    3.054510  -4.147953  0.449955
N    3.866542  -2.503460  1.821710
H    0.177081  -1.323904  0.865484
H    -1.269163  -0.629421  1.580231
H    -0.873963  -2.528053  2.902438
H    -0.366130  -1.200542  3.910786
H    1.151809  -3.040420  4.195106
H    2.051172  -1.724111  3.437387
H    0.918896  -4.022840  1.901978
H    2.314272  -4.770285  0.121610
H    3.540830  -1.499014  1.659004
H    4.131720  -2.579893  2.808854
O    2.661355  1.313258  2.695890
H    2.067940  1.884885  3.219947
Ca    5.086813  -3.436879  0.006152
