27
Energy: -35052.541944 eV PBE+vdW (tier 2 basis)
N    2.234393  -1.005813  1.889316
C    1.152562  -0.379409  2.618914
C    1.462042  -0.537877  4.107938
O    2.397122  -1.253717  4.500251
H    2.152386  -0.800873  0.893089
H    -2.811752  1.682165  -2.954296
H    1.102870  0.719340  2.446251
C    -0.264537  -0.983655  2.339573
C    -0.774447  -0.812629  0.899961
C    -1.262496  0.607132  0.571797
N    -1.780944  0.750330  -0.794438
C    -3.065898  0.678315  -1.172735
N    -3.419202  1.092868  -2.397603
N    -4.005655  0.208611  -0.341598
H    -1.009308  -0.562314  3.037642
H    -0.206924  -2.058907  2.559713
H    -1.598435  -1.525505  0.743744
H    0.005763  -1.111309  0.182994
H    -0.450354  1.340229  0.671447
H    -2.049016  0.929469  1.269689
H    -1.104699  0.924332  -1.530919
H    -4.321307  0.856503  -2.794078
H    -4.990455  0.334416  -0.544228
H    -3.768775  -0.334139  0.477936
O    0.740985  0.076983  5.027871
H    0.051202  0.644244  4.635509
Ca    3.767593  -2.036342  2.939411
