27
Energy: -35052.1067552 eV PBE+vdW (tier 2 basis)
N    -1.594962  -0.860040  0.751790
C    -0.616563  -0.671561  1.887602
C    0.443996  0.327849  1.479398
O    0.293340  1.040672  0.415700
H    -2.601668  -1.074836  1.132118
H    -1.631528  -0.001809  0.182144
H    -1.215350  -0.161918  2.674887
C    -0.062386  -2.003699  2.460977
C    -0.323842  -2.210832  3.967532
C    -1.596594  -3.015210  4.329861
N    -2.742683  -2.760069  3.461944
C    -3.270615  -1.516530  3.260527
N    -3.010832  -0.417369  3.878966
N    -4.007830  -1.398421  2.038168
H    1.019034  -2.031288  2.282414
H    -0.490928  -2.839434  1.886607
H    -0.319314  -1.233624  4.469764
H    0.523061  -2.758366  4.401021
H    -1.843492  -2.842663  5.389147
H    -1.386909  -4.087408  4.234818
H    -3.239773  -3.570807  3.109359
H    -2.517531  -0.574251  4.760714
H    -4.658039  -0.612524  2.102370
H    -4.514914  -2.240250  1.760592
O    1.457941  0.516358  2.236241
H    -1.304794  -1.624644  0.129903
Ca    2.122987  2.144117  0.958301
