27
Energy: -35051.7112984 eV PBE+vdW (tier 2 basis)
N    -0.267644  -0.587187  -0.772332
C    -0.794757  -0.141046  0.525178
C    0.369842  0.435552  1.330392
O    0.786363  0.011332  2.411337
H    -1.042562  -0.821253  -1.396417
H    0.237795  0.170921  -1.234035
H    -1.506508  0.706175  0.444629
C    -1.545038  -1.281420  1.241983
C    -0.984931  -2.708919  1.082218
C    0.436749  -2.967358  1.566948
N    0.555236  -2.654465  3.046155
C    1.871955  -2.869392  3.585989
N    2.017523  -4.081120  4.085030
N    2.729773  -1.859601  3.556341
H    -2.565649  -1.301599  0.834664
H    -1.672772  -1.010458  2.301136
H    -1.002244  -2.996849  0.022495
H    -1.689818  -3.400824  1.584875
H    1.158979  -2.363738  0.999349
H    0.725372  -4.021743  1.404459
H    0.322004  -1.641611  3.111587
H    2.943872  -4.324461  4.439390
H    2.440218  -0.966785  3.147549
H    3.653043  -1.925537  3.976629
O    0.896272  1.491669  0.722400
H    1.620374  1.870695  1.261818
Ca    -0.121266  -4.646278  4.107918
