27
Energy: -35051.9145316 eV PBE+vdW (tier 2 basis)
N    0.553307  0.204256  0.101631
C    0.529773  -0.203120  1.516849
C    1.977696  -0.360718  2.040538
O    2.894932  0.287269  1.496356
H    0.612223  -0.657198  -0.456964
H    -1.462912  0.482374  -0.646439
H    0.179818  0.668737  2.106778
C    -0.435774  -1.349949  1.902856
C    -0.312972  -2.678482  1.120838
C    -1.589256  -3.048496  0.344983
N    -1.921074  -2.002022  -0.634314
C    -2.823585  -1.012627  -0.464549
N    -2.456052  0.233341  -0.791385
N    -4.042914  -1.289879  0.010533
H    -1.448575  -0.939343  1.791669
H    -0.368802  -1.539232  2.987688
H    -0.087957  -3.511107  1.800999
H    0.533840  -2.651260  0.414728
H    -2.436634  -3.163815  1.031938
H    -1.463149  -4.002859  -0.181072
H    -1.176446  -1.764566  -1.282692
H    -3.143242  0.965296  -0.936596
H    -4.673664  -0.553853  0.307441
H    -4.423403  -2.227451  -0.061880
O    2.289607  -1.095754  3.081854
H    1.511116  -1.563053  3.443801
Ca    2.345922  1.432041  -0.292416
