27
Energy: -35051.9119187 eV PBE+vdW (tier 2 basis)
N    0.662296  -0.850650  -0.099777
C    0.484174  -0.378861  1.280375
C    1.674864  -0.836818  2.112828
O    2.283094  -1.893975  1.927536
H    -0.163225  -0.591416  -0.642784
H    1.444803  -0.361817  -0.539350
H    0.438768  0.719326  1.369934
C    -0.836601  -0.928741  1.880040
C    -0.949587  -2.424206  2.228950
C    -0.784118  -3.455950  1.104817
N    0.634321  -3.694779  0.793186
C    1.112270  -4.722809  0.150672
N    0.503612  -5.778830  -0.386079
N    2.565602  -4.801697  -0.046298
H    -1.634986  -0.654902  1.172201
H    -1.049354  -0.362203  2.796707
H    -1.960368  -2.572809  2.634027
H    -0.271073  -2.688681  3.055096
H    -1.299742  -3.132488  0.187423
H    -1.227797  -4.410601  1.426037
H    1.311810  -2.937632  1.091734
H    -0.515138  -5.776300  -0.321111
H    2.871799  -4.027284  -0.649055
H    3.055488  -4.648707  0.843531
O    1.972746  0.010430  3.089236
H    2.713766  -0.347585  3.621030
Ca    2.197391  -6.978166  -1.044778
