27
Energy: -35053.661 eV PBE+vdW (tier 2 basis)
N    0.036517  1.034262  1.588094
C    0.636057  0.040961  2.480122
C    2.010991  -0.468903  2.055720
O    2.732221  -1.125199  2.897709
H    -2.636053  3.339818  2.101550
H    0.674751  1.820571  1.450318
H    0.799596  0.517496  3.460046
C    -0.289973  -1.192506  2.678978
C    -1.768376  -0.836933  2.879108
C    -2.042618  0.094858  4.072116
N    -3.323276  0.794797  3.971906
C    -3.512688  1.920910  3.266884
N    -2.538219  2.410936  2.493098
N    -4.689194  2.563239  3.356864
H    0.095765  -1.773543  3.527571
H    -0.218350  -1.844885  1.795091
H    -2.333378  -1.770880  3.005770
H    -2.160236  -0.375266  1.962516
H    -1.262061  0.861146  4.176985
H    -2.051648  -0.463737  5.015822
H    -4.138813  0.363558  4.393250
H    -1.689580  1.875344  2.233780
H    -4.931280  3.311545  2.719769
H    -5.360200  2.340654  4.081658
O    2.457534  -0.266446  0.865990
H    -0.116982  0.635849  0.658003
Ca    4.268814  -1.342795  1.400979
