27
Energy: -35050.553486 eV PBE+vdW (tier 2 basis)
N    -0.816164  -0.498113  0.239382
C    -0.105285  0.565868  1.029914
C    1.204559  0.886165  0.307447
O    1.404953  0.488639  -0.859657
H    -0.628122  -1.397685  0.704103
H    -1.825320  -0.361206  0.362799
H    -0.704379  1.489277  0.935860
C    0.053472  0.237906  2.527593
C    0.876575  -1.019602  2.832089
C    1.124647  -1.198913  4.337339
N    1.875374  -2.422930  4.571055
C    2.110358  -2.904647  5.871911
N    3.315773  -3.281060  6.126144
N    1.018904  -2.903967  6.712886
H    -0.956291  0.157971  2.957978
H    0.490191  1.114733  3.038024
H    1.851395  -0.975244  2.315087
H    0.370415  -1.930766  2.469859
H    0.164201  -1.251388  4.867303
H    1.650316  -0.304987  4.728979
H    2.774397  -2.452769  4.088494
H    3.433254  -3.693078  7.055742
H    1.163667  -3.303122  7.633946
H    0.105415  -3.108078  6.319901
O    2.119403  1.629850  0.862721
H    1.899687  1.895434  1.779494
Ca    0.032958  -0.639462  -2.075518
