27
Energy: -35051.3012185 eV PBE+vdW (tier 2 basis)
N    0.262147  -0.812378  -0.038026
C    -0.047880  -0.310727  1.367571
C    1.266400  0.145558  2.000581
O    1.269056  0.522559  3.213661
H    0.486923  -1.817772  -0.029685
H    -0.539810  -0.679786  -0.669070
H    -0.668446  0.590872  1.237461
C    -0.825723  -1.352790  2.177838
C    -2.166986  -1.731078  1.537006
C    -3.127300  -2.441373  2.528490
N    -4.475852  -2.537918  2.033086
C    -5.269160  -1.409339  1.849754
N    -5.015880  -0.212721  2.283593
N    -6.393589  -1.616532  1.086392
H    -0.996101  -0.898802  3.165387
H    -0.191337  -2.237752  2.354041
H    -2.026637  -2.386105  0.661477
H    -2.679997  -0.819715  1.186537
H    -3.126223  -1.893913  3.485570
H    -2.771411  -3.454798  2.754786
H    -4.717693  -3.373629  1.512393
H    -4.183384  -0.178381  2.874791
H    -7.056902  -0.848870  1.119269
H    -6.817151  -2.537571  1.068323
O    2.336717  0.170834  1.291631
H    1.089072  -0.315609  -0.410789
Ca    3.408750  1.036197  3.077231
