27
Energy: -35051.6130389 eV PBE+vdW (tier 2 basis)
N    0.203056  -0.126114  0.372419
C    0.295220  -0.285998  1.817052
C    1.654755  -0.835962  2.226763
O    1.877231  -1.534844  3.217643
H    1.044623  0.291846  -0.021511
H    -0.579572  0.480268  0.127039
H    0.270039  0.680314  2.373661
C    -0.904613  -1.109890  2.336355
C    -1.124461  -2.460344  1.634409
C    -0.397377  -3.673691  2.217767
N    -0.940704  -4.119786  3.523922
C    -0.424461  -3.872050  4.718525
N    0.609664  -3.132099  5.046647
N    -1.021295  -4.528192  5.888553
H    -1.793229  -0.487850  2.159667
H    -0.840810  -1.206885  3.430380
H    -0.798098  -2.358143  0.588058
H    -2.199681  -2.687236  1.590085
H    0.675872  -3.499097  2.350989
H    -0.507110  -4.534426  1.545088
H    -1.806183  -4.654880  3.487249
H    1.038196  -2.535116  4.293839
H    -1.222415  -5.518823  5.713397
H    -1.920306  -4.093339  6.128464
O    2.635337  -0.415373  1.430716
H    3.492966  -0.741003  1.772192
Ca    0.924606  -3.687629  7.122889
