27
Energy: -35053.0875586 eV PBE+vdW (tier 2 basis)
N    -0.050988  0.194917  0.658217
C    -0.636090  -0.179818  2.016396
C    0.284189  0.480060  3.064429
O    0.547634  1.716500  2.856834
H    0.268940  1.178935  0.709252
H    0.758320  -0.396174  0.416653
H    -1.559434  0.415237  2.084147
C    -0.948550  -1.670911  2.092124
C    -1.608306  -2.213761  3.385050
C    -2.805885  -1.462812  4.022584
N    -2.394856  -0.584459  5.130286
C    -2.146296  0.739971  5.102013
N    -1.347154  1.369931  5.968211
N    -2.668880  1.482741  4.072501
H    -0.025926  -2.251001  1.934045
H    -1.612769  -1.902503  1.243405
H    -0.836014  -2.343121  4.153595
H    -1.951462  -3.226123  3.134030
H    -3.502308  -2.199914  4.440678
H    -3.389007  -0.895323  3.286081
H    -1.928780  -1.079336  5.885933
H    -1.191219  0.786523  6.797534
H    -2.738113  2.474057  4.286201
H    -3.513348  1.127725  3.633383
O    0.624396  -0.128083  4.111930
H    -0.739042  0.103006  -0.101740
Ca    0.714698  1.942854  5.131697
