27
Energy: -35051.0122188 eV PBE+vdW (tier 2 basis)
N    -0.027546  0.321112  -0.541002
C    -0.507598  0.270307  0.824868
C    0.315719  0.996402  1.915932
O    -0.108361  1.174512  3.036173
H    -0.028785  1.269405  -0.914333
H    0.925562  -0.035166  -0.625719
H    -1.481208  0.785933  0.859840
C    -0.685526  -1.192978  1.290416
C    -1.596169  -2.036369  0.388775
C    -3.050955  -1.562272  0.408615
N    -3.888841  -2.404262  -0.473547
C    -5.005878  -3.057909  -0.203751
N    -5.706010  -3.850151  -0.998798
N    -5.640451  -2.945585  1.104399
H    -1.048280  -1.189210  2.328051
H    0.301793  -1.678743  1.312103
H    -1.552447  -3.086718  0.712749
H    -1.217878  -1.986690  -0.644007
H    -3.135421  -0.528343  0.044469
H    -3.460655  -1.591061  1.426641
H    -3.518300  -2.517865  -1.418790
H    -5.321296  -4.003486  -1.933128
H    -5.782764  -1.963223  1.366405
H    -5.038474  -3.341309  1.836860
O    1.531029  1.378757  1.479895
H    1.990852  1.818819  2.224131
Ca    -7.472841  -4.351857  0.228882
