27
Energy: -35052.1914319 eV PBE+vdW (tier 2 basis)
N    -0.116253  0.541999  -0.498457
C    0.034365  0.121997  0.944542
C    1.354992  -0.674382  1.096561
O    2.304681  -0.304907  0.276926
H    -0.547639  -0.234575  -1.015478
H    -0.818056  1.288983  -0.544441
H    0.210254  1.054385  1.507979
C    -1.190654  -0.561474  1.558184
C    -1.531837  -1.978472  1.029224
C    -1.648627  -3.044383  2.116505
N    -0.302341  -3.414186  2.708428
C    0.363188  -4.627646  2.081505
N    -0.191675  -5.073580  1.039290
N    1.429157  -5.018429  2.824081
H    -2.055983  0.105086  1.434820
H    -1.017216  -0.585699  2.644083
H    -0.807966  -2.332213  0.277657
H    -2.501572  -1.963399  0.515095
H    -2.067478  -3.970093  1.710575
H    -2.270259  -2.695483  2.950343
H    -0.404738  -3.594511  3.714815
H    0.269576  -5.886257  0.624511
H    1.990695  -5.796749  2.496579
H    1.879475  -4.405613  3.495147
O    1.488809  -1.542259  1.955778
H    0.367121  -2.595492  2.577971
Ca    2.148668  0.954610  -1.323849
