27
Energy: -35051.6714704 eV PBE+vdW (tier 2 basis)
N    0.836455  -0.677433  -0.059292
C    0.340297  -0.001587  1.143754
C    1.526549  0.493174  1.961820
O    2.631734  -0.044546  2.020799
H    1.327451  -0.007981  -0.654776
H    0.038350  -0.998166  -0.612060
H    -0.270909  0.892937  0.936048
C    -0.567404  -0.955786  1.975538
C    -0.030624  -2.382653  2.169820
C    0.980405  -2.539724  3.321081
N    1.883035  -3.690970  3.114881
C    2.953012  -3.658275  2.330010
N    3.453382  -2.656571  1.650041
N    3.742568  -4.887144  2.166317
H    -1.519582  -1.024760  1.430759
H    -0.815333  -0.477874  2.934214
H    0.444096  -2.699545  1.230536
H    -0.874678  -3.062644  2.344679
H    0.476642  -2.705355  4.280322
H    1.614860  -1.655175  3.442625
H    1.622275  -4.579054  3.536514
H    2.981139  -1.717149  1.694069
H    4.063401  -5.245109  3.073496
H    3.176390  -5.637655  1.753512
O    1.226278  1.595810  2.646816
H    2.003315  1.868890  3.176878
Ca    5.216995  -3.542724  0.746283
