27
Energy: -35051.654598 eV PBE+vdW (tier 2 basis)
N    0.199470  -0.301149  -0.002513
C    0.027962  -0.148757  1.442827
C    1.398126  -0.189435  2.112454
O    1.722333  -0.893921  3.074590
H    0.866767  0.376417  -0.371753
H    -0.686825  -0.128781  -0.478986
H    -0.372053  0.844764  1.745581
C    -0.944725  -1.206094  1.985108
C    -0.594934  -2.667694  1.614549
C    -0.536694  -3.615096  2.811807
N    0.546241  -3.189028  3.723260
C    1.038311  -3.839510  4.744360
N    2.032460  -3.469718  5.550412
N    0.505853  -5.144987  5.147277
H    -1.938986  -0.956885  1.590974
H    -1.032951  -1.073266  3.074394
H    0.355613  -2.707096  1.063164
H    -1.341117  -3.074733  0.921413
H    -0.347002  -4.643435  2.468842
H    -1.493431  -3.607953  3.359609
H    0.978306  -2.239902  3.490856
H    2.458565  -2.569544  5.316970
H    0.613781  -5.825476  4.385066
H    -0.507059  -5.087724  5.307737
O    2.241603  0.678590  1.566394
H    3.102164  0.640659  2.031375
Ca    2.120310  -5.104784  6.977686
