27
Energy: -35051.4865169 eV PBE+vdW (tier 2 basis)
N    0.394896  0.491411  0.568317
C    0.376616  -0.134525  1.873023
C    1.337562  -1.316358  1.935636
O    1.564975  -1.975761  2.956061
H    -0.164665  1.342688  0.558399
H    1.332556  0.723363  0.246106
H    0.714525  0.513873  2.713528
C    -1.091693  -0.542700  2.179831
C    -1.398166  -1.003306  3.616435
C    -1.438754  -2.532050  3.754864
N    -1.410892  -2.978897  5.163813
C    -0.299737  -3.068809  5.880227
N    0.933988  -2.805954  5.516465
N    -0.379433  -3.549988  7.263641
H    -1.415734  -1.284157  1.434979
H    -1.687172  0.355699  1.970972
H    -2.367756  -0.597943  3.935721
H    -0.648350  -0.585522  4.305615
H    -0.590491  -3.006232  3.246783
H    -2.354814  -2.944170  3.315336
H    -2.299772  -3.167547  5.621400
H    1.086335  -2.419541  4.552863
H    -0.920967  -4.419292  7.330450
H    -0.865400  -2.869416  7.859932
O    1.954984  -1.571131  0.787561
H    2.570444  -2.321030  0.919225
Ca    2.072120  -3.497189  7.237021
