27
Energy: -35051.6102301 eV PBE+vdW (tier 2 basis)
N    -1.188145  1.248747  1.972653
C    -0.313460  0.610894  2.960707
C    1.043451  1.303688  2.825646
O    2.109243  0.780041  2.484450
H    -2.110319  0.811647  1.983555
H    -1.324861  2.237889  2.182113
H    -0.628050  0.765322  4.015484
C    -0.246950  -0.893638  2.677517
C    0.551748  -1.730250  3.704789
C    1.592986  -2.649385  3.065439
N    2.593213  -1.823149  2.358283
C    3.675105  -2.223208  1.744158
N    4.584635  -1.478430  1.118263
N    4.031355  -3.643900  1.669515
H    0.137936  -1.027453  1.654575
H    -1.281910  -1.258906  2.644915
H    -0.123837  -2.364662  4.291813
H    1.058946  -1.086210  4.439127
H    1.110445  -3.334061  2.349252
H    2.091378  -3.255067  3.837583
H    2.383263  -0.772826  2.365054
H    4.399388  -0.472614  1.136994
H    3.267465  -4.185197  1.246868
H    4.142420  -4.035910  2.612580
O    0.961004  2.596347  3.113081
H    1.833381  3.021365  2.983073
Ca    5.986896  -2.961806  0.374891
