27
Energy: -35051.9686365 eV PBE+vdW (tier 2 basis)
N    -0.884676  0.394259  1.022245
C    -0.067865  -0.457800  1.947869
C    1.284701  -0.648032  1.255013
O    1.535036  -0.197239  0.153700
H    -1.742654  0.717285  1.480387
H    -0.343570  1.210478  0.715669
H    0.106538  0.104199  2.876955
C    -0.794903  -1.770110  2.300026
C    -0.948121  -2.837617  1.202605
C    -1.898965  -2.518576  0.034154
N    -1.376377  -1.439241  -0.800652
C    -1.076028  -1.548884  -2.050540
N    -0.446861  -0.644991  -2.831083
N    -1.417521  -2.729278  -2.899754
H    -1.781275  -1.511893  2.719002
H    -0.233415  -2.213795  3.132862
H    -1.334006  -3.742959  1.692509
H    0.039424  -3.112404  0.799972
H    -2.880361  -2.208494  0.429351
H    -2.074662  -3.446428  -0.531621
H    -1.122574  -0.259798  0.111882
H    -0.079080  0.153234  -2.312027
H    -0.861835  -3.541678  -2.609827
H    -2.393934  -3.006868  -2.757082
O    2.120496  -1.349869  2.024032
H    2.990375  -1.411865  1.578524
Ca    -0.615436  -1.481446  -4.799633
