27
Energy: -35053.2642581 eV PBE+vdW (tier 2 basis)
N    -0.451551  -0.003552  1.106837
C    0.124533  -0.083176  2.480249
C    1.395027  -0.931064  2.369981
O    1.420451  -1.893765  1.590661
H    -1.376641  0.430248  1.174607
H    0.102490  0.668820  0.563786
H    0.348209  0.924086  2.864606
C    -0.798191  -0.834224  3.494222
C    -2.328316  -0.678470  3.339302
C    -3.029206  -1.957101  2.866991
N    -2.652840  -2.337178  1.475049
C    -2.770645  -3.707049  1.052945
N    -1.937603  -4.015116  0.091839
N    -3.632990  -4.513630  1.679778
H    -0.495726  -0.499153  4.494005
H    -0.556434  -1.908306  3.467162
H    -2.613805  0.175813  2.705059
H    -2.756529  -0.433311  4.320325
H    -4.118744  -1.827240  2.956552
H    -2.736422  -2.785513  3.525985
H    -3.171316  -1.755896  0.808967
H    -2.071180  -4.944457  -0.312410
H    -3.675480  -5.504306  1.459096
H    -4.350926  -4.158535  2.301737
O    2.432553  -0.706963  3.139669
H    2.342577  0.092610  3.695170
Ca    -0.336506  -2.349767  0.223150
