27
Energy: -35053.6603479 eV PBE+vdW (tier 2 basis)
N    -1.232174  -0.528583  -0.149928
C    -1.213161  -0.072273  1.302345
C    0.102340  0.697044  1.494195
O    0.308057  1.261641  2.602248
H    -1.988955  -0.096577  -0.694039
H    -0.309192  -0.225492  -0.541504
H    -2.027482  0.654025  1.425733
C    -1.436421  -1.218742  2.309144
C    -0.618753  -2.515391  2.167516
C    0.911073  -2.450340  2.309604
N    1.353815  -1.912146  3.593422
C    2.259199  -0.917729  3.737624
N    3.046083  -0.460192  2.763260
N    2.303914  -0.262420  4.931612
H    -2.502109  -1.486275  2.278292
H    -1.275766  -0.766752  3.297815
H    -0.825438  -3.022577  1.208662
H    -1.020864  -3.215782  2.915082
H    1.350798  -1.821975  1.524412
H    1.318682  -3.461648  2.164817
H    1.003938  -2.364621  4.434025
H    3.230528  -1.174593  2.055685
H    3.214787  0.048657  5.253365
H    1.628598  -0.469135  5.660298
O    0.942096  0.713732  0.528805
H    -1.319510  -1.549237  -0.237985
Ca    2.483439  1.610243  2.066904
