27
Energy: -35053.793277 eV PBE+vdW (tier 2 basis)
N    1.334306  -0.030887  1.676386
C    -0.116998  -0.325983  2.038470
C    -0.069988  -1.119479  3.348018
O    -1.138464  -1.305159  3.989996
H    1.518494  -0.126067  0.669546
H    1.620139  0.914528  1.962746
H    -0.628494  0.632152  2.186370
C    -0.819892  -1.144512  0.935622
C    -0.415316  -2.634416  0.844862
C    -1.413331  -3.569757  1.559638
N    -0.924349  -4.933879  1.684438
C    -0.738923  -5.622381  2.837444
N    -0.639840  -5.011348  4.024563
N    -0.644154  -6.964996  2.718329
H    -0.654446  -0.629823  -0.022588
H    -1.899109  -1.050787  1.122386
H    0.593034  -2.809455  1.250863
H    -0.361977  -2.923438  -0.213093
H    -2.361270  -3.581145  0.999655
H    -1.668357  -3.209896  2.561510
H    -0.880091  -5.476609  0.827806
H    -0.712940  -5.737278  4.745232
H    -0.319645  -7.536133  3.488052
H    -0.904633  -7.453073  1.869702
O    1.044723  -1.667012  3.666432
H    1.906183  -0.718166  2.215372
Ca    -0.161585  -3.054347  5.068200
