27
Energy: -35053.239267 eV PBE+vdW (tier 2 basis)
N    -0.684801  -1.179272  0.024230
C    -0.340982  -0.579353  1.343544
C    1.185558  -0.463071  1.391928
O    1.891843  -1.257595  0.755818
H    -1.646780  -1.527955  0.076897
H    -0.722932  -0.427097  -0.672462
H    -0.803265  0.415841  1.448868
C    -0.768054  -1.461461  2.550825
C    -2.233088  -1.972572  2.566528
C    -2.442859  -3.480004  2.335876
N    -2.293975  -3.928210  0.938260
C    -1.128210  -4.250941  0.349319
N    0.061316  -4.353283  0.893386
N    -1.097384  -4.317608  -1.066065
H    -0.598612  -0.852280  3.448612
H    -0.073604  -2.307106  2.641393
H    -2.874388  -1.398042  1.878813
H    -2.646956  -1.765923  3.562962
H    -3.464294  -3.746117  2.632115
H    -1.782004  -4.071680  2.985752
H    -3.153026  -4.126486  0.432087
H    0.060892  -4.463564  1.908107
H    -0.766890  -5.226677  -1.399710
H    -1.964162  -4.068776  -1.543867
O    1.770289  0.431029  2.152359
H    1.146719  1.044862  2.588600
Ca    1.095582  -2.904093  -0.552729
