27
Energy: -35053.4666514 eV PBE+vdW (tier 2 basis)
N    0.327821  -0.559139  0.040856
C    0.215776  -0.248103  1.499052
C    1.497059  0.473632  1.917782
O    2.166569  1.110703  1.092301
H    0.876143  -1.421344  -0.062652
H    -0.603258  -0.816169  -0.301963
H    0.115640  -1.176632  2.084749
C    -1.013826  0.642017  1.822337
C    -1.063114  2.051820  1.205209
C    -1.624302  2.123956  -0.230360
N    -1.590710  3.457336  -0.797582
C    -0.551909  3.978856  -1.494132
N    0.569011  3.270325  -1.676704
N    -0.712363  5.222409  -1.987460
H    -1.061983  0.735631  2.916333
H    -1.913388  0.066961  1.549953
H    -0.081310  2.549855  1.257125
H    -1.714741  2.668551  1.839407
H    -2.669736  1.785563  -0.234118
H    -1.107618  1.447406  -0.932427
H    -2.408586  4.040179  -0.659408
H    1.192854  3.812317  -2.282509
H    -1.584151  5.731889  -1.904809
H    0.036438  5.690511  -2.481636
O    1.876365  0.482182  3.173219
H    1.324984  -0.077579  3.755424
Ca    1.585287  1.348868  -1.054416
