27
Energy: -35051.3584642 eV PBE+vdW (tier 2 basis)
N    0.351529  -0.344374  0.028647
C    -0.103324  -0.127703  1.387922
C    1.042899  -0.248503  2.383775
O    0.907602  -0.405495  3.601142
H    -0.359673  -0.065525  -0.645960
H    1.205288  0.167154  -0.187297
H    -0.491817  0.900523  1.585765
C    -1.255869  -1.119504  1.675577
C    -2.030791  -0.902215  2.993938
C    -1.804792  -2.032236  4.001627
N    -2.348551  -1.704813  5.370223
C    -1.473052  -1.075076  6.337208
N    -1.923776  -1.272399  7.571918
N    -0.372352  -0.468214  5.951535
H    -0.855742  -2.141582  1.605020
H    -1.951136  -1.023283  0.832536
H    -3.109181  -0.833936  2.783164
H    -1.745236  0.062279  3.440057
H    -0.741195  -2.273758  4.114486
H    -2.311823  -2.946770  3.665241
H    -3.145536  -1.066129  5.237316
H    -1.430550  -0.770413  8.312628
H    0.274913  -0.116644  6.653836
H    -0.043885  -0.399254  4.954890
O    2.240017  -0.116572  1.827618
H    2.927337  -0.152595  2.524349
Ca    -3.132823  -3.062693  7.249206
