27
Energy: -35049.6514382 eV PBE+vdW (tier 2 basis)
N    -0.150876  -0.820041  -0.029894
C    -0.034317  -0.220010  1.292873
C    1.420427  -0.356939  1.726008
O    1.910641  -1.423929  2.189805
H    0.347028  -0.341465  -0.778520
H    0.031971  -1.821673  -0.054046
H    -0.250725  0.856693  1.191500
C    -1.012707  -0.828110  2.309615
C    -2.460742  -0.323812  2.187635
C    -3.240069  -0.790062  0.949506
N    -4.619556  -0.344348  1.029565
C    -5.394374  0.108702  -0.014578
N    -6.505448  0.779772  0.113005
N    -4.916246  -0.105225  -1.283681
H    -0.657899  -0.578986  3.321273
H    -0.976165  -1.926643  2.230682
H    -2.477571  0.776160  2.231472
H    -2.992210  -0.670653  3.087621
H    -3.181484  -1.891851  0.864705
H    -2.803204  -0.374777  0.031769
H    -5.054860  -0.300153  1.944904
H    -6.779784  0.928786  1.088983
H    -4.435702  -0.971724  -1.497562
H    -5.546519  0.227195  -2.008129
O    2.277836  0.625432  1.530064
H    1.843895  1.441535  1.207186
Ca    3.481117  -2.558862  3.041131
