27
Energy: -35051.0854127 eV PBE+vdW (tier 2 basis)
N    0.416177  -1.630531  0.178990
C    0.185888  -0.803118  1.343491
C    1.382262  -0.525788  2.285749
O    1.350324  0.337194  3.135120
H    1.053360  -1.199601  -0.488971
H    0.794897  -2.546575  0.422212
H    -0.097126  0.202411  0.992000
C    -0.955911  -1.389037  2.205375
C    -2.312616  -1.426366  1.489588
C    -2.971843  -0.049639  1.422222
N    -4.257782  -0.129923  0.693674
C    -5.176438  0.819370  0.664664
N    -5.154120  2.006139  1.237463
N    -6.422371  0.601466  -0.066630
H    -1.023910  -0.823743  3.145661
H    -0.685864  -2.418453  2.483115
H    -2.983282  -2.116465  2.022648
H    -2.159717  -1.817460  0.470372
H    -2.329308  0.679911  0.905176
H    -3.176487  0.327878  2.436338
H    -4.424493  -0.986588  0.167363
H    -4.300884  2.233428  1.751478
H    -6.242710  0.473390  -1.069768
H    -6.894984  -0.254171  0.247584
O    2.422665  -1.349307  2.059911
H    3.129426  -1.122209  2.698588
Ca    -7.150866  2.825726  0.725715
