27
Energy: -35051.8994235 eV PBE+vdW (tier 2 basis)
N    -0.381032  0.734791  0.732055
C    -0.496546  0.204815  2.099104
C    0.832208  0.555507  2.799416
O    1.020933  0.395518  4.015263
H    -0.933264  1.578669  0.584070
H    -0.632139  0.060284  0.010460
H    -1.303383  0.700858  2.661454
C    -0.757186  -1.321639  2.072037
C    -1.105930  -2.068518  3.377977
C    0.050740  -2.514433  4.291912
N    0.192828  -1.610308  5.505704
C    1.444385  -1.802111  6.206762
N    1.331803  -2.642822  7.220159
N    2.497238  -1.114911  5.796370
H    0.089462  -1.824731  1.577620
H    -1.619440  -1.458499  1.403707
H    -1.634411  -2.980165  3.067585
H    -1.841773  -1.488752  3.960577
H    1.004192  -2.533871  3.744098
H    -0.111517  -3.546095  4.648165
H    0.208729  -0.645622  5.085812
H    2.188944  -2.854759  7.733789
H    2.377933  -0.433636  5.030027
H    3.390354  -1.165284  6.279682
O    1.751149  1.015089  2.002755
H    1.242067  1.065795  1.105194
Ca    -0.859935  -2.614178  7.372432
