27
Energy: -35051.9288211 eV PBE+vdW (tier 2 basis)
N    0.206175  0.969758  0.529196
C    0.043862  0.228297  1.838004
C    1.477941  -0.109194  2.276186
O    2.440196  0.197082  1.597091
H    -0.222964  1.898264  0.558907
H    1.239338  1.069576  0.402902
H    -0.371984  0.930173  2.573560
C    -0.899522  -0.978472  1.711845
C    -0.389717  -2.202090  0.929429
C    0.215011  -1.939523  -0.463057
N    -0.561185  -0.978991  -1.254720
C    -1.231099  -1.378887  -2.282081
N    -1.435044  -2.588061  -2.857267
N    -1.938113  -0.358179  -3.101135
H    -1.844604  -0.612633  1.283451
H    -1.143748  -1.298444  2.733213
H    -1.238389  -2.894331  0.835247
H    0.367987  -2.735455  1.521707
H    0.358107  -2.904155  -0.974662
H    1.228906  -1.521266  -0.357810
H    -0.197186  0.394991  -0.294638
H    -1.026458  -3.372873  -2.349776
H    -1.320517  0.445903  -3.247851
H    -2.734950  0.008939  -2.569553
O    1.501775  -0.743229  3.443340
H    2.432233  -0.909321  3.703714
Ca    -2.398321  -2.087439  -4.708311
