27
Energy: -35052.180765 eV PBE+vdW (tier 2 basis)
N    -0.208412  -0.960352  0.606299
C    -0.448577  -0.208221  1.852973
C    0.826939  0.332245  2.500530
O    0.734446  1.190813  3.453050
H    0.268419  -0.356303  -0.069142
H    -1.568432  -1.663986  -0.335938
H    -1.049262  0.680391  1.600319
C    -1.247755  -1.021871  2.898049
C    -2.647473  -1.429315  2.406222
C    -2.718026  -2.829170  1.755495
N    -3.749685  -2.947840  0.720467
C    -3.687862  -2.299602  -0.478076
N    -4.536191  -1.862108  -1.307035
N    -2.271673  -2.164692  -0.990421
H    -1.339852  -0.394955  3.793448
H    -0.666917  -1.909017  3.200757
H    -3.012485  -0.677331  1.688995
H    -3.350992  -1.392980  3.247931
H    -2.929885  -3.598623  2.507212
H    -1.748772  -3.113861  1.321892
H    -4.697119  -3.110243  1.052438
H    -5.512534  -1.915937  -1.005217
H    -2.376701  -1.640320  -1.870422
H    -1.889228  -3.093335  -1.217520
O    1.988255  -0.062331  2.113416
H    0.454864  -1.719531  0.792112
Ca    2.887283  1.268201  3.599030
