27
Energy: -35052.1002766 eV PBE+vdW (tier 2 basis)
N    -0.804487  0.303665  -0.123961
C    -0.541128  0.291118  1.322293
C    0.972171  0.495576  1.475510
O    1.510455  0.786323  2.554312
H    -1.135574  1.210230  -0.455462
H    -1.484690  -0.399484  -0.411188
H    -1.045648  1.103937  1.865462
C    -0.977883  -1.069476  1.932891
C    -0.436780  -1.392280  3.338717
C    0.891840  -2.179508  3.305769
N    1.682553  -1.990672  4.535629
C    2.767332  -1.239766  4.697178
N    3.356067  -0.918529  5.840054
N    3.443349  -0.651553  3.566187
H    -0.699686  -1.871619  1.229608
H    -2.075121  -1.057777  1.965430
H    -1.184278  -1.985260  3.881408
H    -0.295632  -0.463576  3.907274
H    1.515433  -1.885350  2.455097
H    0.705644  -3.256086  3.197353
H    1.272476  -2.377277  5.385666
H    2.909722  -1.254253  6.694994
H    2.757854  0.016099  3.045734
H    3.707144  -1.364996  2.877885
O    1.648580  0.265958  0.377326
H    0.878404  0.140602  -0.305983
Ca    4.984022  0.340527  5.065800
