27
Energy: -35053.5512138 eV PBE+vdW (tier 2 basis)
N    -0.222979  0.199646  -0.051785
C    -0.009948  -0.119131  1.424044
C    1.447423  -0.592384  1.546065
O    1.952702  -0.683139  2.696219
H    -0.145837  1.207025  -0.243732
H    -1.132044  -0.119520  -0.409219
H    -0.145950  0.809419  1.991041
C    -0.986995  -1.191003  1.944594
C    -0.896482  -2.581372  1.264877
C    -0.715851  -3.777586  2.226799
N    0.464142  -3.697085  3.096070
C    1.756282  -3.830849  2.741738
N    2.821689  -3.609006  3.474604
N    2.084558  -4.084396  1.387924
H    -2.008821  -0.791043  1.880253
H    -0.773062  -1.261259  3.019872
H    -0.084083  -2.590865  0.520871
H    -1.813117  -2.782609  0.693593
H    -0.692339  -4.716135  1.653631
H    -1.582676  -3.859140  2.893676
H    0.307780  -3.398296  4.054015
H    2.643525  -3.502285  4.475526
H    2.701591  -4.895836  1.311965
H    1.307577  -4.180209  0.737621
O    2.045657  -0.961528  0.479177
H    0.556483  -0.285390  -0.552725
Ca    3.616018  -2.051490  1.931015
