27
Energy: -35051.1494727 eV PBE+vdW (tier 2 basis)
N    0.906731  -0.403421  0.098687
C    0.035551  -0.662758  1.317420
C    0.958227  -0.950901  2.496310
O    0.477156  -0.967687  3.672412
H    0.409796  -0.701789  -0.756117
H    1.163058  0.586882  -0.008485
H    -0.537871  0.251252  1.520222
C    -0.904885  -1.855483  1.045147
C    -1.902993  -1.647476  -0.102731
C    -3.035420  -0.637419  0.187940
N    -4.075596  -0.633615  -0.824939
C    -4.796766  -1.788102  -1.168075
N    -5.194701  -2.116428  -2.342459
N    -5.036907  -2.641098  -0.092431
H    -1.453300  -2.039709  1.980381
H    -0.291410  -2.752787  0.862107
H    -2.367599  -2.625672  -0.294977
H    -1.404408  -1.385567  -1.056535
H    -2.657977  0.394104  0.260434
H    -3.467476  -0.870897  1.173437
H    -3.933397  -0.001339  -1.605306
H    -4.887979  -1.474942  -3.078471
H    -5.618838  -3.424008  -0.384003
H    -5.407722  -2.191831  0.742241
O    2.195948  -1.216167  2.277816
H    1.784733  -0.943357  0.199424
Ca    2.443284  -1.530281  4.494871
