27
Energy: -35051.0247787 eV PBE+vdW (tier 2 basis)
N    -0.483504  -0.041875  -0.278355
C    -0.804654  0.105778  1.126517
C    0.266660  0.963809  1.803154
O    1.173822  1.508131  1.219573
H    -1.287222  0.076796  -0.889188
H    0.259234  0.603659  -0.552923
H    -1.759667  0.636366  1.290773
C    -0.938013  -1.284570  1.810857
C    0.358019  -2.091214  1.688926
C    0.235806  -3.558354  2.080940
N    -0.106267  -3.688691  3.523190
C    0.062097  -4.733296  4.311676
N    -0.215152  -4.857583  5.599476
N    0.615206  -5.972718  3.776146
H    -1.758535  -1.817936  1.306825
H    -1.244857  -1.121635  2.857334
H    1.173018  -1.625891  2.265758
H    0.668071  -2.063417  0.632767
H    1.186180  -4.079211  1.898910
H    -0.553289  -4.052171  1.491585
H    -0.536492  -2.856954  3.933104
H    -0.585801  -4.024744  6.061444
H    1.587327  -5.831797  3.473056
H    0.111015  -6.268320  2.931529
O    0.076104  1.040989  3.147518
H    0.747604  1.665291  3.488919
Ca    0.241351  -6.978733  5.992590
