27
Energy: -35051.8928485 eV PBE+vdW (tier 2 basis)
N    0.979566  0.159056  -0.139557
C    0.794967  -0.318471  1.278435
C    2.003500  -1.199859  1.683942
O    3.115430  -0.915803  1.055183
H    0.621794  -0.560926  -0.778746
H    0.357986  0.960060  -0.296510
H    0.910644  0.581289  1.907519
C    -0.590568  -0.891608  1.619747
C    -1.111111  -2.156294  0.905665
C    -0.387398  -3.492460  1.100444
N    -0.126014  -3.826708  2.552672
C    0.587896  -5.183064  2.739505
N    1.835618  -5.268843  2.863978
N    -0.288631  -6.217265  2.625060
H    -1.330734  -0.097556  1.440748
H    -0.604990  -1.032575  2.710756
H    -1.169327  -1.999396  -0.183827
H    -2.161205  -2.275668  1.212626
H    0.600970  -3.520075  0.626498
H    -0.979803  -4.310346  0.674963
H    -0.993399  -3.780102  3.104939
H    2.359553  -4.392399  2.838338
H    0.119893  -7.138096  2.766083
H    -1.250456  -6.129696  2.934498
O    1.905188  -2.043925  2.568918
H    0.540803  -3.092745  2.898711
Ca    3.406752  0.429137  -0.451386
