27
Energy: -35053.4803184 eV PBE+vdW (tier 2 basis)
N    0.288501  0.953973  0.550437
C    0.504082  0.173905  1.826779
C    1.966890  -0.335592  1.882024
O    2.814053  0.365544  1.161796
H    -0.533356  1.554614  0.676705
H    -0.002960  0.291059  -0.179225
H    0.449498  0.918527  2.639160
C    -0.575647  -0.883025  2.109122
C    -0.657355  -2.092443  1.154356
C    0.094531  -3.367286  1.574426
N    -0.400500  -3.946175  2.827890
C    0.299666  -4.122241  3.963955
N    1.415390  -3.433204  4.200813
N    -0.158478  -4.995141  4.877319
H    -1.543843  -0.361276  2.111311
H    -0.442829  -1.225224  3.145132
H    -0.299045  -1.838935  0.141839
H    -1.716216  -2.351725  1.012038
H    1.169375  -3.191837  1.677785
H    -0.028466  -4.125198  0.787629
H    -1.316107  -4.384218  2.796419
H    2.035838  -3.716092  4.949765
H    0.216004  -5.013640  5.818004
H    -0.835227  -5.708805  4.636919
O    2.284699  -1.275699  2.594288
H    1.697740  -2.628805  3.624593
Ca    2.440383  1.938962  -0.063209
