27
Energy: -35051.721508 eV PBE+vdW (tier 2 basis)
N    0.014002  0.267487  0.637915
C    0.214905  -0.554406  1.833134
C    1.584806  -1.209990  1.707995
O    1.827246  -2.294519  1.153263
H    0.610230  1.094041  0.621133
H    0.138229  -0.248924  -0.232445
H    0.251597  0.129584  2.692381
C    -0.966249  -1.516201  2.004193
C    -1.085798  -2.231114  3.359775
C    -0.336914  -3.560802  3.517095
N    -0.860899  -4.591475  2.596294
C    -0.264164  -5.135429  1.546373
N    -0.790943  -5.957881  0.649900
N    1.124403  -4.856672  1.261062
H    -0.984739  -2.237172  1.168712
H    -1.856206  -0.890012  1.860569
H    -2.149711  -2.413397  3.574092
H    -0.742687  -1.573616  4.173054
H    -0.462296  -3.946570  4.537721
H    0.738331  -3.452933  3.340549
H    -1.840610  -4.839429  2.739207
H    -1.779559  -6.187247  0.765274
H    1.716037  -5.134030  2.053402
H    1.296929  -3.803752  1.158573
O    2.560609  -0.426766  2.161418
H    3.431079  -0.818694  1.942522
Ca    0.952621  -6.269119  -0.650010
