27
Energy: -35051.8000358 eV PBE+vdW (tier 2 basis)
N    0.203707  0.377814  0.484147
C    -0.584796  0.277995  1.792059
C    0.769540  0.867257  1.716152
O    1.044872  2.158988  1.948862
H    -0.094720  1.171938  -0.090357
H    0.025552  -2.906792  -2.566049
H    -1.366657  1.032425  1.926039
C    -0.923293  -1.112820  2.269392
C    -2.271123  -1.641151  1.742115
C    -2.471957  -1.522190  0.225442
N    -1.401651  -2.122755  -0.579939
C    -1.435424  -3.317476  -1.177229
N    -0.493540  -3.630581  -2.085060
N    -2.383742  -4.217018  -0.882834
H    -0.959444  -1.112527  3.368657
H    -0.113994  -1.806395  1.993111
H    -3.096699  -1.088822  2.215303
H    -2.384406  -2.687482  2.063031
H    -2.528001  -0.467433  -0.074358
H    -3.430435  -1.964340  -0.076280
H    -0.548891  -1.566848  -0.659607
H    -0.395904  -4.576989  -2.432339
H    -2.984943  -4.109349  -0.076446
H    -2.555983  -5.013130  -1.484980
O    1.962628  0.112829  2.189072
H    2.076310  -0.705358  1.676760
Ca    2.887135  2.111370  2.791389
