27
Energy: -35053.3916454 eV PBE+vdW (tier 2 basis)
N    0.219735  -0.846665  -0.517401
C    0.226140  -0.199116  0.825910
C    1.675633  0.037256  1.254007
O    2.626746  -0.540781  0.714545
H    -0.658909  -1.362884  -0.622446
H    0.160477  -0.110157  -1.229136
H    -0.249859  0.794705  0.768848
C    -0.580598  -0.999975  1.886181
C    -0.443866  -2.531099  1.972583
C    0.924945  -3.139885  2.323082
N    1.630035  -3.594029  1.092745
C    2.993179  -4.055622  1.170149
N    3.635044  -3.890180  0.043674
N    3.461620  -4.527795  2.329307
H    -1.641261  -0.778507  1.699342
H    -0.369694  -0.565381  2.874901
H    -0.827269  -3.011206  1.057502
H    -1.155871  -2.837197  2.750950
H    0.764419  -3.984526  3.010814
H    1.574083  -2.419679  2.838733
H    1.077612  -4.331312  0.641353
H    4.569032  -4.303888  0.008094
H    4.438328  -4.788316  2.428471
H    2.851233  -4.757295  3.105634
O    1.934208  0.866826  2.242206
H    1.144744  1.333657  2.580952
Ca    2.416122  -2.138811  -0.829271
