27
Energy: -35051.3281521 eV PBE+vdW (tier 2 basis)
N    -0.448821  -0.050742  -0.139079
C    -0.021918  -0.075092  1.239739
C    1.424201  -0.504543  1.521311
O    2.141225  0.072936  2.342956
H    0.112965  0.571033  -0.718902
H    -0.450164  -0.976306  -0.568119
H    -0.039938  0.973080  1.588656
C    -1.056560  -0.910629  2.046103
C    -0.759500  -1.405313  3.479355
C    -0.133629  -0.435241  4.488345
N    -0.706863  0.970248  4.397185
C    0.254152  2.031418  4.701193
N    -0.180029  2.810732  5.675834
N    1.374356  2.093965  4.011914
H    -1.274716  -1.810715  1.453722
H    -1.994314  -0.333238  2.012949
H    -0.076233  -2.266448  3.443520
H    -1.703559  -1.806165  3.875601
H    0.948794  -0.377241  4.336975
H    -0.289078  -0.802771  5.514075
H    -1.014803  1.093414  3.422977
H    0.435117  3.581378  5.944508
H    2.063208  2.813767  4.221698
H    1.646208  1.355559  3.303218
O    1.833660  -1.540910  0.803045
H    2.771194  -1.738690  1.010855
Ca    -2.087772  1.841355  6.155110
