27
Energy: -35051.015946 eV PBE+vdW (tier 2 basis)
N    -0.087568  1.346354  0.609097
C    0.684459  0.510203  1.513456
C    2.055858  0.077104  0.962394
O    2.350499  0.076957  -0.206750
H    0.431297  2.195846  0.381438
H    -0.219919  0.867398  -0.285700
H    0.892221  1.099196  2.424536
C    -0.109286  -0.763338  1.895333
C    -1.593314  -0.522000  2.215883
C    -1.870198  0.633992  3.172876
N    -1.183593  0.422698  4.472156
C    -1.458290  0.971822  5.637726
N    -0.858711  0.796291  6.808330
N    -2.554255  1.928798  5.755399
H    0.413506  -1.273956  2.721433
H    -0.068009  -1.479351  1.060936
H    -2.046855  -1.449261  2.595703
H    -2.130634  -0.264861  1.294056
H    -2.950091  0.721909  3.353471
H    -1.504386  1.568255  2.714611
H    -0.383527  -0.212829  4.432977
H    -0.087245  0.126127  6.822222
H    -2.460200  2.680573  5.061020
H    -3.451830  1.477567  5.536750
O    2.877882  -0.323186  1.969594
H    3.718211  -0.614129  1.560192
Ca    -1.922600  2.201212  8.109900
