27
Energy: -35053.470521 eV PBE+vdW (tier 2 basis)
N    1.112966  0.049255  0.303904
C    1.266610  0.326617  1.715091
C    2.645513  0.020057  2.307933
O    3.032675  0.607013  3.390377
H    1.320802  -0.924361  0.078373
H    -5.867135  2.441580  0.442652
H    1.120959  1.406622  1.878365
C    0.216354  -0.448167  2.560833
C    -1.216908  -0.378053  2.016505
C    -1.817186  1.028089  1.965915
N    -3.226579  0.940125  1.558943
C    -3.982757  1.949932  1.113044
N    -5.192727  1.700489  0.589921
N    -3.533447  3.211007  1.168768
H    0.258097  -0.082819  3.596903
H    0.501121  -1.511218  2.589805
H    -1.840397  -1.011119  2.668079
H    -1.249011  -0.808665  1.006707
H    -1.283198  1.640479  1.224167
H    -1.740345  1.514495  2.953259
H    -3.684449  0.042540  1.685356
H    -5.475489  0.762249  0.335044
H    -4.026123  3.963007  0.702476
H    -2.747336  3.463437  1.752935
O    3.429915  -0.830167  1.741218
H    1.719334  0.631117  -0.272292
Ca    4.903505  -0.458070  3.272069
