27
Energy: -35053.3468715 eV PBE+vdW (tier 2 basis)
N    0.190745  -1.878059  1.200520
C    0.061223  -0.431955  1.559446
C    1.320282  -0.003219  2.314471
O    2.092259  -0.837319  2.809185
H    -0.707760  -2.335703  1.387443
H    0.323682  -1.953983  0.187774
H    0.000682  0.162895  0.634718
C    -1.221335  -0.132826  2.384971
C    -1.223695  -0.400760  3.900144
C    -0.834885  -1.785352  4.424970
N    -1.556025  -2.899756  3.792110
C    -1.036238  -4.168360  3.719675
N    0.265325  -4.348212  3.494104
N    -1.910582  -5.187079  3.821776
H    -2.037808  -0.678272  1.887917
H    -1.473405  0.928002  2.244656
H    -2.235967  -0.156485  4.255868
H    -0.569400  0.319748  4.414973
H    -1.000526  -1.800672  5.514091
H    0.238699  -1.966008  4.300078
H    -2.564859  -2.864347  3.921122
H    0.501222  -5.333785  3.638704
H    -1.634954  -6.137558  3.603788
H    -2.846879  -5.062485  4.190117
O    1.585712  1.270398  2.489031
H    0.957120  1.869448  2.039624
Ca    1.893970  -3.053465  2.561964
