27
Energy: -35049.7709369 eV PBE+vdW (tier 2 basis)
N    0.100470  0.082859  -0.100138
C    0.219521  0.113951  1.352877
C    1.717328  -0.161587  1.502627
O    2.585062  0.752717  1.426838
H    -0.295698  -0.774753  -0.475771
H    -0.333254  0.901323  -0.514585
H    0.059715  1.140350  1.711841
C    -0.656665  -0.857696  2.156075
C    -2.147091  -0.486180  2.263946
C    -2.994356  -0.689629  0.987417
N    -4.419398  -0.667746  1.235511
C    -5.116402  -1.741054  1.755462
N    -4.636419  -2.927939  2.019021
N    -6.431326  -1.517318  2.043679
H    -0.254545  -0.917887  3.180517
H    -0.578561  -1.876554  1.725567
H    -2.247081  0.552162  2.615532
H    -2.577864  -1.114410  3.056206
H    -2.737446  -1.650316  0.510824
H    -2.784483  0.087730  0.240649
H    -4.876886  0.237330  1.228782
H    -3.654115  -3.028049  1.755206
H    -6.960782  -2.331928  2.334374
H    -6.950781  -0.752737  1.630823
O    2.178235  -1.382618  1.625212
H    1.451968  -2.033044  1.735999
Ca    4.447309  1.657221  1.176496
