27
Energy: -35053.2600911 eV PBE+vdW (tier 2 basis)
N    1.317118  2.950380  2.278349
C    0.130398  2.162207  2.784971
C    0.319279  1.866237  4.285707
O    1.568343  1.709151  4.663644
H    1.381273  2.827904  1.261341
H    1.113423  3.949973  2.394494
H    -0.778182  2.771390  2.685722
C    -0.018228  0.879487  1.933708
C    -0.700013  -0.370610  2.524147
C    -2.102890  -0.274886  3.151031
N    -3.063061  0.576136  2.437510
C    -3.770783  1.574849  3.000948
N    -3.328627  2.197980  4.095414
N    -4.915855  1.969700  2.418448
H    0.993643  0.550458  1.639926
H    -0.519480  1.167847  0.997612
H    -0.058392  -0.816515  3.298979
H    -0.722959  -1.107371  1.708392
H    -2.039219  0.084630  4.180143
H    -2.520894  -1.290230  3.205648
H    -3.411555  0.232876  1.547239
H    -3.959639  2.779319  4.634348
H    -5.417609  1.367210  1.777204
H    -5.384817  2.819072  2.709345
O    -0.652355  1.773372  5.023958
H    -2.381028  2.036505  4.475948
Ca    3.236695  2.327881  3.686565
