27
Energy: -35051.0594755 eV PBE+vdW (tier 2 basis)
N    -0.142961  -0.019801  -0.064378
C    0.139800  -0.021480  1.433830
C    1.652446  -0.190974  1.599986
O    2.139940  -0.364799  2.758230
H    -0.985559  0.525787  -0.291150
H    0.671843  0.366025  -0.573295
H    -0.103040  0.994909  1.782557
C    -0.734170  -1.066082  2.171939
C    -1.474674  -0.547661  3.413733
C    -0.585589  -0.162962  4.617698
N    -1.321590  0.021960  5.844741
C    -1.796066  -1.064362  6.582001
N    -1.536706  -2.318302  6.382355
N    -2.642976  -0.717066  7.605952
H    -0.113908  -1.936238  2.431751
H    -1.491332  -1.433933  1.461229
H    -2.154924  -1.349563  3.734333
H    -2.118060  0.303138  3.136861
H    -0.028122  0.765082  4.418432
H    0.174939  -0.941414  4.784000
H    -1.844818  0.887271  5.934519
H    -0.941643  -2.482083  5.568679
H    -2.900565  -1.489994  8.210953
H    -2.524788  0.175048  8.072522
O    2.405505  -0.129592  0.561805
H    -0.292583  -0.978827  -0.410846
Ca    4.189308  -0.413017  1.914982
