27
Energy: -35051.8558055 eV PBE+vdW (tier 2 basis)
N    0.371004  0.646819  0.172276
C    0.133164  -0.305239  1.323137
C    1.225625  -1.406653  1.289929
O    2.363781  -1.031592  0.764259
H    -0.081955  0.253220  -0.662605
H    -0.158965  1.505968  0.355945
H    0.341815  0.276304  2.237271
C    -1.298269  -0.847504  1.420047
C    -1.649195  -1.968503  0.413528
C    -2.127938  -3.253687  1.129623
N    -1.943816  -4.482263  0.361153
C    -0.767994  -5.146159  0.185992
N    -0.441545  -5.790760  -0.845919
N    0.111670  -5.087550  1.451474
H    -1.996772  -0.003024  1.335985
H    -1.425469  -1.217449  2.447501
H    -0.772389  -2.229956  -0.199273
H    -2.422622  -1.637260  -0.291503
H    -3.193875  -3.182742  1.379500
H    -1.604092  -3.347891  2.090401
H    -2.570572  -4.626659  -0.428747
H    0.374641  -6.400929  -0.795927
H    0.890946  -5.745055  1.337364
H    -0.418874  -5.363780  2.289604
O    1.013450  -2.519221  1.763559
H    0.512281  -4.121519  1.605311
Ca    2.778966  0.751998  -0.152474
