27
Energy: -35050.6351909 eV PBE+vdW (tier 2 basis)
N    0.268043  0.999858  1.262066
C    0.186820  -0.159325  2.217322
C    1.588650  -0.377393  2.789929
O    2.458122  0.516299  2.695756
H    0.384184  0.615578  0.314378
H    -0.655265  1.446313  1.231946
H    -0.415963  0.184513  3.078195
C    -0.479555  -1.421974  1.637541
C    -1.913248  -1.182573  1.144583
C    -2.687672  -2.505031  0.910420
N    -4.084404  -2.299283  0.625092
C    -4.985347  -1.860233  1.583232
N    -4.750827  -1.727784  2.856717
N    -6.214487  -1.488033  1.104772
H    -0.525696  -2.184765  2.436181
H    0.152860  -1.846623  0.840450
H    -1.916795  -0.606534  0.206598
H    -2.471357  -0.593223  1.890458
H    -2.583508  -3.151579  1.798334
H    -2.249272  -3.064016  0.073242
H    -4.366778  -2.284954  -0.348002
H    -3.836956  -2.095752  3.127819
H    -6.557605  -1.858655  0.226354
H    -6.918039  -1.342891  1.821474
O    1.904385  -1.466632  3.430226
H    1.184572  -2.130956  3.443065
Ca    2.221174  2.434480  1.757037
