27
Energy: -35053.1769152 eV PBE+vdW (tier 2 basis)
N    0.688300  -0.175333  -0.599658
C    -0.378170  0.121140  0.433509
C    0.259329  1.276724  1.273012
O    -0.484454  1.755280  2.207215
H    1.040090  -1.138470  -0.560109
H    0.408765  0.030407  -1.564517
H    -1.244229  0.531926  -0.102872
C    -0.769146  -1.104828  1.282839
C    -2.117707  -1.772710  0.965081
C    -3.376795  -0.978358  1.363755
N    -3.334111  -0.563028  2.772619
C    -3.261797  0.677601  3.281730
N    -2.891096  1.030727  4.491249
N    -3.533970  1.818924  2.465762
H    -0.755132  -0.795524  2.336403
H    0.025269  -1.862459  1.206746
H    -2.141724  -2.741882  1.485706
H    -2.204819  -2.017581  -0.104247
H    -4.267620  -1.598790  1.196127
H    -3.503630  -0.091189  0.730112
H    -3.121563  -1.309138  3.432872
H    -2.765795  0.262525  5.153682
H    -3.606183  1.632467  1.466757
H    -4.406861  2.257399  2.774450
O    1.399116  1.626889  0.968406
H    1.453324  0.517118  -0.282243
Ca    -1.562146  2.760730  3.705219
