27
Energy: -35051.084287 eV PBE+vdW (tier 2 basis)
N    1.128832  -0.703676  0.353134
C    0.141797  -0.226254  1.317760
C    0.769475  -0.148005  2.708375
O    1.734936  -0.801105  3.055950
H    1.115486  -0.148688  -0.499879
H    2.068881  -0.664272  0.747214
H    -0.256092  0.768515  1.070347
C    -1.069545  -1.211272  1.364694
C    -0.567769  -2.617169  1.710092
C    -1.542347  -3.735255  1.392352
N    -0.898512  -5.126599  1.440216
C    -0.393015  -5.524680  2.732368
N    -1.279201  -6.226785  3.409065
N    0.850411  -5.214339  3.078321
H    -1.522202  -1.205582  0.361843
H    -1.826892  -0.853936  2.075944
H    -0.281307  -2.658008  2.771033
H    0.346743  -2.752843  1.097913
H    -1.939819  -3.639479  0.371715
H    -2.394041  -3.744144  2.097422
H    -0.151258  -5.145215  0.737850
H    -1.030469  -6.476305  4.368181
H    1.404410  -4.549170  2.543551
H    1.252365  -5.536134  3.956481
O    0.090324  0.691645  3.512165
H    0.539482  0.707923  4.381912
Ca    -2.699212  -6.683184  1.777964
