27
Energy: -35050.5470598 eV PBE+vdW (tier 2 basis)
N    0.283595  -0.882039  0.247427
C    0.932967  -0.366995  1.502505
C    2.410237  -0.764624  1.445782
O    2.934911  -1.093306  0.360328
H    -0.151157  -1.788352  0.468618
H    -0.514540  -0.274715  0.031884
H    0.941271  0.735913  1.420794
C    0.208572  -0.754065  2.805061
C    -1.237809  -0.245120  2.880226
C    -1.856514  -0.462069  4.267662
N    -3.225298  0.029716  4.270450
C    -4.064653  -0.095813  5.386659
N    -4.781641  0.938507  5.672228
N    -4.013547  -1.303044  6.046699
H    0.759228  -0.316759  3.657182
H    0.247932  -1.847879  2.938966
H    -1.876433  -0.748713  2.137651
H    -1.257610  0.832286  2.643101
H    -1.232675  0.040794  5.033383
H    -1.848503  -1.533746  4.511528
H    -3.329568  0.985124  3.927649
H    -5.427106  0.789737  6.452618
H    -4.671481  -1.424748  6.808740
H    -3.852297  -2.148080  5.508109
O    3.173067  -0.718350  2.500977
H    2.689743  -0.474401  3.317263
Ca    1.953309  -1.244016  -1.549037
