27
Energy: -35052.7190611 eV PBE+vdW (tier 2 basis)
N    0.399671  0.529201  1.014567
C    0.114808  0.099556  2.353730
C    1.288430  0.038099  3.332623
O    1.146054  0.221424  4.567364
H    0.855836  1.437112  0.951826
H    0.922871  -0.149563  0.463069
H    -0.571233  0.835283  2.806996
C    -0.579388  -1.293082  2.297522
C    -1.101224  -1.938827  3.587939
C    -2.388861  -1.387892  4.200635
N    -2.259517  0.011421  4.776386
C    -3.104252  0.241180  5.929389
N    -2.426416  0.286618  7.046073
N    -4.418780  0.384812  5.749025
H    0.131287  -1.990268  1.828981
H    -1.400865  -1.171980  1.575640
H    -0.308500  -2.006536  4.355770
H    -1.323420  -2.990781  3.351727
H    -2.696780  -2.038833  5.030040
H    -3.200664  -1.403144  3.458487
H    -2.479854  0.692399  4.043326
H    -2.984265  0.392513  7.896615
H    -4.850904  0.274656  4.837607
H    -5.046051  0.568882  6.527971
O    2.455071  -0.222930  2.801945
H    3.163007  -0.253539  3.480932
Ca    -0.265317  0.345582  6.252344
