27
Energy: -35052.5562599 eV PBE+vdW (tier 2 basis)
N    0.665657  0.266629  0.463806
C    0.604407  0.710238  1.842172
C    2.032476  0.717495  2.384653
O    2.996023  0.370342  1.682325
H    -4.805150  -2.251957  2.898838
H    -0.258110  0.361428  0.037705
H    0.272354  1.769387  1.928567
C    -0.357852  -0.096603  2.771850
C    -0.033083  -1.589086  2.888629
C    -0.902751  -2.361951  3.885388
N    -2.304989  -2.450061  3.450258
C    -3.336090  -2.797526  4.237051
N    -4.588062  -2.738457  3.759665
N    -3.128010  -3.179113  5.502708
H    -1.370491  0.056124  2.369906
H    -0.378873  0.362280  3.776294
H    1.005047  -1.726250  3.229898
H    -0.084722  -2.064575  1.897109
H    -0.883288  -1.860548  4.864886
H    -0.487258  -3.374774  4.011953
H    -2.479377  -2.443556  2.450004
H    -5.360818  -3.171962  4.251108
H    -3.900615  -3.291045  6.148986
H    -2.213429  -3.468064  5.825935
O    2.290098  1.107617  3.620852
H    1.484584  1.411415  4.080985
Ca    2.553253  -0.022364  -0.463021
