27
Energy: -35053.3057345 eV PBE+vdW (tier 2 basis)
N    0.337432  0.350771  0.549286
C    0.627934  -0.243110  1.913283
C    2.111881  -0.711293  1.779935
O    2.643690  -1.168348  2.859441
H    0.201310  1.367091  0.554207
H    -0.460446  -0.083855  0.072876
H    0.588717  0.571556  2.647546
C    -0.341547  -1.377262  2.293904
C    -1.522523  -0.984660  3.212343
C    -1.355029  -1.380887  4.686559
N    -0.210049  -0.743558  5.357704
C    0.966958  -1.328860  5.633265
N    1.345051  -2.570513  5.463292
N    2.041587  -0.487845  6.065672
H    0.250408  -2.170817  2.767933
H    -0.722344  -1.836497  1.369245
H    -2.438426  -1.484191  2.867633
H    -1.732867  0.093643  3.140387
H    -1.255081  -2.470239  4.778489
H    -2.257213  -1.112315  5.250828
H    -0.372232  0.182779  5.743403
H    0.594843  -3.234913  5.271261
H    1.886325  0.512682  5.933841
H    2.275377  -0.661972  7.047493
O    2.639460  -0.600457  0.674498
H    1.259440  0.111049  0.042100
Ca    3.413759  -2.051690  4.580581
