27
Energy: -35051.0662814 eV PBE+vdW (tier 2 basis)
N    -0.873984  0.196279  -0.172780
C    -0.756330  0.463123  1.244263
C    0.220027  1.583176  1.685440
O    0.677124  1.664658  2.806996
H    -1.390885  0.918462  -0.670427
H    0.029069  0.080932  -0.632245
H    -1.741548  0.819060  1.594458
C    -0.408458  -0.823968  2.018220
C    -1.546456  -1.845158  1.981302
C    -1.197845  -3.182685  2.631474
N    -0.842062  -2.983443  4.059658
C    -0.888745  -3.851206  5.053364
N    -0.585025  -3.666622  6.326997
N    -1.306494  -5.227205  4.810244
H    -0.150592  -0.506324  3.042609
H    0.506823  -1.259685  1.584010
H    -1.810865  -2.050336  0.933841
H    -2.451410  -1.433612  2.455785
H    -0.338510  -3.647675  2.122435
H    -2.052307  -3.870091  2.571019
H    -0.488915  -2.047866  4.274460
H    -0.306855  -2.718559  6.588671
H    -0.795479  -5.636861  4.019440
H    -2.297441  -5.260605  4.539808
O    0.465383  2.458131  0.695364
H    1.047637  3.159986  1.051668
Ca    -0.767938  -5.697692  7.173958
