27
Energy: -35049.8989618 eV PBE+vdW (tier 2 basis)
N    0.251533  -0.515276  -0.200212
C    0.047660  -0.477383  1.248378
C    1.378930  0.130915  1.686235
O    1.610311  1.371541  1.621466
H    0.557495  -1.427881  -0.534956
H    -0.569647  -0.223017  -0.724891
H    -0.719889  0.275599  1.477280
C    -0.316439  -1.802432  1.926721
C    -0.614686  -1.701121  3.429802
C    -1.174334  -3.012890  4.025252
N    -2.405521  -3.428382  3.382375
C    -2.532121  -4.416990  2.419756
N    -3.389951  -4.190642  1.471431
N    -1.704526  -5.509955  2.568422
H    0.458490  -2.571003  1.727966
H    -1.207674  -2.175422  1.398505
H    -1.348921  -0.896608  3.599310
H    0.280778  -1.423257  4.010586
H    -1.342363  -2.867450  5.102530
H    -0.437782  -3.819797  3.921938
H    -3.146184  -2.736154  3.295934
H    -3.514329  -4.993160  0.847349
H    -1.841972  -6.260819  1.900405
H    -1.522968  -5.841500  3.512007
O    2.379307  -0.624871  2.056246
H    2.101770  -1.565104  2.118805
Ca    2.462975  3.200752  1.169486
