27
Energy: -35050.4804054 eV PBE+vdW (tier 2 basis)
N    -0.125665  -0.464865  -0.370697
C    -0.255851  0.158974  0.992933
C    1.110218  0.700468  1.389945
O    2.148908  0.283419  0.831312
H    -0.772609  -1.263853  -0.408701
H    -0.500709  0.190847  -1.067317
H    -0.972308  0.996442  0.954991
C    -0.737077  -0.868624  2.055789
C    -2.259857  -1.070182  2.128811
C    -2.924423  -1.551773  0.834623
N    -4.306031  -1.882859  1.053012
C    -5.199177  -1.974585  -0.028375
N    -4.937306  -1.770741  -1.278882
N    -6.465761  -2.332200  0.346796
H    -0.389202  -0.544878  3.047429
H    -0.218905  -1.824424  1.864285
H    -2.747839  -0.142111  2.460924
H    -2.433793  -1.807438  2.927312
H    -2.342948  -2.408010  0.410052
H    -2.914798  -0.745017  0.081449
H    -4.492482  -2.528337  1.816894
H    -3.941292  -1.645532  -1.466313
H    -6.823115  -2.059153  1.254907
H    -7.143326  -2.369583  -0.407281
O    1.246931  1.575953  2.346092
H    0.402386  1.882835  2.735063
Ca    2.232139  -0.977750  -0.900328
