27
Energy: -35050.9449919 eV PBE+vdW (tier 2 basis)
N    -0.956166  0.361379  0.417406
C    -0.156425  -0.143798  1.516681
C    1.318861  -0.405013  1.155917
O    1.699519  -0.849723  0.102741
H    -0.892446  -0.256320  -0.394913
H    -0.635971  1.280849  0.113012
H    -0.166292  0.619330  2.311950
C    -0.794981  -1.456170  2.024595
C    -0.201670  -2.081076  3.294262
C    -0.176376  -1.164965  4.521964
N    -1.534874  -0.632903  4.790525
C    -2.050849  -0.213250  5.928483
N    -3.268445  0.250797  6.165685
N    -1.247927  -0.209874  7.147283
H    -0.733120  -2.205861  1.221707
H    -1.878378  -1.260156  2.125210
H    0.838848  -2.389490  3.122502
H    -0.755832  -2.999615  3.535503
H    0.507809  -0.317874  4.360615
H    0.169041  -1.726358  5.400159
H    -2.130047  -0.576886  3.959359
H    -3.907396  0.264214  5.367910
H    -0.995741  -1.169350  7.416161
H    -0.352811  0.271642  6.998461
O    2.147598  -0.087145  2.196945
H    3.062498  -0.270062  1.898156
Ca    -3.165147  0.838962  8.281169
