27
Energy: -35052.90026 eV PBE+vdW (tier 2 basis)
N    0.032761  0.833443  0.831167
C    0.160651  -0.122248  1.969199
C    1.526061  -0.802412  1.816584
O    2.018285  -0.960802  0.688707
H    -0.961178  0.988625  0.626951
H    0.390822  1.746859  1.128900
H    0.096132  0.410479  2.931386
C    -0.900033  -1.260763  1.928802
C    -2.376593  -0.818267  1.802791
C    -3.193592  -1.658968  0.785891
N    -2.459976  -1.965522  -0.455529
C    -1.832021  -1.040785  -1.216574
N    -0.705255  -1.258264  -1.896345
N    -2.328500  0.239227  -1.206074
H    -0.765943  -1.869280  2.832921
H    -0.637323  -1.919106  1.088397
H    -2.452289  0.245645  1.534872
H    -2.880660  -0.892054  2.774861
H    -4.148226  -1.160438  0.563396
H    -3.461613  -2.630834  1.215526
H    -2.068534  -2.900631  -0.506821
H    -0.528108  -2.262616  -2.002984
H    -2.143076  0.759574  -2.059796
H    -3.286066  0.360053  -0.884740
O    2.162320  -1.288895  2.853640
H    1.731166  -1.089767  3.708515
Ca    1.154194  -0.112371  -1.199385
