27
Energy: -35053.5538515 eV PBE+vdW (tier 2 basis)
N    -0.093204  -0.333896  -0.065327
C    -0.084565  -0.256690  1.453656
C    0.766273  -1.446786  1.927781
O    0.764938  -2.495057  1.199952
H    -0.944407  0.069250  -0.480144
H    0.718288  0.142010  -0.483137
H    0.380773  0.691667  1.747062
C    -1.534218  -0.368165  1.977563
C    -1.650260  -0.355537  3.522750
C    -2.521359  -1.486387  4.110777
N    -2.136336  -2.834330  3.667890
C    -1.040755  -3.538376  4.011784
N    -0.576075  -4.622210  3.429417
N    -0.169847  -3.054171  5.012800
H    -1.962472  -1.295475  1.565566
H    -2.115473  0.465027  1.556357
H    -2.085022  0.596189  3.854179
H    -0.646595  -0.389561  3.967973
H    -3.570805  -1.360164  3.818149
H    -2.510508  -1.436076  5.209001
H    -2.677058  -3.230842  2.905313
H    -1.217683  -5.070189  2.771771
H    -0.068331  -3.733227  5.769709
H    -0.369626  -2.130456  5.391720
O    1.342170  -1.375158  3.046959
H    -0.024043  -1.345836  -0.302358
Ca    1.520299  -3.671153  3.125905
