27
Energy: -35053.1596364 eV PBE+vdW (tier 2 basis)
N    0.557807  -0.290410  -0.519257
C    0.347651  0.081002  0.888841
C    1.593977  -0.242424  1.701545
O    2.413775  -1.110488  1.361752
H    -0.279929  -0.044956  -1.053552
H    1.317215  0.255184  -0.935033
H    0.148355  1.162083  1.003658
C    -0.878224  -0.669697  1.494385
C    -0.786128  -2.185862  1.756563
C    -0.776533  -3.141960  0.557310
N    0.503171  -3.069451  -0.182593
C    0.844522  -3.989345  -1.198582
N    2.135861  -3.974977  -1.471243
N    -0.085720  -4.790425  -1.726812
H    -1.731060  -0.451661  0.831987
H    -1.126401  -0.181382  2.447435
H    -1.674752  -2.446023  2.349194
H    0.067323  -2.417537  2.415929
H    -1.628351  -2.908454  -0.105262
H    -0.912571  -4.167338  0.925941
H    0.627767  -2.067135  -0.519438
H    2.421657  -4.529133  -2.279424
H    0.163801  -5.515963  -2.391572
H    -1.073991  -4.664544  -1.539712
O    1.798310  0.372672  2.843567
H    1.144997  1.078303  3.024631
Ca    2.896480  -3.063994  0.455169
