27
Energy: -35053.5582397 eV PBE+vdW (tier 2 basis)
N    -0.100780  0.368034  0.407903
C    -0.430296  0.273196  1.843303
C    0.753328  0.664807  2.710898
O    0.703562  0.485070  3.983722
H    -0.110977  -2.396356  -3.720133
H    -0.859846  0.842497  -0.083338
H    -1.189836  1.030048  2.121724
C    -1.019355  -1.095507  2.246818
C    -0.114477  -2.320630  1.988705
C    -0.443371  -3.137898  0.736890
N    -0.202341  -2.365869  -0.483078
C    -0.280675  -2.863884  -1.715670
N    0.059636  -2.097184  -2.768712
N    -0.685026  -4.124998  -1.930960
H    -1.977634  -1.208721  1.718865
H    -1.274092  -1.040757  3.312399
H    -0.208445  -3.010879  2.836801
H    0.948304  -2.030464  1.955740
H    -1.498925  -3.458239  0.786759
H    0.183244  -4.042869  0.723987
H    -0.070025  -1.337160  -0.344624
H    0.542948  -1.219425  -2.636486
H    -0.628787  -4.548483  -2.848798
H    -1.093274  -4.680999  -1.191422
O    1.789240  1.235651  2.198876
H    0.732197  0.949325  0.285226
Ca    2.560911  1.550327  4.214544
