27
Energy: -35053.0255095 eV PBE+vdW (tier 2 basis)
N    -0.407660  0.359895  0.364857
C    -0.190842  0.330831  1.836296
C    1.271908  -0.075606  2.052638
O    1.851426  -0.781260  1.216591
H    -0.124703  1.282914  0.016837
H    -1.414318  0.318779  0.183980
H    -0.381488  1.323635  2.275313
C    -1.066814  -0.719640  2.582267
C    -2.581928  -0.763993  2.253395
C    -3.079935  -1.973925  1.436173
N    -2.683957  -1.962101  0.019257
C    -1.544010  -2.419829  -0.530724
N    -1.054970  -2.160630  -1.721449
N    -0.627657  -3.158342  0.263920
H    -0.949894  -0.504966  3.652673
H    -0.617422  -1.713282  2.449471
H    -2.920566  0.168650  1.773986
H    -3.131657  -0.796756  3.204153
H    -4.176674  -1.992212  1.455448
H    -2.767174  -2.921131  1.899614
H    -3.283792  -1.425840  -0.603671
H    -1.706145  -1.716703  -2.372776
H    -0.409352  -4.046513  -0.196623
H    -0.918158  -3.347911  1.221957
O    1.909558  0.258864  3.149297
H    1.400365  0.852794  3.735786
Ca    0.976680  -1.467602  -0.760772
