27
Energy: -35053.3247682 eV PBE+vdW (tier 2 basis)
N    -1.399371  -0.030768  -0.918716
C    -0.769841  0.085795  0.459045
C    0.168128  -1.156222  0.519414
O    1.108775  -1.111117  1.412565
H    -0.941206  0.557966  -1.624611
H    -2.405232  0.178416  -0.925235
H    -0.179707  1.010804  0.486042
C    -1.908227  0.106018  1.504243
C    -1.576403  0.022371  3.005877
C    -0.729712  1.147016  3.633173
N    0.709058  0.902573  3.485309
C    1.583295  0.601143  4.474248
N    2.591256  -0.246892  4.201280
N    1.408033  1.158984  5.686806
H    -2.578941  -0.739250  1.279502
H    -2.487663  1.026821  1.327869
H    -1.125739  -0.950672  3.250553
H    -2.550850  0.027198  3.514374
H    -0.962943  1.198710  4.703369
H    -0.989342  2.126514  3.203874
H    0.975230  0.488397  2.594364
H    3.318907  -0.176725  4.917501
H    1.986109  0.885618  6.471780
H    0.828483  1.980446  5.812134
O    -0.042726  -2.070124  -0.272034
H    -1.221334  -1.048166  -1.160138
Ca    2.737821  -1.788201  2.576310
