27
Energy: -35053.7474026 eV PBE+vdW (tier 2 basis)
N    1.309468  -2.971713  0.778167
C    0.408174  -1.745617  0.722697
C    1.318352  -0.536536  0.975102
O    1.026038  0.575498  0.460790
H    0.792798  -3.823588  1.037711
H    1.782995  -3.150045  -0.118222
H    -0.029250  -1.689429  -0.281035
C    -0.682030  -1.881720  1.805698
C    -1.647638  -0.673705  1.909279
C    -1.601506  0.080139  3.249005
N    -0.313843  0.725107  3.510336
C    -0.045558  2.054732  3.621611
N    1.211484  2.455915  3.407114
N    -1.053843  2.899373  3.909924
H    -0.188131  -2.072321  2.773032
H    -1.259989  -2.788405  1.573334
H    -2.675674  -1.035505  1.779807
H    -1.470217  0.037982  1.091648
H    -1.844071  -0.595498  4.082516
H    -2.381940  0.848777  3.226433
H    0.476270  0.126031  3.722947
H    1.376145  3.373858  3.828259
H    -0.911660  3.900798  3.858828
H    -1.901663  2.584205  4.366447
O    2.307826  -0.709183  1.770930
H    2.040329  -2.773847  1.489851
Ca    2.559564  1.610163  1.798131
