27
Energy: -35053.4144755 eV PBE+vdW (tier 2 basis)
N    1.205430  -0.669606  0.122868
C    -0.217549  -0.149150  0.289287
C    -0.050913  1.282913  0.829612
O    -0.925258  2.148970  0.566637
H    1.620802  -0.385428  -0.775010
H    1.764606  -0.230388  0.883711
H    -0.694041  -0.138483  -0.698274
C    -0.959955  -1.077997  1.276847
C    -2.498954  -0.999009  1.371186
C    -3.171452  0.271230  1.926262
N    -2.512574  0.750313  3.150918
C    -2.087682  2.006819  3.390912
N    -1.092942  2.387267  4.162114
N    -2.634065  3.094662  2.664671
H    -0.497292  -0.962760  2.269922
H    -0.746227  -2.112953  0.964095
H    -2.798092  -1.853056  1.996970
H    -2.945452  -1.192967  0.385296
H    -4.229812  0.047489  2.118846
H    -3.124273  1.064488  1.172151
H    -2.109107  0.037498  3.753429
H    -0.701098  1.654238  4.757361
H    -3.013668  3.790541  3.310566
H    -3.331947  2.861095  1.960208
O    0.951865  1.503249  1.589278
H    1.263290  -1.694941  0.189683
Ca    -0.142962  3.473427  2.319325
