27
Energy: -35053.768256 eV PBE+vdW (tier 2 basis)
N    -0.079775  0.357579  0.713822
C    -0.945346  -0.629205  1.486558
C    -0.067203  -1.187632  2.608296
O    -0.616730  -1.871034  3.513007
H    -0.201320  0.283766  -0.304194
H    -0.266554  1.331688  0.984402
H    -1.775655  -0.067925  1.932448
C    -1.519066  -1.744063  0.591884
C    -0.543241  -2.592853  -0.244367
C    0.414736  -3.558206  0.468864
N    -0.285738  -4.556152  1.284555
C    0.298742  -5.268979  2.290710
N    1.203786  -4.710883  3.100160
N    -0.115592  -6.543853  2.442705
H    -2.250241  -1.280603  -0.086957
H    -2.106808  -2.383957  1.265065
H    0.079320  -1.963955  -0.902498
H    -1.163264  -3.169127  -0.948195
H    1.128865  -3.027721  1.103888
H    1.015304  -4.063298  -0.305355
H    -1.035805  -5.044459  0.801550
H    1.710291  -5.457260  3.585823
H    0.091221  -7.062636  3.287662
H    -0.617450  -7.040695  1.715792
O    1.199234  -1.003954  2.533488
H    0.905782  0.133214  0.975577
Ca    1.384400  -2.693449  4.128437
