27
Energy: -35051.5426356 eV PBE+vdW (tier 2 basis)
N    0.063729  0.653931  0.319825
C    0.330116  0.114728  1.664594
C    1.792083  -0.361649  1.686024
O    2.165244  -1.514433  1.475893
H    -0.851620  1.107882  0.306690
H    0.735606  1.378177  0.059859
H    0.258417  0.881791  2.463017
C    -0.673594  -1.006960  2.043193
C    -1.413681  -1.768973  0.923464
C    -0.592894  -2.421981  -0.197716
N    0.538407  -3.199816  0.320036
C    0.847516  -4.443651  0.078938
N    0.232498  -5.388704  -0.629551
N    2.104048  -4.962542  0.642978
H    -1.456937  -0.546962  2.660434
H    -0.166398  -1.713546  2.716007
H    -2.120050  -1.097433  0.416094
H    -2.031425  -2.534394  1.415571
H    -0.162044  -1.635196  -0.834376
H    -1.239830  -3.054007  -0.819383
H    1.217854  -2.590279  0.876102
H    -0.659378  -5.114248  -1.043544
H    2.040913  -4.993892  1.667935
H    2.878232  -4.315975  0.447371
O    2.727897  0.550792  1.936875
H    2.341039  1.415958  2.170076
Ca    1.688029  -7.007586  -0.585841
