27
Energy: -35053.411329 eV PBE+vdW (tier 2 basis)
N    0.268099  0.883674  0.034203
C    0.161351  0.219505  1.386963
C    1.457107  -0.606159  1.627083
O    2.534623  -0.060014  1.103651
H    -0.042305  0.206041  -0.673676
H    -0.433061  1.630406  -0.016701
H    0.192065  1.039886  2.124620
C    -1.122614  -0.595208  1.591542
C    -1.427295  -0.825969  3.080680
C    -2.441957  -1.933112  3.377289
N    -2.166771  -3.271501  2.801665
C    -1.220430  -4.142884  3.212153
N    -0.018857  -3.712171  3.603871
N    -1.500694  -5.455366  3.207761
H    -1.017369  -1.558828  1.068553
H    -1.968360  -0.067927  1.123837
H    -1.842256  0.093793  3.520522
H    -0.500552  -1.020400  3.633611
H    -3.425306  -1.657156  2.976879
H    -2.553781  -2.029924  4.466851
H    -2.954793  -3.699176  2.326519
H    0.618877  -4.359903  4.053402
H    -0.764337  -6.150759  3.249061
H    -2.456079  -5.792357  3.230857
O    1.451906  -1.649683  2.260309
H    0.399122  -2.863951  3.199228
Ca    2.639004  1.410542  -0.286606
