27
Energy: -35051.8840511 eV PBE+vdW (tier 2 basis)
N    0.092506  -0.800423  -0.231259
C    -0.087522  -0.102344  1.051343
C    1.340385  0.255900  1.545002
O    1.589425  0.974556  2.524663
H    -0.202218  -0.246217  -1.033862
H    -0.386987  -1.698872  -0.272410
H    -0.611613  0.856061  0.907526
C    -0.910510  -0.964162  2.038800
C    -1.197702  -0.358103  3.427069
C    -0.120866  -0.733161  4.455988
N    -0.105859  0.083333  5.694590
C    0.303459  1.340716  5.819678
N    0.542313  2.006020  6.941705
N    0.591113  2.146399  4.660199
H    -0.427587  -1.949072  2.148409
H    -1.872440  -1.152594  1.543405
H    -2.171296  -0.717705  3.784242
H    -1.298447  0.732251  3.332654
H    0.883175  -0.690774  4.018798
H    -0.275190  -1.764668  4.792984
H    -0.270182  -0.422025  6.563365
H    0.331478  1.520290  7.815487
H    -0.278869  2.598921  4.353405
H    0.941390  1.608371  3.795912
O    2.287533  -0.263396  0.817907
H    1.745163  -0.738374  0.077215
Ca    1.817541  3.594094  6.094829
