27
Energy: -35052.1017881 eV PBE+vdW (tier 2 basis)
N    0.541973  -0.173483  0.343357
C    0.197413  -0.555167  1.763994
C    1.388112  -1.364877  2.349561
O    2.556655  -1.012669  1.878977
H    0.256564  -0.950548  -0.266583
H    -0.072123  0.597414  0.059233
H    0.179500  0.390883  2.332225
C    -1.158670  -1.260248  1.904695
C    -1.716303  -1.207412  3.338311
C    -2.738542  -2.310417  3.662916
N    -2.334114  -3.684054  3.308761
C    -1.432280  -4.499474  3.930878
N    -1.218153  -5.745975  3.908294
N    -0.405426  -3.768019  4.751248
H    -1.047412  -2.307833  1.584049
H    -1.881305  -0.792805  1.219033
H    -2.221251  -0.245870  3.511394
H    -0.889685  -1.226962  4.060893
H    -3.659834  -2.131587  3.095455
H    -3.025820  -2.244940  4.724795
H    -3.021338  -4.202595  2.770870
H    -1.888913  -6.301194  3.371257
H    0.191039  -4.516983  5.133190
H    -0.812952  -3.243123  5.535772
O    1.233859  -2.239673  3.196215
H    0.187382  -3.118215  4.155902
Ca    2.970977  0.118880  0.236086
