27
Energy: -35052.143508 eV PBE+vdW (tier 2 basis)
N    0.342364  -0.074298  0.513590
C    -0.052641  -0.391396  1.937137
C    0.771699  0.466081  2.918784
O    1.911775  0.909612  2.455960
H    0.180195  -0.909797  -0.060393
H    -0.326025  0.610150  0.141320
H    -1.110405  -0.131960  2.081410
C    0.151879  -1.901679  2.200781
C    -0.013634  -2.370873  3.654011
C    -1.416587  -2.154833  4.253037
N    -1.468775  -2.393464  5.697619
C    -0.981174  -1.559648  6.663872
N    -0.568316  -1.722127  7.847006
N    -1.048247  -0.098532  6.285016
H    1.167372  -2.180077  1.872084
H    -0.547793  -2.450162  1.549430
H    0.734358  -1.877441  4.291156
H    0.225163  -3.443349  3.689004
H    -2.146571  -2.831100  3.789336
H    -1.786184  -1.139890  4.051675
H    -1.497901  -3.369184  5.982472
H    -0.488286  -2.693601  8.157880
H    -0.622301  0.388882  7.086727
H    -2.024957  0.215100  6.199884
O    0.367990  0.670367  4.061067
H    -0.530867  0.161293  5.400063
Ca    2.589005  0.902333  0.532853
