27
Energy: -35051.3922283 eV PBE+vdW (tier 2 basis)
N    0.403447  -0.445072  0.366033
C    0.251712  -0.298178  1.795458
C    1.497524  -0.745141  2.550725
O    1.660771  -0.542674  3.760008
H    -0.434270  -0.155987  -0.136211
H    1.195686  0.073150  -0.010025
H    0.099729  0.748428  2.144018
C    -0.976091  -1.149236  2.229250
C    -1.289418  -1.234653  3.727730
C    -1.689802  0.100737  4.363570
N    -1.668990  0.047275  5.873723
C    -0.491459  0.563248  6.558413
N    -0.823503  1.057051  7.745350
N    0.686724  0.543024  5.978298
H    -0.824985  -2.164478  1.838475
H    -1.845848  -0.743864  1.688989
H    -0.422830  -1.651229  4.262496
H    -2.112490  -1.953855  3.862867
H    -2.708151  0.378475  4.058201
H    -1.028312  0.921291  4.060167
H    -1.761188  -0.942138  6.144863
H    -0.045721  1.352127  8.338725
H    0.914094  0.099096  5.040815
H    1.477967  0.971186  6.455505
O    2.400028  -1.368804  1.813178
H    3.163357  -1.611077  2.378653
Ca    -2.982197  1.280649  7.513625
