27
Energy: -35053.2841722 eV PBE+vdW (tier 2 basis)
N    1.498434  -0.194110  -0.306889
C    0.814216  -0.271755  1.042365
C    0.712867  -1.809387  1.291353
O    0.160906  -2.167605  2.402791
H    0.929474  0.263530  -1.028024
H    2.413953  0.267506  -0.275108
H    1.484781  0.183986  1.782928
C    -0.561115  0.419942  1.044221
C    -1.085813  0.694461  2.463926
C    -2.603664  0.870981  2.571578
N    -3.422404  -0.213800  1.999917
C    -3.960592  -1.240886  2.712721
N    -3.266855  -1.842102  3.688456
N    -5.201886  -1.635298  2.362279
H    -1.273071  -0.213514  0.491633
H    -0.489746  1.375484  0.502364
H    -0.617329  1.604580  2.866755
H    -0.767658  -0.113110  3.136810
H    -2.909075  1.787752  2.050269
H    -2.875437  1.002335  3.627322
H    -3.942081  0.038780  1.165621
H    -3.930996  -2.323843  4.304479
H    -5.580737  -2.518864  2.681967
H    -5.826907  -1.037045  1.833565
O    1.131303  -2.554926  0.408647
H    1.615140  -1.237135  -0.534154
Ca    -1.174680  -2.700641  3.886321
