27
Energy: -35052.4192026 eV PBE+vdW (tier 2 basis)
N    1.405488  0.619337  0.822727
C    1.216505  -0.168443  2.023682
C    2.497995  -0.979191  2.208874
O    3.280112  -1.174263  1.265943
H    0.637939  1.285873  0.724819
H    -5.028885  -0.306021  2.535121
H    1.098716  0.457604  2.935787
C    -0.021167  -1.130638  1.919891
C    -0.519908  -1.838017  3.192781
C    -1.398421  -1.004938  4.135319
N    -2.751480  -0.842630  3.581453
C    -3.714008  -0.065037  4.102937
N    -4.890095  0.054689  3.471023
N    -3.495763  0.618172  5.233392
H    0.209524  -1.882054  1.151538
H    -0.826093  -0.512256  1.494549
H    0.313987  -2.241312  3.785978
H    -1.081222  -2.741188  2.904102
H    -0.968989  -0.003641  4.295798
H    -1.456386  -1.513801  5.111289
H    -3.043853  -1.526902  2.890024
H    -5.694833  0.468036  3.927380
H    -4.167319  1.298174  5.570635
H    -2.735355  0.378462  5.856680
O    2.814597  -1.508049  3.380310
H    2.197321  -1.223043  4.078856
Ca    3.053856  0.229972  -0.452581
