27
Energy: -35051.6348038 eV PBE+vdW (tier 2 basis)
N    0.387585  0.138079  -0.068327
C    -0.339318  0.271811  1.168106
C    0.373820  0.916934  2.371926
O    -0.152155  1.050462  3.488914
H    1.214403  -0.452226  0.018704
H    0.676389  1.032209  -0.461598
H    -1.168164  0.976775  0.970297
C    -0.939968  -1.100147  1.609720
C    -2.472927  -1.200395  1.608357
C    -3.220874  -0.147861  2.443884
N    -2.603786  0.063297  3.762254
C    -3.135510  -0.147892  4.935895
N    -4.329405  -0.611528  5.295900
N    -2.335493  0.183524  6.125569
H    -0.548292  -1.390372  2.595463
H    -0.561756  -1.847926  0.902311
H    -2.752975  -2.205155  1.956395
H    -2.852705  -1.111956  0.579963
H    -4.277266  -0.422522  2.554838
H    -3.204070  0.832020  1.944164
H    -1.606426  0.454071  3.707529
H    -4.944483  -0.886009  4.528721
H    -1.951848  1.132987  6.045346
H    -1.511477  -0.428317  6.174483
O    1.599082  1.344285  2.118017
H    1.973229  1.763849  2.920579
Ca    -4.281198  -0.377956  7.462854
