27
Energy: -35052.2361091 eV PBE+vdW (tier 2 basis)
N    -0.621655  -0.777387  0.452658
C    -0.304648  -0.076206  1.685004
C    0.985544  0.709520  1.433369
O    1.636872  0.567832  0.385343
H    -1.503298  -1.281952  0.547837
H    -5.664011  -0.190890  2.017381
H    -1.053311  0.711616  1.938047
C    -0.127113  -0.972515  2.953130
C    -1.380010  -1.301722  3.781748
C    -2.434538  -2.249532  3.188406
N    -3.506260  -1.533098  2.471531
C    -4.740014  -2.016870  2.258936
N    -5.728174  -1.191892  1.878535
N    -4.988866  -3.322704  2.410462
H    0.575316  -0.494192  3.654426
H    0.367747  -1.899117  2.625956
H    -1.875128  -0.378283  4.125074
H    -1.022730  -1.784291  4.701780
H    -2.906492  -2.806529  4.010279
H    -1.955667  -2.979504  2.516104
H    -3.354374  -0.555487  2.248137
H    -6.624351  -1.552666  1.572569
H    -5.937658  -3.678572  2.424290
H    -4.243173  -3.995521  2.534373
O    1.444401  1.571967  2.318637
H    0.872239  1.639396  3.106724
Ca    0.736083  -0.683305  -1.191237
