27
Energy: -35052.1302642 eV PBE+vdW (tier 2 basis)
N    0.367163  0.366930  0.811939
C    -0.811359  -0.040762  1.663246
C    -0.476805  0.236905  3.150948
O    0.332733  1.246241  3.341297
H    1.030886  -0.416777  0.778508
H    0.047660  0.460818  -0.158473
H    -1.610136  0.682538  1.425341
C    -1.376194  -1.438430  1.388735
C    -0.499683  -2.655345  1.786708
C    -1.190102  -3.635890  2.736871
N    -1.192997  -3.135672  4.172904
C    -2.236858  -3.804226  5.028540
N    -1.855383  -4.914733  5.490375
N    -3.408352  -3.105137  5.025823
H    -1.632624  -1.500958  0.321766
H    -2.343959  -1.485982  1.908667
H    0.465553  -2.346875  2.223860
H    -0.236671  -3.231427  0.890118
H    -0.698562  -4.614344  2.753635
H    -2.238988  -3.788387  2.454548
H    -0.300941  -3.393800  4.614747
H    -2.535862  -5.402422  6.078511
H    -4.166416  -3.473928  5.592313
H    -3.396477  -2.092302  4.951382
O    -0.984549  -0.420548  4.055226
H    -1.253586  -2.081727  4.175006
Ca    1.390442  2.291508  1.942657
