27
Energy: -35051.4781429 eV PBE+vdW (tier 2 basis)
N    0.394799  0.773580  1.082490
C    -0.119998  -0.072820  2.242907
C    1.324684  0.172568  2.029834
O    2.129065  0.941513  2.768972
H    0.389683  0.219183  0.218696
H    -0.959389  2.630320  1.207499
H    -0.548843  0.564349  3.022656
C    -0.868474  -1.374211  2.029820
C    -2.404548  -1.232630  2.088451
C    -3.089795  -0.534933  0.904271
N    -2.636331  0.843098  0.659468
C    -2.854981  1.915988  1.437661
N    -1.915387  2.869273  1.478959
N    -3.976879  2.019753  2.162484
H    -0.579421  -2.074704  2.829547
H    -0.574326  -1.849718  1.076633
H    -2.679727  -0.724180  3.025480
H    -2.844248  -2.238070  2.155690
H    -4.178461  -0.550428  1.047448
H    -2.910161  -1.078655  -0.032128
H    -1.864513  0.956667  0.012259
H    -2.119903  3.810647  1.793024
H    -4.095355  2.769283  2.833629
H    -4.802392  1.484289  1.920660
O    2.189217  -0.927591  1.519608
H    1.702159  -1.751776  1.347263
Ca    3.936864  0.033160  2.665023
