27
Energy: -35053.2585331 eV PBE+vdW (tier 2 basis)
N    0.802921  -1.232850  0.688608
C    -0.177213  -0.117639  0.846248
C    0.585385  1.092662  1.379254
O    1.636855  0.953697  2.016428
H    0.273384  -2.096235  0.533689
H    1.317989  -1.092993  -0.189067
H    -0.611048  0.143077  -0.132443
C    -1.351013  -0.538033  1.793138
C    -1.462822  -0.029209  3.246907
C    -0.337503  -0.249648  4.268894
N    0.342824  -1.586723  4.134152
C    1.281877  -1.858641  5.194034
N    2.500870  -1.482946  4.917292
N    0.834097  -2.467948  6.297978
H    -1.371768  -1.638290  1.781387
H    -2.286511  -0.241472  1.301855
H    -2.381561  -0.493013  3.635174
H    -1.674229  1.050401  3.255138
H    -0.768196  -0.139441  5.275695
H    0.439563  0.520602  4.188243
H    -0.362659  -2.327155  4.086575
H    3.172368  -1.576972  5.681896
H    1.465803  -2.730930  7.049448
H    -0.154155  -2.624665  6.463850
O    0.102996  2.303826  1.213790
H    -0.693833  2.332997  0.647894
Ca    2.383501  -1.092373  2.643734
