27
Energy: -35052.2822722 eV PBE+vdW (tier 2 basis)
N    -0.347188  0.045936  -0.159252
C    -0.089452  -0.435104  1.249484
C    1.170690  -1.339155  1.220523
O    2.076673  -0.966599  0.353858
H    -0.903998  -0.675320  -0.636152
H    -0.979303  0.852520  -0.114156
H    0.207702  0.460072  1.822729
C    -1.315532  -1.079693  1.907444
C    -1.209600  -1.209247  3.451520
C    -1.487336  -2.609057  3.988890
N    -0.401174  -3.601482  3.566087
C    -0.914681  -4.808727  2.844015
N    -1.351819  -4.552451  1.680572
N    -0.792055  -5.949798  3.561706
H    -1.486368  -2.067700  1.449016
H    -2.196520  -0.468320  1.667457
H    -1.942424  -0.545676  3.929507
H    -0.229300  -0.867815  3.815914
H    -2.434445  -3.004302  3.606582
H    -1.523726  -2.611653  5.083946
H    0.175722  -3.860043  4.373706
H    -1.737506  -5.364930  1.193973
H    -1.115366  -6.824609  3.163496
H    -0.554586  -5.970256  4.546193
O    1.307200  -2.300921  1.971801
H    0.256665  -3.095823  2.883610
Ca    1.836434  0.282640  -1.236501
