27
Energy: -35052.1949177 eV PBE+vdW (tier 2 basis)
N    1.077347  0.573808  0.314357
C    0.350164  0.287681  1.569957
C    1.258021  -0.252596  2.673366
O    0.804898  -0.350562  3.871522
H    0.134720  0.609791  -1.092757
H    1.572267  1.465359  0.398054
H    -0.037011  1.240987  1.961288
C    -0.884500  -0.627885  1.378812
C    -0.666066  -2.007386  0.737100
C    -0.534242  -2.060975  -0.800132
N    -1.646692  -1.442227  -1.524227
C    -1.777995  -0.130587  -1.874529
N    -2.762218  0.609054  -2.171417
N    -0.464038  0.582129  -2.015343
H    -1.631349  -0.056070  0.808882
H    -1.331292  -0.764465  2.372616
H    -1.523613  -2.636385  1.016886
H    0.215420  -2.514160  1.164241
H    -0.488314  -3.111652  -1.114852
H    0.407658  -1.616585  -1.145360
H    -2.524365  -1.955299  -1.510570
H    -3.683745  0.175255  -2.073595
H    -0.729203  1.536450  -2.297321
H    0.101137  0.170616  -2.770463
O    2.470667  -0.603065  2.424142
H    1.815959  -0.124355  0.182139
Ca    2.742869  -1.002852  4.563832
