27
Energy: -35051.3153079 eV PBE+vdW (tier 2 basis)
N    0.394530  -0.246644  0.850948
C    -0.073780  -0.915274  2.134351
C    1.147245  -1.185010  3.002655
O    0.978688  -1.504368  4.222870
H    0.521216  0.768854  0.957494
H    -0.299576  -0.406645  0.103173
H    -0.737801  -0.206643  2.648178
C    -0.847992  -2.210363  1.814267
C    -2.059783  -1.970502  0.906078
C    -3.086738  -3.139320  0.949763
N    -4.339564  -2.804768  0.329322
C    -5.185737  -1.836319  0.868882
N    -5.091570  -1.303939  2.046842
N    -6.167437  -1.398401  0.010911
H    -1.180734  -2.604040  2.786206
H    -0.163692  -2.961390  1.387863
H    -1.758281  -1.830963  -0.147211
H    -2.596652  -1.061291  1.224233
H    -3.259931  -3.420798  2.001379
H    -2.681052  -4.030079  0.453386
H    -4.432299  -3.008573  -0.659839
H    -4.352940  -1.725634  2.612650
H    -6.885738  -0.843053  0.465109
H    -6.517204  -2.031219  -0.700176
O    2.321675  -1.134750  2.483855
H    1.306527  -0.644150  0.569889
Ca    3.148826  -1.721570  4.491273
