27
Energy: -35053.3230124 eV PBE+vdW (tier 2 basis)
N    0.815582  -0.379574  0.230508
C    0.018795  -0.456801  1.518499
C    0.994260  -1.099170  2.533462
O    0.606170  -1.083874  3.761190
H    0.322798  -0.771686  -0.580001
H    1.106310  0.577029  -0.002975
H    -0.205161  0.567542  1.840260
C    -1.304656  -1.235049  1.378057
C    -1.341362  -2.574919  0.615042
C    -0.348378  -3.698513  0.984113
N    -0.079867  -3.878574  2.410347
C    -0.925046  -4.287022  3.385230
N    -0.590916  -4.041948  4.660435
N    -2.079816  -4.880334  3.020784
H    -2.042402  -0.571380  0.905563
H    -1.662799  -1.379928  2.406342
H    -1.236179  -2.413251  -0.470809
H    -2.371358  -2.940995  0.726473
H    0.635728  -3.511339  0.538517
H    -0.691676  -4.638459  0.524058
H    0.879145  -3.723633  2.697418
H    -1.123735  -4.648183  5.290042
H    -2.764982  -5.137828  3.721011
H    -2.180824  -5.318940  2.112379
O    2.034714  -1.605911  2.095214
H    1.674971  -0.956007  0.465294
Ca    0.527880  -2.267506  5.495920
