27
Energy: -35053.1494225 eV PBE+vdW (tier 2 basis)
N    1.346383  -0.466388  1.279831
C    0.055140  -0.035749  1.896046
C    0.388814  0.595579  3.242808
O    1.408393  0.283751  3.868817
H    1.768937  0.336445  0.798841
H    1.135111  -1.129310  0.527044
H    -0.425678  0.738920  1.276595
C    -0.920307  -1.262871  1.987293
C    -1.789160  -1.504858  3.251408
C    -1.409164  -2.713402  4.126985
N    -0.247416  -2.514368  5.009774
C    1.034135  -2.666645  4.651078
N    1.516192  -3.124690  3.514783
N    2.041497  -2.135348  5.494275
H    -0.308819  -2.155649  1.804900
H    -1.582868  -1.179429  1.117793
H    -2.816504  -1.697828  2.914871
H    -1.866091  -0.614363  3.890977
H    -1.252494  -3.611799  3.512209
H    -2.251942  -2.951225  4.786645
H    -0.446273  -2.297191  5.982365
H    0.852246  -3.662133  2.956502
H    2.670326  -2.860198  5.848100
H    1.717355  -1.538798  6.256530
O    -0.424986  1.483086  3.774777
H    -1.165166  1.730486  3.185680
Ca    2.861267  -1.309238  3.171267
