27
Energy: -35051.9219201 eV PBE+vdW (tier 2 basis)
N    -0.053325  0.145728  -0.147098
C    -0.015660  0.205992  1.333671
C    1.396632  0.068776  1.879318
O    1.583685  0.057577  3.149705
H    -0.939938  -1.171201  -0.594225
H    -0.487187  0.988101  -0.527955
H    -0.318807  1.212583  1.672257
C    -1.021032  -0.770984  1.988895
C    -0.785808  -2.289397  1.848497
C    -0.496537  -2.865329  0.452699
N    -1.331537  -2.206033  -0.610098
C    -1.302653  -2.703038  -2.051312
N    -2.243593  -2.481226  -2.858340
N    -0.098143  -3.252658  -2.389861
H    -2.010803  -0.497522  1.592710
H    -1.073654  -0.541904  3.061120
H    -1.673181  -2.786896  2.265392
H    0.047857  -2.603062  2.493867
H    -0.685556  -3.945805  0.443487
H    0.546855  -2.688631  0.161351
H    -2.319329  -2.197726  -0.332089
H    -3.043896  -1.945555  -2.519797
H    -0.070054  -3.576356  -3.354870
H    0.367123  -3.878336  -1.741119
O    2.411981  0.023134  1.090203
H    0.898046  0.114548  -0.525488
Ca    3.720280  0.216378  2.845609
