27
Energy: -35053.3513001 eV PBE+vdW (tier 2 basis)
N    -0.318100  0.801510  0.336250
C    -0.415319  0.195456  1.720735
C    0.997294  0.475979  2.326320
O    1.160588  0.097735  3.546736
H    -0.464508  0.122481  -0.418974
H    -0.943485  1.599588  0.182962
H    -1.143977  0.791120  2.286970
C    -0.799972  -1.297953  1.712546
C    -2.237401  -1.633332  2.143641
C    -2.530277  -1.449135  3.642507
N    -1.634266  -2.261649  4.473386
C    -0.794912  -1.780235  5.403375
N    -0.785359  -0.601730  5.977211
N    0.352436  -2.559143  5.732852
H    -0.092613  -1.828883  2.363858
H    -0.620621  -1.712413  0.709169
H    -2.445975  -2.677450  1.865635
H    -2.971999  -1.032999  1.586015
H    -3.574563  -1.713496  3.855756
H    -2.401241  -0.401932  3.946302
H    -1.626425  -3.263095  4.294690
H    -1.650959  -0.069256  5.886093
H    0.352455  -2.846830  6.715026
H    0.517287  -3.371669  5.137339
O    1.819370  1.034509  1.601593
H    0.707169  1.134632  0.346577
Ca    1.446949  -0.214650  5.590951
