27
Energy: -35051.1614518 eV PBE+vdW (tier 2 basis)
N    -0.403747  -0.388084  -0.111813
C    -0.391224  -0.215971  1.323618
C    0.998968  0.058791  1.911146
O    2.047884  -0.383335  1.542904
H    -0.041109  0.429412  -0.601404
H    0.163045  -1.187911  -0.398561
H    -1.025311  0.656659  1.555981
C    -0.993226  -1.487719  1.972586
C    -1.128661  -1.555375  3.500141
C    -2.121850  -0.586458  4.147583
N    -1.586311  0.797005  4.193363
C    -2.221348  1.881950  4.570803
N    -1.775517  3.133542  4.592361
N    -3.598963  1.815212  5.057364
H    -0.370976  -2.339294  1.659280
H    -1.973482  -1.636454  1.496559
H    -0.153385  -1.467050  4.004176
H    -1.486780  -2.562939  3.753890
H    -2.330206  -0.913639  5.177867
H    -3.069804  -0.586119  3.586743
H    -0.598090  0.910030  3.872748
H    -0.824057  3.263526  4.241150
H    -3.687387  1.123910  5.812225
H    -4.226446  1.478814  4.315993
O    0.931867  0.939129  3.016642
H    1.850501  1.023112  3.347125
Ca    -3.447605  4.223802  5.479721
