27
Energy: -35049.7737682 eV PBE+vdW (tier 2 basis)
N    -0.117198  0.268965  -0.542853
C    -0.291022  -0.067691  0.869125
C    1.119893  0.185403  1.392539
O    1.523122  1.346750  1.694151
H    0.086328  -0.535639  -1.132478
H    -0.906308  0.782470  -0.928017
H    -0.910281  0.716379  1.326285
C    -0.927257  -1.428399  1.221073
C    -0.277143  -2.709001  0.670331
C    -1.214214  -3.947608  0.748808
N    -2.377239  -3.855095  -0.109357
C    -3.605896  -3.292192  0.205255
N    -4.438983  -2.793407  -0.652136
N    -3.911311  -3.208106  1.551231
H    -1.953655  -1.362568  0.832764
H    -1.032494  -1.502778  2.314610
H    0.624161  -3.010570  1.245474
H    0.034037  -2.592037  -0.380727
H    -1.526921  -4.099224  1.788802
H    -0.641124  -4.839326  0.461841
H    -2.231788  -4.026541  -1.098571
H    -4.122755  -2.870743  -1.622966
H    -4.861228  -2.873838  1.695458
H    -3.685344  -4.012462  2.129631
O    2.002628  -0.771174  1.477259
H    1.591556  -1.647023  1.272333
Ca    2.623247  3.079733  1.904983
