27
Energy: -35052.8488775 eV PBE+vdW (tier 2 basis)
N    0.639938  -0.405276  -0.271701
C    0.680698  -0.295355  1.218723
C    2.064208  -0.794874  1.647585
O    2.660266  -1.640261  0.963728
H    -0.332847  -0.331948  -0.578916
H    1.088563  0.433839  -0.656926
H    0.542920  0.755112  1.521587
C    -0.371433  -1.160318  1.987992
C    -1.836074  -1.155849  1.503314
C    -2.262752  -1.989292  0.274746
N    -2.140656  -3.454753  0.354233
C    -1.098846  -4.138570  -0.191699
N    0.130276  -3.602323  -0.204285
N    -1.316136  -5.351866  -0.716113
H    -0.374480  -0.763725  3.013768
H    -0.010252  -2.193761  2.116053
H    -2.161045  -0.119980  1.313799
H    -2.440685  -1.492401  2.357645
H    -1.754879  -1.674561  -0.648184
H    -3.327423  -1.778721  0.109572
H    -3.001373  -3.968190  0.521006
H    0.118643  -2.942697  0.582094
H    -0.536907  -5.981342  -0.866459
H    -2.248488  -5.710816  -0.887202
O    2.611461  -0.394307  2.769264
H    2.102491  0.302596  3.228999
Ca    1.897610  -2.515826  -0.960078
