27
Energy: -35053.0609416 eV PBE+vdW (tier 2 basis)
N    0.731620  -0.644570  -0.806669
C    -0.249336  -0.164167  0.173866
C    0.412409  1.059161  0.846013
O    -0.182365  1.772598  1.690349
H    1.004207  -1.617378  -0.669717
H    0.450989  -0.516942  -1.778065
H    -1.142983  0.224617  -0.342000
C    -0.656804  -1.214811  1.232783
C    -1.925954  -2.025495  0.931102
C    -3.258902  -1.267932  1.094159
N    -3.342507  -0.586844  2.396519
C    -3.211359  0.719657  2.660403
N    -2.934929  1.291290  3.812403
N    -3.312246  1.692531  1.611662
H    -0.764226  -0.717126  2.206824
H    0.188875  -1.905942  1.363485
H    -1.938476  -2.895234  1.604684
H    -1.901667  -2.445339  -0.085612
H    -4.097555  -1.971910  1.015100
H    -3.414072  -0.533331  0.293240
H    -3.240248  -1.200752  3.204067
H    -2.937867  0.671941  4.625577
H    -4.212111  2.178551  1.688024
H    -3.248125  1.310193  0.668467
O    1.615407  1.286224  0.464608
H    1.737781  0.510653  -0.245515
Ca    -1.545414  2.885479  2.921054
