27
Energy: -35051.0886509 eV PBE+vdW (tier 2 basis)
N    0.076278  -0.115519  -0.274011
C    0.189655  -0.130322  1.170353
C    1.490414  -0.839033  1.516393
O    1.969911  -1.774447  0.944200
H    0.329770  -1.019484  -0.675365
H    -0.863128  0.126796  -0.585061
H    0.272040  0.915447  1.517744
C    -1.000608  -0.819774  1.911378
C    -0.998089  -0.885053  3.448768
C    -1.053686  0.447478  4.202694
N    0.256163  1.144723  4.170861
C    0.531857  2.351126  4.610151
N    1.686023  3.005119  4.548299
N    -0.487070  3.159996  5.277403
H    -1.074361  -1.847793  1.528831
H    -1.913649  -0.303098  1.575506
H    -0.152191  -1.479289  3.828085
H    -1.895004  -1.441096  3.756477
H    -1.323559  0.259955  5.253275
H    -1.821184  1.103485  3.762159
H    1.034208  0.615257  3.720609
H    2.441496  2.513183  4.065740
H    -0.923722  2.638082  6.046971
H    -1.257070  3.374080  4.631230
O    2.097149  -0.299435  2.661255
H    2.881784  -0.859497  2.837415
Ca    1.254716  4.851807  5.635174
