27
Energy: -35049.9588138 eV PBE+vdW (tier 2 basis)
N    0.513861  -0.117441  0.089213
C    -0.007018  -0.085154  1.450083
C    1.350244  0.012393  2.115426
O    1.947491  1.124372  2.313248
H    0.511004  -1.034740  -0.395260
H    0.210179  0.640703  -0.512892
H    -0.541907  0.856139  1.638294
C    -0.867932  -1.277738  1.886977
C    -2.251550  -1.274369  1.198960
C    -2.751642  -2.665358  0.758562
N    -1.801322  -3.384258  -0.100603
C    -1.119872  -2.745538  -1.128152
N    0.169447  -2.799691  -1.326546
N    -1.878851  -1.916224  -1.912100
H    -0.980332  -1.268493  2.981300
H    -0.342124  -2.215059  1.623247
H    -2.212812  -0.633998  0.306127
H    -3.000395  -0.831380  1.868890
H    -3.720310  -2.546714  0.251539
H    -2.941259  -3.312415  1.624151
H    -1.261786  -4.111077  0.356194
H    0.624348  -3.467793  -0.697686
H    -1.410869  -1.601779  -2.756243
H    -2.856217  -2.156180  -2.040915
O    2.033758  -1.054641  2.453106
H    1.494048  -1.866427  2.341007
Ca    3.430250  2.481855  2.633921
