27
Energy: -35051.8685315 eV PBE+vdW (tier 2 basis)
N    -0.408386  1.276933  1.203375
C    0.322512  0.196955  1.964709
C    1.090554  -0.577724  0.880078
O    0.842335  -0.419015  -0.300132
H    -0.374647  0.957825  0.207937
H    0.075936  2.178869  1.252797
H    1.031850  0.663772  2.660977
C    -0.664263  -0.720345  2.706523
C    -1.298666  -0.149870  3.986917
C    -1.960354  1.238630  3.880054
N    -2.726527  1.401271  2.648197
C    -4.003118  1.561576  2.600775
N    -4.778733  1.715435  1.503039
N    -4.904018  1.622874  3.798587
H    -0.117371  -1.632730  2.977950
H    -1.441758  -1.035831  1.993416
H    -0.542380  -0.095329  4.783488
H    -2.043997  -0.884327  4.325536
H    -1.178817  2.017444  3.881835
H    -2.545670  1.417657  4.795844
H    -1.425230  1.386843  1.565902
H    -4.251356  1.683185  0.630213
H    -4.831879  0.754436  4.339162
H    -4.590207  2.360568  4.438143
O    1.986237  -1.408956  1.400057
H    2.437202  -1.895108  0.677952
Ca    -6.750745  1.980745  2.300336
