27
Energy: -35053.3189178 eV PBE+vdW (tier 2 basis)
N    2.122131  -0.657843  0.209518
C    1.363918  -0.526669  1.456468
C    1.321817  -1.976035  1.941082
O    0.509061  -2.824138  1.406223
H    2.778447  0.104753  0.063474
H    1.521478  -0.754583  -0.607227
H    1.988763  0.015777  2.179203
C    -0.010417  0.148415  1.324626
C    -0.755032  0.325340  2.654461
C    -2.091662  1.065366  2.544549
N    -1.897991  2.490220  2.233695
C    -2.850073  3.323857  1.789925
N    -2.529692  4.579618  1.443239
N    -4.115974  2.906576  1.664971
H    -0.630891  -0.436445  0.627168
H    0.166158  1.123972  0.845741
H    -0.116861  0.838296  3.393847
H    -0.982315  -0.657266  3.094061
H    -2.642330  0.965024  3.493605
H    -2.699984  0.619599  1.743168
H    -1.035549  2.916522  2.559220
H    -3.242175  5.285589  1.301373
H    -4.809028  3.472490  1.189696
H    -4.442419  2.064565  2.121361
O    2.201831  -2.395135  2.781779
H    -1.566008  4.869668  1.333813
Ca    1.792742  -4.399710  2.144077
