27
Energy: -35053.4441846 eV PBE+vdW (tier 2 basis)
N    0.322685  -0.740067  -0.091063
C    0.217312  -0.350498  1.368801
C    1.706829  -0.158764  1.788853
O    1.895744  0.414977  2.927368
H    -0.222977  -1.573253  -0.339235
H    0.070250  0.017967  -0.735108
H    -0.302461  0.613164  1.427296
C    -0.538943  -1.449914  2.150676
C    -0.351434  -1.461646  3.676355
C    -0.816701  -0.198015  4.413894
N    0.000746  0.002545  5.664016
C    -0.235152  1.261597  6.327969
N    0.612169  2.193878  5.984105
N    -1.236318  1.338542  7.212535
H    -0.194760  -2.430787  1.786387
H    -1.607970  -1.378250  1.899389
H    0.709046  -1.643617  3.900593
H    -0.891979  -2.335711  4.065573
H    -1.888089  -0.257856  4.658135
H    -0.673338  0.704851  3.807960
H    -0.161736  -0.780186  6.304882
H    0.426207  3.120038  6.373928
H    -1.400220  2.181023  7.756620
H    -1.890783  0.576216  7.350145
O    2.566343  -0.568051  1.009869
H    1.376359  -0.929391  -0.166809
Ca    2.255735  0.971547  4.907616
