27
Energy: -35051.5574865 eV PBE+vdW (tier 2 basis)
N    -0.390425  -0.617806  -0.142419
C    0.512447  -0.441393  0.994135
C    1.866422  -1.075174  0.688936
O    2.549322  -1.758261  1.460962
H    0.045881  -0.312662  -1.012882
H    -1.223471  -0.039961  -0.019889
H    0.796889  0.620636  1.175757
C    -0.134609  -0.940213  2.299837
C    -0.941460  -2.252439  2.218903
C    -0.334898  -3.477927  1.513367
N    0.307127  -4.528387  2.357266
C    1.315803  -4.464808  3.213702
N    1.937598  -5.483363  3.793967
N    1.880644  -3.199776  3.620488
H    -0.841291  -0.163213  2.624810
H    0.637222  -0.944260  3.082293
H    -1.859171  -2.033723  1.659636
H    -1.288781  -2.535220  3.224501
H    0.368020  -3.193462  0.721190
H    -1.142492  -4.020458  1.011396
H    -0.016123  -5.471706  2.147503
H    1.607676  -6.418774  3.549969
H    1.179464  -2.665011  4.145555
H    2.113989  -2.582710  2.774155
O    2.296711  -0.757008  -0.525779
H    3.190390  -1.129533  -0.672096
Ca    3.544703  -4.403673  4.826041
