27
Energy: -35052.7467064 eV PBE+vdW (tier 2 basis)
N    0.436351  0.488040  0.597456
C    0.121464  0.194443  1.968227
C    1.376340  0.158168  2.828306
O    1.327717  0.255851  4.083724
H    0.653748  1.466541  0.420447
H    -0.290013  0.188602  -0.048745
H    -0.522189  0.946955  2.474085
C    -0.602211  -1.188542  2.026220
C    -0.932690  -1.779223  3.401149
C    -1.900033  -0.930298  4.237968
N    -1.626994  -1.094969  5.713676
C    -2.301251  -0.128156  6.545595
N    -1.572333  0.933743  6.777774
N    -3.526584  -0.408607  6.994222
H    0.012982  -1.905738  1.465546
H    -1.529358  -1.056643  1.447872
H    -0.003925  -1.954229  3.969241
H    -1.358849  -2.780067  3.246020
H    -2.945779  -1.183566  4.010313
H    -1.784471  0.141542  4.023645
H    -1.848109  -2.053093  6.001471
H    -2.036356  1.687313  7.288634
H    -4.012682  0.213268  7.635196
H    -4.038878  -1.227423  6.682873
O    2.505975  0.013559  2.194149
H    3.265233  -0.001879  2.815563
Ca    0.484433  0.196036  6.092568
