27
Energy: -35052.6691222 eV PBE+vdW (tier 2 basis)
N    0.621768  -0.999976  0.146452
C    0.949759  -0.147286  1.270273
C    2.398212  -0.338668  1.689015
O    3.141404  -1.246182  1.279558
H    -0.375506  -0.943008  -0.062405
H    1.107259  -0.708123  -0.702696
H    0.883229  0.940668  1.046124
C    -0.009032  -0.377480  2.496333
C    -0.664219  -1.760558  2.677771
C    0.208263  -3.016403  2.633215
N    1.345170  -2.967005  3.565199
C    2.546558  -3.471326  3.265587
N    2.878333  -4.215160  2.232481
N    3.683967  -3.020602  3.996060
H    -0.826882  0.347990  2.396893
H    0.516059  -0.087592  3.418872
H    -1.436821  -1.913973  1.911532
H    -1.218605  -1.722125  3.628295
H    0.628208  -3.122233  1.624234
H    -0.412460  -3.898862  2.846142
H    1.178208  -2.622281  4.508130
H    2.095406  -4.666625  1.757273
H    4.156396  -3.785478  4.485700
H    3.512069  -2.250381  4.644029
O    2.926184  0.515334  2.554365
H    2.315171  1.248785  2.771772
Ca    4.569584  -2.874084  1.586705
