27
Energy: -35051.6289403 eV PBE+vdW (tier 2 basis)
N    -0.708510  0.938931  0.372549
C    0.115370  0.150826  1.299194
C    1.414337  -0.222960  0.532784
O    2.360829  -0.842690  1.029667
H    -0.871182  1.893253  0.687954
H    -1.609278  0.511570  0.161470
H    0.441295  0.784012  2.139920
C    -0.664002  -1.058169  1.871621
C    0.046661  -1.910661  2.948494
C    0.827200  -3.086643  2.361288
N    1.765169  -3.727508  3.350100
C    2.847975  -2.922591  3.907825
N    3.197653  -3.387608  5.102396
N    3.320124  -1.891885  3.247500
H    -0.998074  -1.703324  1.042863
H    -1.576993  -0.642657  2.318457
H    -0.719225  -2.293889  3.642991
H    0.708168  -1.258470  3.538939
H    1.398963  -2.781588  1.476716
H    0.140980  -3.883370  2.045173
H    2.223513  -4.504083  2.853436
H    4.015575  -2.948094  5.528780
H    4.058594  -1.331217  3.668658
H    2.902397  -1.512607  2.342013
O    1.433780  0.191423  -0.703234
H    0.540204  0.684798  -0.784732
Ca    1.440411  -4.579835  5.603051
