27
Energy: -35052.9025763 eV PBE+vdW (tier 2 basis)
N    0.454820  -1.097540  -0.854574
C    0.413297  -0.177235  0.287780
C    1.812269  0.316309  0.630915
O    2.852669  -0.251286  0.261674
H    -0.494379  -1.446962  -1.007677
H    0.674772  -0.572206  -1.705143
H    -0.176772  0.731132  0.054661
C    -0.260141  -0.792878  1.559279
C    0.530242  -1.748296  2.478127
C    0.516696  -3.250420  2.154844
N    1.137163  -3.596942  0.869875
C    2.423033  -3.416479  0.571291
N    3.438660  -3.215768  1.380017
N    2.772146  -3.278349  -0.814678
H    -1.195851  -1.263805  1.219048
H    -0.589972  0.053652  2.177774
H    0.086920  -1.667168  3.481070
H    1.566247  -1.396699  2.606542
H    -0.511878  -3.628906  2.113075
H    1.009259  -3.809722  2.962969
H    0.513449  -3.802695  0.096926
H    3.255353  -3.394343  2.368573
H    1.982701  -2.903426  -1.353902
H    3.115716  -4.153199  -1.221737
O    1.946930  1.386580  1.385286
H    1.093555  1.816733  1.595535
Ca    4.469239  -1.705265  0.052664
