27
Energy: -35052.2247073 eV PBE+vdW (tier 2 basis)
N    -0.595134  0.161369  0.399856
C    -0.156554  -0.144070  1.769021
C    1.315635  0.261323  1.971277
O    1.879307  1.004227  1.143864
H    -0.634315  -0.729213  -0.109726
H    -2.536336  -0.018774  0.537819
H    -0.661116  0.568168  2.457744
C    -0.495549  -1.579165  2.264637
C    -1.460137  -1.635189  3.457007
C    -2.846140  -1.030183  3.211068
N    -3.646597  -1.763530  2.221109
C    -4.142122  -1.267415  1.074734
N    -3.557100  -0.231319  0.459825
N    -5.243449  -1.827653  0.548494
H    0.417060  -2.142012  2.514526
H    -0.927640  -2.129490  1.415812
H    -1.033965  -1.110664  4.327459
H    -1.572637  -2.681961  3.775945
H    -2.788060  0.014847  2.880549
H    -3.409580  -1.023669  4.154637
H    -4.031918  -2.653787  2.524177
H    -4.071813  0.243698  -0.272468
H    -5.506138  -1.669008  -0.416818
H    -5.868646  -2.396051  1.108276
O    1.995972  -0.072228  3.045153
H    1.500135  -0.677881  3.629487
Ca    0.723191  1.609728  -0.612334
