27
Energy: -35052.6260624 eV PBE+vdW (tier 2 basis)
N    0.926447  0.974278  2.169843
C    0.844430  -0.192689  3.000137
C    2.186809  -0.891176  3.159769
O    2.308193  -1.872300  3.935117
H    0.018916  1.294394  1.839812
H    1.422876  1.758786  2.588629
H    0.559902  0.004604  4.062706
C    -0.193210  -1.197141  2.415687
C    -1.600684  -1.103715  3.028790
C    -1.936506  -2.131591  4.106330
N    -1.082754  -2.002632  5.353101
C    -1.461333  -2.937446  6.393692
N    -0.638491  -3.947574  6.498404
N    -2.550445  -2.679900  7.121895
H    0.176116  -2.233775  2.487841
H    -0.231360  -0.995547  1.336347
H    -2.348168  -1.260871  2.238214
H    -1.791767  -0.085000  3.403691
H    -1.792538  -3.153865  3.724131
H    -2.999949  -2.041572  4.374635
H    -1.175808  -1.041616  5.700749
H    -0.908342  -4.665004  7.175213
H    -2.836006  -3.289732  7.883738
H    -3.163861  -1.897903  6.917522
O    3.184756  -0.407379  2.478848
H    4.012546  -0.906805  2.652721
Ca    1.143592  -3.208341  5.247690
