27
Energy: -35051.0363194 eV PBE+vdW (tier 2 basis)
N    -0.218011  -0.127322  -0.139521
C    0.163674  -0.894637  1.028793
C    1.602675  -1.473831  1.050096
O    1.943107  -2.387923  1.768177
H    -0.039984  -0.624947  -1.012125
H    0.256781  0.772137  -0.191478
H    0.144307  -0.208279  1.893896
C    -0.833937  -2.036277  1.293990
C    -2.230549  -1.507928  1.630189
C    -3.231409  -2.647122  1.803685
N    -4.580225  -2.101794  2.098017
C    -5.609084  -2.717886  2.656814
N    -6.806382  -2.238646  2.940475
N    -5.502561  -4.121496  3.034215
H    -0.436677  -2.656864  2.108731
H    -0.878922  -2.679073  0.399160
H    -2.561467  -0.836254  0.821198
H    -2.191654  -0.914050  2.557346
H    -2.926011  -3.302813  2.631970
H    -3.288454  -3.253659  0.885905
H    -4.721366  -1.131020  1.814887
H    -6.956601  -1.250129  2.729140
H    -5.149603  -4.690228  2.255504
H    -4.816873  -4.241250  3.790365
O    2.421640  -0.817298  0.206825
H    3.317621  -1.200247  0.303194
Ca    -7.890426  -4.027421  3.673274
