27
Energy: -35052.029536 eV PBE+vdW (tier 2 basis)
N    1.277453  0.362666  2.842324
C    0.533863  -0.784805  3.390321
C    1.490746  -1.975334  3.617804
O    2.688630  -1.741067  3.879591
H    1.288873  0.241006  1.820535
H    -0.179344  1.851939  2.107139
H    0.243348  -0.537175  4.433870
C    -0.773688  -1.082413  2.635297
C    -1.846957  -0.034726  2.990239
C    -2.786456  0.369135  1.857324
N    -2.147864  0.903824  0.626795
C    -1.485961  2.071453  0.505970
N    -0.663893  2.504119  1.472476
N    -1.639169  2.795598  -0.612636
H    -1.179212  -2.082114  2.865067
H    -0.555891  -1.083313  1.555397
H    -1.368088  0.860926  3.407897
H    -2.486079  -0.416511  3.799223
H    -3.510722  1.107292  2.231639
H    -3.361156  -0.500256  1.514982
H    -2.558956  0.564905  -0.237964
H    -0.347507  3.466887  1.459764
H    -0.981013  3.523072  -0.868119
H    -2.450038  2.678411  -1.210053
O    1.103519  -3.228755  3.615775
H    0.156142  -3.315625  3.390645
Ca    3.313035  0.355386  3.672265
