27
Energy: -35053.3225575 eV PBE+vdW (tier 2 basis)
N    0.871476  -0.438815  0.446157
C    0.390398  -0.351346  1.881527
C    1.449984  -1.230239  2.638033
O    1.391166  -1.240496  3.924529
H    1.238312  0.447474  0.082743
H    0.158970  -0.787195  -0.204936
H    0.478662  0.695065  2.202420
C    -1.072943  -0.844565  1.998978
C    -1.929384  -0.261521  3.140142
C    -1.433155  -0.616096  4.539956
N    -2.347841  -0.278193  5.605145
C    -1.979476  -0.427567  6.904417
N    -0.742908  -0.855469  7.183654
N    -2.892647  -0.131123  7.848694
H    -1.084273  -1.944744  2.040220
H    -1.593134  -0.569764  1.069143
H    -2.945942  -0.659587  3.001495
H    -2.002384  0.831597  3.040942
H    -0.500493  -0.054370  4.710495
H    -1.209659  -1.704452  4.564100
H    -3.321673  -0.103584  5.382572
H    -0.615553  -0.864221  8.199477
H    -3.799357  0.259422  7.621901
H    -2.682519  -0.242043  8.832430
O    2.252495  -1.850386  1.941022
H    1.670393  -1.154220  0.550212
Ca    1.083281  -1.525882  5.975321
