27
Energy: -35051.4857246 eV PBE+vdW (tier 2 basis)
N    0.568105  -1.357821  0.691991
C    0.224506  0.031197  0.964493
C    1.321293  0.815897  1.698725
O    1.181277  1.538720  2.694682
H    1.119542  -1.462918  -0.157100
H    1.080799  -1.808521  1.448087
H    0.168157  0.541566  -0.012090
C    -1.189150  0.142024  1.585406
C    -1.510191  -0.809453  2.746859
C    -0.829889  -0.585189  4.104460
N    -1.541336  0.318255  5.051843
C    -1.548684  1.640707  5.121473
N    -2.075588  2.392056  6.082045
N    -0.914366  2.453993  4.114371
H    -1.879145  -0.123649  0.773534
H    -1.414136  1.194512  1.816794
H    -1.234491  -1.822047  2.416694
H    -2.598521  -0.846599  2.898398
H    0.201355  -0.227261  4.006205
H    -0.779024  -1.537106  4.645250
H    -2.022225  -0.159802  5.812236
H    -2.585129  1.899974  6.818105
H    -1.589261  2.595913  3.351177
H    -0.080971  2.005890  3.621390
O    2.511559  0.647025  1.131996
H    3.180936  1.175594  1.612488
Ca    -1.049568  4.284258  5.652332
