27
Energy: -35053.1862517 eV PBE+vdW (tier 2 basis)
N    1.155094  -0.677286  0.688925
C    0.464261  -0.626425  1.984126
C    1.527945  -1.029977  3.024277
O    1.318098  -0.981284  4.261569
H    0.695072  -1.274663  0.002983
H    1.323694  0.235341  0.267615
H    0.171873  0.405890  2.233928
C    -0.775470  -1.548948  2.060380
C    -2.108653  -0.869335  1.681169
C    -2.973954  -0.429785  2.870655
N    -2.315954  0.534294  3.772670
C    -1.726234  0.239839  4.937597
N    -1.683178  -0.897162  5.590592
N    -0.906896  1.244206  5.552797
H    -0.847120  -1.980630  3.067794
H    -0.588521  -2.407230  1.398729
H    -2.727488  -1.569061  1.102504
H    -1.928659  -0.015603  1.010139
H    -3.286518  -1.301367  3.460595
H    -3.898571  0.040549  2.513092
H    -2.384936  1.515476  3.514913
H    -2.337242  -1.612312  5.270787
H    -1.359742  1.626435  6.389118
H    -0.650256  2.020691  4.940219
O    2.646063  -1.407921  2.523608
H    2.445274  -1.271608  1.493046
Ca    0.505997  -0.766059  6.221733
