27
Energy: -35051.2273761 eV PBE+vdW (tier 2 basis)
N    0.009490  0.147588  0.128352
C    0.748963  0.405444  1.430833
C    2.241668  0.259106  1.162734
O    3.070853  0.663585  2.037142
H    -0.925659  -0.241981  0.331664
H    -0.112265  0.996153  -0.440024
H    0.534793  1.436770  1.740343
C    0.280219  -0.600494  2.504052
C    -1.207568  -0.513512  2.864231
C    -1.632020  0.781029  3.588860
N    -2.932291  0.627861  4.198613
C    -3.067797  -0.100827  5.394977
N    -2.126565  -0.684373  6.063038
N    -4.359744  -0.163034  5.842099
H    0.889132  -0.404763  3.398541
H    0.533589  -1.619134  2.168677
H    -1.419125  -1.364465  3.528250
H    -1.870238  -0.683573  1.993948
H    -1.700968  1.627070  2.889439
H    -0.852606  1.054457  4.328561
H    -3.562894  1.417800  4.103068
H    -1.190899  -0.422638  5.745549
H    -4.501769  -0.708817  6.684639
H    -5.129238  -0.137414  5.184272
O    2.636734  -0.315666  0.084369
H    0.553624  -0.529404  -0.435000
Ca    4.751371  -0.076720  0.823408
