27
Energy: -35053.3985596 eV PBE+vdW (tier 2 basis)
N    -0.124826  0.465901  0.071990
C    -0.480795  0.179085  1.525656
C    0.783391  0.493800  2.341063
O    0.707251  0.461769  3.598835
H    -0.244984  -0.356769  -0.532502
H    -0.675071  1.235895  -0.327691
H    -1.228168  0.927471  1.823549
C    -1.114155  -1.212667  1.727608
C    -0.405197  -2.478968  1.194047
C    0.548649  -3.234663  2.133920
N    1.800093  -2.518321  2.370485
C    2.365751  -2.110685  3.528973
N    3.500284  -1.394339  3.554162
N    1.738235  -2.305499  4.710665
H    -2.111811  -1.162892  1.268277
H    -1.303266  -1.300569  2.807075
H    0.120126  -2.295125  0.238925
H    -1.195319  -3.194425  0.926371
H    0.772170  -4.218086  1.695265
H    0.048198  -3.432611  3.089423
H    2.341390  -2.289807  1.542346
H    4.089663  -1.591352  2.740094
H    2.323390  -2.313406  5.538350
H    0.857097  -2.797741  4.782075
O    1.852300  0.800338  1.708177
H    0.887438  0.736541  0.092067
Ca    2.950345  0.779430  3.814740
