27
Energy: -35052.4329123 eV PBE+vdW (tier 2 basis)
N    -1.474204  -0.850629  1.134544
C    -0.165468  -1.153290  1.794969
C    0.561179  0.197096  1.829198
O    -0.085530  1.132745  2.324512
H    -1.318548  -0.431451  0.211923
H    -1.957581  -1.734471  0.954910
H    -0.393306  -1.236194  2.872114
C    0.475506  -2.514356  1.480566
C    0.245417  -3.487270  2.663716
C    -1.136022  -4.142937  2.888562
N    -2.384278  -3.330453  2.846469
C    -2.701610  -2.190499  3.496369
N    -1.980288  -1.462651  4.317857
N    -3.901045  -1.532958  3.106014
H    1.565786  -2.424918  1.352603
H    0.098044  -2.915688  0.528983
H    0.587562  -2.988753  3.584196
H    0.922594  -4.345785  2.548791
H    -1.095918  -4.682854  3.846379
H    -1.296454  -4.900871  2.112031
H    -3.171999  -3.842319  2.454901
H    -1.212674  -1.960885  4.771588
H    -4.530332  -1.398205  3.901388
H    -4.414032  -1.954043  2.330547
O    1.789294  0.390090  1.424378
H    2.196910  -0.408015  1.032613
Ca    -2.215148  0.525332  3.054830
