27
Energy: -35053.4781564 eV PBE+vdW (tier 2 basis)
N    1.100238  0.046612  -0.133895
C    -0.043821  0.126609  0.853952
C    0.523639  0.615772  2.216827
O    1.558063  1.423059  2.104485
H    1.528024  -0.882983  -0.034502
H    0.708543  0.033490  -1.081620
H    -0.687552  0.947448  0.493914
C    -0.865469  -1.175917  0.943292
C    -2.390448  -1.023946  1.107327
C    -2.906762  -0.320535  2.371524
N    -2.463331  -0.929395  3.624468
C    -3.179594  -1.696599  4.447079
N    -2.719978  -1.942640  5.685160
N    -4.350179  -2.233776  4.069465
H    -0.454488  -1.801299  1.749303
H    -0.713588  -1.740414  0.011104
H    -2.822655  -2.034314  1.051780
H    -2.799876  -0.476204  0.243873
H    -4.003983  -0.281424  2.353285
H    -2.574172  0.726238  2.403160
H    -1.505656  -0.671414  3.883012
H    -3.116258  -2.675203  6.260641
H    -4.986585  -2.631230  4.749350
H    -4.650595  -2.226671  3.104446
O    0.019767  0.286184  3.277805
H    -1.967063  -1.393730  6.080902
Ca    2.731047  1.760118  0.489597
