27
Energy: -35049.8352604 eV PBE+vdW (tier 2 basis)
N    1.231232  1.028509  1.452736
C    0.683381  0.828496  2.794779
C    1.914992  0.248477  3.488129
O    2.855101  0.974433  3.920606
H    0.980050  0.284494  0.803413
H    0.986915  1.929084  1.048271
H    0.503574  1.809052  3.257900
C    -0.579997  -0.033081  2.891984
C    -1.184572  -0.140485  4.299329
C    -2.481090  -0.981821  4.355881
N    -3.561936  -0.461784  3.535202
C    -3.755742  -0.710945  2.186136
N    -4.326257  0.096083  1.348702
N    -3.225240  -1.897526  1.704601
H    -0.405888  -1.039017  2.458629
H    -1.308544  0.422811  2.205392
H    -1.400600  0.871390  4.677657
H    -0.472398  -0.589256  5.013005
H    -2.830662  -1.021474  5.396237
H    -2.267402  -2.017306  4.063355
H    -4.043984  0.359703  3.885909
H    -4.669818  0.959636  1.778718
H    -3.501689  -2.051962  0.737362
H    -3.367293  -2.722406  2.282017
O    2.097034  -1.043581  3.571775
H    1.304904  -1.527935  3.250200
Ca    4.742278  1.750838  4.264137
