27
Energy: -35051.6318388 eV PBE+vdW (tier 2 basis)
N    -0.551579  1.307719  1.437290
C    -0.087261  0.146671  2.195226
C    0.988123  -0.578160  1.386959
O    0.803940  -1.608281  0.721247
H    0.143978  2.051300  1.391082
H    -0.845400  1.074542  0.488335
H    0.386110  0.524214  3.114125
C    -1.301137  -0.724130  2.554297
C    -1.123889  -1.834926  3.605481
C    -0.211407  -3.010123  3.257047
N    -0.637062  -3.633444  1.940752
C    0.211445  -4.719876  1.514119
N    -0.272694  -5.897474  1.859062
N    1.302159  -4.420562  0.826058
H    -1.743525  -1.122346  1.624950
H    -2.049939  -0.021709  2.942894
H    -2.131127  -2.216823  3.856825
H    -0.744683  -1.405021  4.545034
H    -0.246021  -3.783619  4.042516
H    0.840442  -2.701867  3.179887
H    -0.544302  -2.855040  1.255701
H    0.299821  -6.712564  1.632632
H    1.911976  -5.140030  0.446360
H    1.505873  -3.434871  0.617369
O    2.151885  0.066279  1.405328
H    2.775517  -0.339399  0.769123
Ca    -2.316049  -5.247276  2.388538
