27
Energy: -35053.7940157 eV PBE+vdW (tier 2 basis)
N    0.580556  0.082324  1.221788
C    -0.814607  -0.014563  1.831837
C    -0.621553  -0.564165  3.248968
O    0.501562  -1.117700  3.530192
H    0.950670  1.041010  1.251287
H    1.189590  -0.519388  1.819870
H    -1.211335  1.005348  1.911149
C    -1.774292  -0.843954  0.956664
C    -1.398546  -2.301596  0.596307
C    -2.037740  -3.415262  1.437241
N    -1.456492  -3.501933  2.775316
C    -2.045709  -4.040919  3.882794
N    -1.468880  -3.801586  5.062265
N    -3.192901  -4.726835  3.731547
H    -1.920518  -0.271498  0.028826
H    -2.747289  -0.812120  1.467232
H    -0.305944  -2.459324  0.567473
H    -1.726620  -2.477206  -0.436808
H    -1.920836  -4.367256  0.893411
H    -3.114620  -3.220799  1.540719
H    -0.443658  -3.457549  2.827261
H    -1.798237  -4.456900  5.774922
H    -3.730099  -5.014282  4.541080
H    -3.469605  -5.121591  2.840293
O    -1.576816  -0.479259  4.063841
H    0.614207  -0.237966  0.245641
Ca    -0.491069  -1.815100  5.540212
