27
Energy: -35051.6997669 eV PBE+vdW (tier 2 basis)
N    -0.630294  -1.507659  0.289024
C    -0.836887  -0.145581  0.952936
C    0.446698  -0.539901  0.332516
O    0.972882  0.024539  -0.762898
H    -1.730982  -3.033463  0.967404
H    -1.012167  -1.515350  -0.662063
H    -1.399131  0.577332  0.354485
C    -1.093457  -0.099865  2.437826
C    -2.562701  -0.138108  2.891511
C    -3.269116  -1.500032  2.888647
N    -3.948762  -1.867988  1.629232
C    -3.782169  -3.020417  0.958665
N    -2.580963  -3.614361  0.936299
N    -4.821004  -3.564203  0.306228
H    -0.659678  0.844334  2.802696
H    -0.535083  -0.900627  2.949618
H    -3.159200  0.594366  2.325960
H    -2.586526  0.213581  3.932424
H    -4.045858  -1.496386  3.666423
H    -2.576303  -2.311532  3.142814
H    -4.819192  -1.376654  1.443388
H    -2.496481  -4.566934  0.601549
H    -4.683924  -4.268139  -0.409729
H    -5.777541  -3.332098  0.548251
O    1.607144  -0.939003  1.166498
H    1.386218  -1.665053  1.773649
Ca    2.974524  -0.058265  -0.427642
