27
Energy: -35053.20906 eV PBE+vdW (tier 2 basis)
N    1.300736  0.584944  0.341201
C    0.557118  0.358297  1.655162
C    1.821405  0.130973  2.487825
O    2.481277  1.169872  2.821009
H    1.032231  -0.144940  -0.324815
H    0.999526  1.471002  -0.071603
H    0.087043  1.302196  1.956105
C    -0.453514  -0.779149  1.583639
C    -1.279919  -0.987830  2.864764
C    -0.506261  -1.425060  4.117920
N    0.216925  -2.694022  3.980824
C    -0.212761  -3.894515  4.392032
N    0.649300  -4.922452  4.445940
N    -1.488395  -4.091007  4.748310
H    0.064926  -1.710480  1.304675
H    -1.156482  -0.557111  0.767214
H    -2.062106  -1.727620  2.638441
H    -1.812744  -0.059289  3.120543
H    -1.188684  -1.503671  4.974792
H    0.236128  -0.671426  4.416768
H    1.132317  -2.648652  3.537811
H    0.325374  -5.873871  4.573479
H    -1.767394  -4.922290  5.256116
H    -2.212877  -3.418493  4.533950
O    2.415615  -1.001099  2.375755
H    1.649447  -4.768316  4.470692
Ca    3.791588  0.421804  1.245518
