27
Energy: -35051.8716142 eV PBE+vdW (tier 2 basis)
N    0.318232  0.371609  0.428375
C    0.361397  -0.082309  1.827219
C    1.732489  -0.779096  2.023824
O    2.148832  -1.193894  3.109510
H    0.324913  1.385999  0.337262
H    -0.484291  0.012160  -0.086915
H    0.362626  0.779924  2.512438
C    -0.853208  -0.973862  2.171769
C    -0.935525  -1.497426  3.621769
C    -0.392016  -2.927162  3.766664
N    -0.197377  -3.340206  5.171678
C    0.899093  -3.070367  5.871416
N    1.953931  -2.387042  5.503594
N    1.036924  -3.620369  7.222282
H    -0.897185  -1.814693  1.459894
H    -1.744910  -0.364741  1.972732
H    -1.983115  -1.484094  3.951391
H    -0.389118  -0.820565  4.293744
H    0.574095  -3.041444  3.260343
H    -1.082905  -3.654669  3.323123
H    -0.963866  -3.820632  5.636726
H    1.930701  -1.899851  4.568141
H    0.738985  -4.600667  7.272222
H    0.444970  -3.108003  7.886841
O    2.433921  -0.875114  0.924072
H    1.827016  -0.400829  0.243716
Ca    3.382170  -2.856034  7.066363
