27
Energy: -35051.3699177 eV PBE+vdW (tier 2 basis)
N    -0.438995  -0.083814  -0.025813
C    -0.246894  -0.099626  1.407331
C    1.225772  0.062524  1.774130
O    1.651853  0.106853  2.933186
H    -1.420450  0.026791  -0.274467
H    0.096678  0.641816  -0.497739
H    -0.736694  0.737723  1.957106
C    -0.868907  -1.424453  1.942009
C    -1.073187  -1.547070  3.466016
C    0.099276  -2.222166  4.175105
N    0.055964  -2.021047  5.664710
C    0.153377  -0.659165  6.174908
N    -0.489901  -0.550132  7.328963
N    0.792898  0.264732  5.490551
H    -0.295869  -2.274698  1.544957
H    -1.852256  -1.487513  1.458421
H    -1.991414  -2.131275  3.650931
H    -1.249984  -0.540271  3.879467
H    1.061202  -1.863785  3.789542
H    0.075751  -3.308106  4.016533
H    0.849028  -2.537144  6.069606
H    -0.399180  0.347117  7.809625
H    0.818680  1.218154  5.846425
H    1.150256  0.129469  4.508033
O    2.031551  0.188078  0.730802
H    2.949010  0.327065  1.046717
Ca    -1.793710  -2.306635  7.200316
