27
Energy: -35052.244222 eV PBE+vdW (tier 2 basis)
N    1.001654  1.180771  1.725463
C    -0.005627  0.155448  2.194725
C    0.682941  -1.233699  2.185063
O    1.964589  -1.203421  2.440167
H    0.952200  1.220097  0.699014
H    0.676625  2.108289  2.019539
H    -0.189172  0.381254  3.259056
C    -1.339501  0.220434  1.434194
C    -2.563284  -0.378298  2.183046
C    -3.290124  -1.523506  1.483307
N    -2.561299  -2.839545  1.627957
C    -2.923254  -3.641852  2.870189
N    -3.886155  -3.192163  3.547928
N    -2.143715  -4.750795  2.948755
H    -1.211016  -0.254313  0.448711
H    -1.551172  1.279283  1.229491
H    -3.311311  0.412579  2.320867
H    -2.295912  -0.693002  3.202653
H    -3.398661  -1.341831  0.406850
H    -4.279635  -1.678078  1.925710
H    -2.751536  -3.437963  0.813829
H    -4.123748  -3.738408  4.378768
H    -2.278450  -5.386416  3.727120
H    -1.252589  -4.818802  2.469211
O    0.056328  -2.270393  1.978587
H    -1.519972  -2.639407  1.658222
Ca    3.214522  0.410245  2.419933
