27
Energy: -35051.5483591 eV PBE+vdW (tier 2 basis)
N    1.221165  -1.528030  0.897071
C    0.066953  -0.653657  0.702298
C    0.488358  0.795305  0.964987
O    1.308364  1.120501  1.820486
H    1.955115  -1.307241  0.221621
H    0.953735  -2.496923  0.713797
H    -0.334654  -0.681932  -0.330146
C    -1.117017  -1.066440  1.633429
C    -0.795914  -1.673231  3.011905
C    -0.243608  -0.762400  4.120076
N    1.166186  -0.405208  3.929292
C    2.184957  -0.577541  4.725203
N    3.451800  -0.225980  4.493778
N    2.063092  -1.189370  6.053268
H    -1.689403  -1.829497  1.087630
H    -1.803744  -0.213512  1.744984
H    -0.133512  -2.543250  2.905978
H    -1.748098  -2.063381  3.400594
H    -0.369715  -1.263895  5.088371
H    -0.813803  0.178681  4.166888
H    1.360310  0.112499  3.009561
H    3.613985  0.190962  3.574135
H    1.311543  -0.748666  6.594979
H    1.797783  -2.177796  5.970899
O    -0.091938  1.752674  0.248233
H    -0.676472  1.383488  -0.441205
Ca    4.424878  -0.645055  6.380504
