27
Energy: -35053.4058795 eV PBE+vdW (tier 2 basis)
N    0.983978  -0.510985  2.124308
C    0.196638  -0.090499  3.320394
C    1.082087  -0.245420  4.556916
O    2.042643  -1.025616  4.566523
H    0.325288  -0.746447  1.376286
H    1.483346  0.310601  1.765312
H    -0.096406  0.968542  3.228952
C    -1.113888  -0.899268  3.501570
C    -1.061371  -2.404257  3.834742
C    -0.819445  -3.387636  2.677399
N    0.606212  -3.789512  2.504760
C    1.216041  -4.678065  3.471499
N    2.497512  -4.467624  3.598778
N    0.452164  -5.550105  4.136907
H    -1.721655  -0.735066  2.597462
H    -1.676797  -0.403174  4.305489
H    -2.049248  -2.645540  4.249617
H    -0.362081  -2.610392  4.661382
H    -1.128527  -2.948455  1.719442
H    -1.463476  -4.271518  2.803307
H    0.723042  -4.220294  1.581228
H    2.995781  -5.137823  4.188449
H    -0.501719  -5.752043  3.858838
H    0.851662  -6.152168  4.850847
O    0.798743  0.411139  5.658858
H    0.058799  1.042634  5.561345
Ca    2.648845  -2.300107  2.831893
