27
Energy: -35053.5564967 eV PBE+vdW (tier 2 basis)
N    1.229623  -3.823032  0.420647
C    0.564708  -2.572678  -0.107860
C    1.679278  -1.539714  -0.436137
O    2.784955  -2.083987  -0.894125
H    1.394006  -3.689793  1.426728
H    0.550285  -4.590618  0.383357
H    0.127876  -2.856561  -1.080444
C    -0.545693  -2.024909  0.799907
C    -1.565160  -1.118164  0.058335
C    -1.873113  0.211084  0.750749
N    -0.701982  1.088050  0.691037
C    -0.690592  2.390714  0.971709
N    0.412990  3.110926  0.708941
N    -1.763520  2.994690  1.504037
H    -0.079045  -1.486957  1.639431
H    -1.085374  -2.873840  1.242792
H    -2.513902  -1.656807  -0.056408
H    -1.219708  -0.897828  -0.962491
H    -2.169983  0.034090  1.798638
H    -2.719699  0.691094  0.236093
H    0.168519  0.652592  0.348933
H    1.191309  2.699876  0.208771
H    -1.801063  3.999799  1.617841
H    -2.568623  2.466201  1.811899
O    1.514516  -0.336883  -0.290016
H    0.513783  4.065636  1.028317
Ca    3.358979  -4.027225  -0.764803
