27
Energy: -35052.7912356 eV PBE+vdW (tier 2 basis)
N    0.135758  1.847842  0.595918
C    0.130467  0.731858  1.589185
C    1.567604  0.243197  1.713394
O    2.391916  0.440398  0.814078
H    -0.832554  2.027702  0.311347
H    0.425221  2.712468  1.068757
H    -0.187308  1.092045  2.581675
C    -0.889895  -0.359076  1.116194
C    -0.627313  -1.868253  1.291728
C    0.334106  -2.549928  0.286579
N    0.090301  -2.086178  -1.092102
C    0.867311  -1.192621  -1.742746
N    0.498655  -0.189802  -2.509406
N    2.272194  -1.202589  -1.544310
H    -1.070094  -0.161831  0.048723
H    -1.836391  -0.126443  1.620334
H    -1.609684  -2.353231  1.194444
H    -0.295352  -2.124360  2.308464
H    0.196034  -3.637132  0.337244
H    1.381858  -2.358982  0.547239
H    -0.892511  -2.063941  -1.360760
H    -0.495030  -0.169328  -2.750664
H    2.742993  -1.338326  -2.443177
H    2.629186  -1.885896  -0.877306
O    1.948018  -0.429020  2.780210
H    1.265241  -0.465638  3.478860
Ca    1.853099  1.257188  -1.242277
