27
Energy: -35052.0281667 eV PBE+vdW (tier 2 basis)
N    -1.180133  -0.101434  0.905994
C    -0.125628  -0.215429  1.966211
C    1.220064  -0.515202  1.313896
O    1.352480  -0.456924  0.036194
H    -0.760982  0.128388  -0.004303
H    -1.777586  -1.071981  0.835054
H    0.006893  0.778692  2.425094
C    -0.507134  -1.206330  3.080602
C    -0.807128  -2.656059  2.644839
C    -2.265596  -2.970242  2.286766
N    -2.756149  -2.247272  1.084461
C    -3.938965  -1.409061  1.204294
N    -4.240918  -0.696222  2.220028
N    -4.595622  -1.266392  0.005973
H    -1.359225  -0.782207  3.631958
H    0.330400  -1.197539  3.790213
H    -0.540804  -3.317443  3.480975
H    -0.146384  -2.960691  1.814961
H    -2.921940  -2.725951  3.132617
H    -2.372651  -4.048658  2.115283
H    -2.814311  -2.868991  0.276531
H    -3.645292  -0.844475  3.035951
H    -5.437109  -0.698680  0.070514
H    -4.700045  -2.075782  -0.598185
O    2.233188  -0.761675  2.052489
H    -1.870883  0.620559  1.145463
Ca    3.529307  -0.764311  0.307043
