27
Energy: -35051.5466428 eV PBE+vdW (tier 2 basis)
N    0.456703  -0.432869  0.045535
C    -0.454444  0.120299  1.024039
C    0.229636  1.178765  1.881444
O    -0.310851  1.788643  2.814393
H    -0.026387  -1.064238  -0.591664
H    0.930891  0.276502  -0.510167
H    -1.325425  0.671339  0.597862
C    -1.029592  -1.056659  1.857294
C    -2.201251  -0.717807  2.798372
C    -1.785763  -0.681892  4.276420
N    -2.798241  -0.004494  5.111582
C    -2.812300  1.276749  5.444508
N    -3.772867  1.952345  6.059455
N    -1.683984  2.127718  5.128587
H    -0.202673  -1.546947  2.391399
H    -1.371684  -1.792764  1.118742
H    -3.005843  -1.455545  2.675950
H    -2.633075  0.255298  2.520860
H    -0.828968  -0.165950  4.409184
H    -1.662158  -1.694044  4.681711
H    -3.635447  -0.544754  5.330179
H    -4.599852  1.419752  6.335141
H    -1.306081  1.974677  4.153196
H    -0.891336  1.888486  5.738588
O    1.473428  1.446033  1.506060
H    1.834330  2.161622  2.068005
Ca    -2.989802  3.994564  5.866624
