27
Energy: -35052.7490019 eV PBE+vdW (tier 2 basis)
N    -0.907239  0.323689  0.295648
C    0.121416  -0.367720  1.109302
C    1.342682  -0.327634  0.470184
O    2.426353  -0.951157  0.889772
H    -0.341972  0.694919  -0.508539
H    -1.636821  -0.304363  -0.076910
H    0.734787  1.664300  4.925529
C    -0.281147  -1.304537  2.204135
C    -0.276258  -0.794831  3.663751
C    -1.329254  0.278543  3.963723
N    -1.539214  0.525218  5.398123
C    -0.886715  1.409537  6.162015
N    0.203425  2.040035  5.700011
N    -1.339234  1.689390  7.392843
H    0.415602  -2.154234  2.171112
H    -1.274888  -1.737799  1.985612
H    0.733356  -0.428822  3.907675
H    -0.461261  -1.655283  4.324548
H    -2.307907  -0.032152  3.570406
H    -1.085146  1.240395  3.487711
H    -2.208126  -0.074595  5.870811
H    0.594802  2.831652  6.195824
H    -0.755993  2.158590  8.075484
H    -2.273222  1.428209  7.685694
O    1.475127  0.370848  -0.681840
H    -1.383770  1.110793  0.754815
Ca    3.466325  -0.349364  -0.839494
