27
Energy: -35052.6998847 eV PBE+vdW (tier 2 basis)
N    -0.557113  0.344777  1.254379
C    0.300525  -0.425492  2.214032
C    1.706592  0.160075  2.017018
O    1.793731  1.398492  2.035971
H    -1.508237  -0.025353  1.308378
H    -0.248955  0.158314  0.293345
H    0.075571  -0.023350  3.215840
C    0.005901  -1.933059  2.311045
C    -0.871432  -2.273884  3.539028
C    -2.277988  -1.648215  3.633031
N    -2.304002  -0.171020  3.643031
C    -1.751858  0.665739  4.574321
N    -1.352522  1.879053  4.174732
N    -1.568660  0.188098  5.819016
H    0.935241  -2.515349  2.422183
H    -0.450820  -2.286977  1.374898
H    -0.302318  -2.031590  4.450132
H    -1.015739  -3.362944  3.567375
H    -2.791213  -2.063740  4.513907
H    -2.890799  -1.948840  2.772792
H    -2.930947  0.291744  2.995423
H    -1.260363  2.499973  4.986028
H    -1.058224  0.724973  6.511329
H    -2.120051  -0.589161  6.167791
O    2.786987  -0.563684  1.892030
H    2.602884  -1.524537  1.867981
Ca    -0.182508  2.527587  2.282212
