27
Energy: -35053.2033668 eV PBE+vdW (tier 2 basis)
N    0.168563  -0.947019  0.670679
C    0.183897  -0.119602  1.907134
C    1.065403  -0.871148  2.909342
O    1.056406  -2.109300  2.914896
H    -0.531137  -0.566015  0.027993
H    1.061231  -0.820469  0.180151
H    0.578754  0.887265  1.700732
C    -1.224131  -0.005145  2.577636
C    -2.466010  0.005152  1.655378
C    -3.344435  -1.241306  1.795936
N    -2.701089  -2.512559  1.350409
C    -2.643687  -2.855209  -0.048019
N    -1.686993  -3.700424  -0.328285
N    -3.490748  -2.264625  -0.901071
H    -1.209430  0.909406  3.182681
H    -1.339501  -0.826102  3.302202
H    -2.219208  0.187989  0.598160
H    -3.097904  0.859960  1.930812
H    -4.311062  -1.077814  1.294746
H    -3.590369  -1.391623  2.855442
H    -3.151031  -3.296675  1.833289
H    -1.704805  -4.069335  -1.281446
H    -3.452411  -2.478495  -1.893365
H    -4.325774  -1.786671  -0.579792
O    1.770311  -0.231845  3.811567
H    1.748646  0.740265  3.709095
Ca    -0.198136  -3.290999  1.402803
