27
Energy: -35051.706572 eV PBE+vdW (tier 2 basis)
N    0.932382  0.267765  0.667838
C    0.111196  0.116331  1.878874
C    1.052091  0.114683  3.084654
O    1.236300  -0.808246  3.883465
H    1.505823  1.110916  0.728187
H    0.324254  0.403913  -0.141966
H    -0.545145  0.989655  2.071946
C    -0.810094  -1.118386  1.793197
C    -0.318055  -2.347507  1.005703
C    1.027158  -2.958641  1.414158
N    1.096542  -3.233025  2.856889
C    1.168390  -4.393376  3.450005
N    1.191796  -5.630496  2.959449
N    1.266285  -4.423175  4.917332
H    -1.739253  -0.793344  1.305071
H    -1.113137  -1.400854  2.812332
H    -0.215769  -2.095448  -0.058442
H    -1.102471  -3.116771  1.063580
H    1.837202  -2.248632  1.191349
H    1.225665  -3.875807  0.845134
H    1.085506  -2.335659  3.424892
H    1.107660  -5.700072  1.944312
H    2.014230  -3.797968  5.240183
H    0.406141  -4.048678  5.335903
O    1.669923  1.284586  3.211281
H    2.263541  1.262330  3.989755
Ca    1.523530  -6.832635  4.744783
