27
Energy: -35053.5008986 eV PBE+vdW (tier 2 basis)
N    0.285848  -0.875362  0.383881
C    0.391704  -0.576215  1.869115
C    1.409968  -1.624138  2.388382
O    2.105126  -1.283606  3.413524
H    -0.644570  -0.679621  -0.007002
H    0.981954  -0.362026  -0.172110
H    0.758841  0.448324  1.996912
C    -0.997801  -0.777487  2.507907
C    -1.045440  -0.591322  4.044685
C    -1.595339  -1.805883  4.811428
N    -0.771461  -3.015914  4.657334
C    0.431685  -3.193003  5.223153
N    1.020606  -2.465086  6.139566
N    1.287419  -4.201014  4.682157
H    -1.342868  -1.788355  2.236550
H    -1.695103  -0.070636  2.035002
H    -1.690218  0.261782  4.291140
H    -0.050280  -0.331007  4.429696
H    -2.600752  -2.068312  4.460417
H    -1.704077  -1.563655  5.878139
H    -1.150330  -3.779522  4.106303
H    0.413896  -1.801086  6.622762
H    1.410360  -4.989435  5.322831
H    1.028504  -4.531852  3.750219
O    1.430122  -2.716756  1.802153
H    0.509552  -1.900058  0.324822
Ca    3.015531  -2.394709  5.010796
