27
Energy: -35051.6160403 eV PBE+vdW (tier 2 basis)
N    -1.940136  -0.161571  -0.268928
C    -1.235526  -0.884528  0.773506
C    -0.324321  0.085003  1.522261
O    0.484034  0.818776  0.958840
H    -2.414740  -0.805916  -0.901621
H    -2.648481  0.468235  0.108094
H    -1.891681  -1.387611  1.517138
C    -0.348155  -1.966417  0.102557
C    0.577582  -2.819775  0.984329
C    1.903376  -2.200220  1.465520
N    2.732119  -1.713237  0.345122
C    3.212241  -0.492757  0.139490
N    3.821812  -0.041893  -0.945544
N    3.086884  0.538724  1.144431
H    0.214250  -1.462637  -0.697909
H    -1.044768  -2.652503  -0.400313
H    0.818146  -3.737809  0.426989
H    0.051894  -3.172009  1.885308
H    2.480465  -2.964679  2.004461
H    1.745596  -1.371339  2.162416
H    2.892033  -2.389532  -0.402040
H    3.912074  -0.695926  -1.724768
H    2.048861  0.747015  1.294847
H    3.478453  0.243396  2.044259
O    -0.337380  0.055656  2.860449
H    -1.058346  -0.516732  3.189229
Ca    4.081356  2.068679  -0.377631
