27
Energy: -35053.2071485 eV PBE+vdW (tier 2 basis)
N    0.638106  0.320812  1.480492
C    0.491536  -1.131468  1.887595
C    1.781099  -1.384859  2.735112
O    1.855141  -2.538924  3.297172
H    0.630183  0.467700  0.465196
H    -0.052778  0.947529  1.906451
H    -0.372378  -1.201630  2.560432
C    0.330935  -2.079719  0.681879
C    -1.109357  -2.545466  0.372111
C    -1.498361  -3.926411  0.927168
N    -1.374058  -4.044016  2.386642
C    -0.440525  -4.684463  3.108200
N    -0.332297  -4.734918  4.415864
N    0.658021  -5.326838  2.461904
H    0.987213  -2.944545  0.849143
H    0.758144  -1.591538  -0.206745
H    -1.248410  -2.606702  -0.716184
H    -1.837677  -1.794539  0.715552
H    -0.899398  -4.716514  0.455030
H    -2.540815  -4.147791  0.661370
H    -2.087374  -3.564538  2.931584
H    -1.142416  -4.394631  4.937141
H    0.592880  -6.342119  2.578974
H    0.764910  -5.118077  1.470002
O    2.596187  -0.465232  2.801583
H    1.617530  0.528159  1.887201
Ca    1.939799  -4.315899  4.398670
