27
Energy: -35052.7172428 eV PBE+vdW (tier 2 basis)
N    0.347189  1.021857  0.528437
C    0.379977  0.277271  1.776891
C    1.867134  0.198056  2.114699
O    2.394463  0.768068  3.099173
H    -0.508512  1.558568  0.408478
H    0.496441  0.436950  -0.293438
H    -0.056141  0.925237  2.548454
C    -0.310861  -1.107088  1.794464
C    -0.213144  -1.917484  3.100425
C    -1.221036  -1.582614  4.211350
N    -1.174754  -0.191937  4.713484
C    -0.145567  0.348870  5.369168
N    0.948942  -0.229580  5.806392
N    -0.101074  1.776031  5.517464
H    0.120380  -1.706076  0.979286
H    -1.364023  -0.940390  1.520969
H    0.817769  -1.897205  3.490770
H    -0.394185  -2.975657  2.863679
H    -1.097611  -2.274765  5.057892
H    -2.244316  -1.728306  3.845103
H    -2.023094  0.359682  4.621133
H    0.921891  -1.249805  5.831265
H    -0.760596  2.286542  4.926576
H    -0.259794  2.052306  6.491965
O    2.572882  -0.501785  1.262646
H    3.533914  -0.449624  1.450486
Ca    2.388667  1.405091  5.176123
