27
Energy: -35052.1860639 eV PBE+vdW (tier 2 basis)
N    -0.924522  -2.397102  1.333566
C    -0.599267  -0.973114  1.551711
C    0.851865  -0.637636  1.199258
O    1.265860  0.574225  1.308772
H    -0.407985  -2.971080  2.007003
H    -2.514634  -2.840743  1.366687
H    -1.199239  -0.375468  0.845071
C    -0.935494  -0.518057  2.997324
C    -2.291169  0.165155  3.233147
C    -3.571841  -0.645323  2.992960
N    -3.999091  -0.676552  1.583639
C    -4.248943  -1.754187  0.786799
N    -4.823458  -1.900154  -0.333550
N    -3.605847  -3.011929  1.274625
H    -0.166700  0.195666  3.319108
H    -0.831848  -1.392425  3.660477
H    -2.344149  1.098135  2.650923
H    -2.303625  0.478747  4.287195
H    -4.388649  -0.206608  3.583370
H    -3.452024  -1.669079  3.371677
H    -4.447371  0.176233  1.258628
H    -5.272601  -1.061283  -0.709452
H    -3.812368  -3.705160  0.542339
H    -4.001272  -3.350905  2.160029
O    1.656045  -1.545392  0.771772
H    -0.585852  -2.696340  0.413944
Ca    3.213661  -0.023618  0.580973
