27
Energy: -35051.5673796 eV PBE+vdW (tier 2 basis)
N    -0.495277  -0.083664  -0.284043
C    -0.416236  0.021189  1.159075
C    1.017461  0.276361  1.599927
O    1.308681  0.891296  2.636950
H    -0.029541  -0.917459  -0.642639
H    -1.462279  -0.099235  -0.604547
H    -0.966084  0.933685  1.442126
C    -1.018179  -1.186627  1.952784
C    -0.978165  -1.191749  3.492174
C    -1.645770  -0.011906  4.214109
N    -0.746204  1.160665  4.255697
C    -0.832697  2.208568  5.032531
N    0.002066  3.244990  5.098415
N    -1.935414  2.377304  5.985389
H    -0.520934  -2.101902  1.599815
H    -2.064596  -1.263292  1.620103
H    0.050367  -1.301214  3.868599
H    -1.504040  -2.097690  3.824376
H    -1.890471  -0.312293  5.243447
H    -2.587580  0.267224  3.713431
H    0.101504  1.114013  3.586988
H    0.806685  3.187248  4.469471
H    -1.940579  1.608128  6.666516
H    -2.841769  2.313181  5.506999
O    1.935261  -0.253371  0.812654
H    2.827240  -0.067208  1.172942
Ca    -0.925410  4.519892  6.592107
