27
Energy: -35052.306765 eV PBE+vdW (tier 2 basis)
N    -1.343821  -0.950379  -0.133759
C    -0.744537  -0.318722  1.065464
C    0.643419  0.234427  0.787135
O    1.116556  0.262775  -0.408657
H    -0.737612  -0.847524  -0.953935
H    -1.449738  -2.458656  0.114440
H    -1.326079  0.578746  1.340470
C    -0.804291  -1.253868  2.296445
C    0.082153  -2.517506  2.309049
C    0.160050  -3.372566  1.040115
N    -1.178961  -3.543403  0.370796
C    -1.109188  -4.257382  -0.932488
N    -0.452705  -3.624974  -1.818339
N    -1.820237  -5.413130  -0.954953
H    -1.863457  -1.530803  2.408436
H    -0.565403  -0.666085  3.191903
H    -0.256663  -3.135650  3.152868
H    1.118795  -2.243731  2.554984
H    0.575976  -4.362925  1.262578
H    0.787231  -2.917264  0.264205
H    -1.872549  -3.953354  1.004660
H    -0.382276  -4.115314  -2.712861
H    -1.835464  -5.962645  -1.807550
H    -2.095753  -5.904220  -0.112285
O    1.332143  0.730178  1.751446
H    -2.241195  -0.522828  -0.365361
Ca    2.803701  1.443175  0.332073
