27
Energy: -35051.1014522 eV PBE+vdW (tier 2 basis)
N    0.351378  -0.795944  -0.129540
C    0.116213  -0.392641  1.250621
C    1.442070  -0.133546  1.999914
O    1.915028  -0.875619  2.837617
H    0.700128  -0.030287  -0.704649
H    0.998963  -1.581071  -0.206444
H    -0.440436  0.556764  1.223859
C    -0.705413  -1.467622  1.975829
C    -1.207372  -1.030346  3.357334
C    -1.771418  -2.171313  4.198510
N    -2.939409  -2.803361  3.538733
C    -3.732605  -3.696044  4.100450
N    -3.669791  -4.205933  5.315099
N    -4.865516  -4.237598  3.352248
H    -0.080968  -2.369311  2.078781
H    -1.535851  -1.716320  1.293878
H    -1.953871  -0.225185  3.271908
H    -0.370534  -0.622311  3.940657
H    -2.099788  -1.798428  5.180423
H    -1.004141  -2.946377  4.355100
H    -3.099039  -2.548601  2.564621
H    -2.888239  -3.884742  5.889493
H    -4.546848  -4.743716  2.517244
H    -5.478855  -3.488129  3.011281
O    2.026781  0.997740  1.563672
H    2.890851  1.089998  2.014267
Ca    -5.443276  -5.530339  5.374717
