27
Energy: -35052.3351231 eV PBE+vdW (tier 2 basis)
N    0.738082  0.515291  0.329500
C    0.038613  -0.469725  1.240672
C    1.040713  -1.553733  1.689019
O    2.295310  -1.332164  1.409138
H    0.519416  0.247895  -0.638911
H    0.282113  1.427448  0.435760
H    -0.221620  0.066459  2.169580
C    -1.257432  -1.035531  0.600290
C    -2.497432  -1.231186  1.499300
C    -2.642786  -2.528920  2.288641
N    -1.682459  -2.665828  3.461460
C    -1.838935  -1.654691  4.539360
N    -1.126534  -0.608387  4.389841
N    -2.747504  -2.012810  5.477066
H    -1.028202  -1.965914  0.058222
H    -1.567830  -0.309106  -0.165366
H    -3.373108  -1.224829  0.833759
H    -2.628685  -0.364607  2.162051
H    -2.449180  -3.405006  1.655412
H    -3.660712  -2.613264  2.688134
H    -1.756959  -3.617128  3.843185
H    -1.259111  0.072361  5.143327
H    -2.914701  -1.407894  6.273400
H    -3.186728  -2.925094  5.509925
O    0.656591  -2.548265  2.305159
H    -0.681258  -2.575872  3.049073
Ca    3.154362  0.327290  0.607484
