27
Energy: -35053.4453038 eV PBE+vdW (tier 2 basis)
N    1.179908  -0.445671  0.496468
C    0.302649  0.004061  1.617356
C    1.157974  0.831856  2.575687
O    2.390536  0.705068  2.613945
H    0.707534  -1.210943  0.003770
H    1.230104  0.308370  -0.198149
H    -0.507856  0.650266  1.241221
C    -0.375556  -1.203154  2.329760
C    0.492616  -2.432253  2.649280
C    1.443879  -2.312137  3.856634
N    2.281055  -3.485701  4.033512
C    3.446336  -3.719306  3.385431
N    3.914546  -2.851057  2.477771
N    4.098019  -4.857589  3.697141
H    -1.192809  -1.524116  1.668287
H    -0.871313  -0.838304  3.242190
H    1.057767  -2.759219  1.761159
H    -0.195788  -3.265232  2.849747
H    0.860075  -2.184128  4.777861
H    2.097304  -1.427741  3.814037
H    1.955031  -4.191480  4.683906
H    4.821969  -3.198210  2.151364
H    4.969526  -5.103130  3.245426
H    3.783322  -5.478760  4.433074
O    0.590276  1.669035  3.411434
H    -0.375794  1.756130  3.285731
Ca    3.479356  -0.877359  1.464396
