27
Energy: -35053.4671547 eV PBE+vdW (tier 2 basis)
N    -0.383016  -0.239908  0.927193
C    0.531729  -0.391962  2.064352
C    1.988964  -0.620787  1.680101
O    2.319645  -0.927185  0.474122
H    -0.324893  0.701565  0.535503
H    -0.106879  -0.875639  0.174036
H    0.530991  0.542308  2.647823
C    0.027372  -1.525058  2.990999
C    -1.245756  -1.078287  3.731046
C    -2.282282  -2.170437  3.983874
N    -2.784881  -2.902527  2.792520
C    -3.499174  -2.395640  1.765219
N    -3.215240  -1.196068  1.248907
N    -4.493190  -3.133783  1.243893
H    0.807714  -1.809189  3.708379
H    -0.171940  -2.407474  2.362259
H    -1.721977  -0.245215  3.197759
H    -0.977657  -0.670936  4.716321
H    -3.137724  -1.737872  4.523758
H    -1.857382  -2.951606  4.626426
H    -2.936186  -3.893786  2.951795
H    -3.872706  -0.773302  0.602941
H    -4.876678  -2.930330  0.328043
H    -4.938900  -3.871144  1.777357
O    2.908084  -0.505362  2.574927
H    -2.251669  -0.805611  1.264664
Ca    4.410750  -0.885339  1.081224
