27
Energy: -35052.0602021 eV PBE+vdW (tier 2 basis)
N    0.768073  0.502380  1.365132
C    0.031021  -0.085086  2.498299
C    0.882781  0.040237  3.783930
O    1.651999  1.017801  3.899363
H    -1.068437  0.703073  -1.871959
H    1.477710  -0.188587  1.081051
H    -0.815423  0.591817  2.730997
C    -0.615208  -1.470408  2.244616
C    0.254056  -2.485921  1.474094
C    -0.188247  -2.704052  0.022736
N    -0.297584  -1.435518  -0.709825
C    -0.775693  -1.328344  -1.952173
N    -1.017233  -0.110476  -2.470079
N    -1.014055  -2.418077  -2.693468
H    -1.550118  -1.290138  1.695683
H    -0.967032  -1.910760  3.192775
H    0.206507  -3.468276  1.960446
H    1.318845  -2.205739  1.500455
H    -1.168519  -3.207370  0.013360
H    0.539103  -3.367511  -0.471500
H    -0.048361  -0.571218  -0.195318
H    -1.288757  0.007840  -3.438172
H    -1.465113  -2.353444  -3.598081
H    -0.700096  -3.335095  -2.403057
O    0.809275  -0.796087  4.790976
H    0.179821  -1.522840  4.612072
Ca    1.893379  2.252402  2.101148
