27
Energy: -35051.6008622 eV PBE+vdW (tier 2 basis)
N    2.731197  0.409775  0.740669
C    1.643772  0.586455  1.671447
C    2.000517  0.895346  3.131898
O    1.253277  1.485938  3.919713
H    3.327682  1.231433  0.664179
H    3.318981  -0.393185  0.961886
H    1.070827  1.468258  1.340433
C    0.725859  -0.665138  1.602243
C    -0.547026  -0.651260  2.457847
C    -1.496512  0.493259  2.076803
N    -2.575172  0.714636  3.059311
C    -2.424475  1.429800  4.165739
N    -1.345743  2.018214  4.625312
N    -3.591161  1.667380  5.022511
H    1.319846  -1.547495  1.882591
H    0.479197  -0.789751  0.538360
H    -0.289394  -0.576282  3.524723
H    -1.067460  -1.611017  2.332536
H    -1.983538  0.301902  1.112963
H    -0.958330  1.445832  1.981185
H    -3.473224  0.268135  2.888600
H    -0.424953  1.830056  4.155057
H    -4.400279  1.993315  4.481781
H    -3.889784  0.797930  5.480570
O    3.205613  0.459978  3.490903
H    3.363379  0.685548  4.430091
Ca    -2.119794  3.154811  6.310640
