27
Energy: -35053.092718 eV PBE+vdW (tier 2 basis)
N    1.234046  -0.635892  0.280346
C    0.252092  -0.034734  1.230904
C    1.031013  0.309362  2.505181
O    1.999537  -0.380711  2.852507
H    1.827472  0.110526  -0.098248
H    0.723138  -0.993068  -0.534214
H    -0.216090  0.871658  0.815448
C    -0.866447  -1.065833  1.577282
C    -0.243423  -2.385232  2.028853
C    -1.124574  -3.594188  2.327578
N    -0.349393  -4.651215  2.993932
C    0.861836  -5.179874  2.653448
N    1.826908  -4.476512  2.040262
N    1.057768  -6.462694  3.026883
H    -1.484383  -1.206398  0.678032
H    -1.527935  -0.643788  2.346588
H    0.347218  -2.211524  2.946625
H    0.400591  -2.736120  1.208796
H    -1.589831  -3.969813  1.402494
H    -1.933715  -3.325115  3.018195
H    -0.899767  -5.227689  3.622031
H    2.546334  -5.142416  1.740453
H    1.988009  -6.861855  3.060866
H    0.293971  -7.067490  3.306093
O    0.644608  1.294300  3.281348
H    -0.092388  1.819461  2.910698
Ca    2.547754  -2.300929  1.764163
