27
Energy: -35052.9584858 eV PBE+vdW (tier 2 basis)
N    -0.155798  -2.439028  1.512621
C    -0.471797  -0.987760  1.693758
C    0.291076  -0.520627  2.920004
O    0.712834  -1.302589  3.785477
H    -0.838262  -2.831845  0.856327
H    0.741737  -2.521869  1.019949
H    -0.091820  -0.388419  0.852927
C    -2.026216  -0.808059  1.746221
C    -2.703890  0.204198  2.687764
C    -2.847433  -0.196829  4.175845
N    -3.236798  -1.613571  4.323004
C    -2.382767  -2.602408  4.662108
N    -2.290322  -3.818175  4.170281
N    -1.344198  -2.343984  5.597040
H    -2.443360  -1.807231  1.944911
H    -2.333172  -0.561545  0.722268
H    -3.715633  0.357884  2.285179
H    -2.225451  1.192356  2.639837
H    -3.601301  0.440678  4.654026
H    -1.911314  -0.030801  4.722895
H    -3.997311  -1.904534  3.710039
H    -3.049255  -4.091634  3.541632
H    -1.432479  -2.990494  6.386150
H    -1.299526  -1.392400  5.959402
O    0.471392  0.781078  2.965976
H    1.004657  1.037079  3.749703
Ca    0.013810  -3.499461  3.822521
