27
Energy: -35052.8740066 eV PBE+vdW (tier 2 basis)
N    0.886411  -0.045442  0.130934
C    0.411658  0.181655  1.505033
C    1.583910  0.589544  2.394571
O    2.718153  0.096585  2.278580
H    0.077338  -0.238044  -0.464647
H    1.291170  0.814488  -0.249458
H    -0.350488  0.980056  1.541624
C    -0.191631  -1.106806  2.167472
C    -0.896012  -2.135801  1.262582
C    0.003412  -3.116650  0.468439
N    1.124447  -3.632257  1.264593
C    2.369107  -3.135905  1.295827
N    3.303459  -3.362275  2.193045
N    2.791976  -2.193302  0.294030
H    -0.912793  -0.768536  2.922468
H    0.598026  -1.626129  2.730309
H    -1.592141  -1.657876  0.556850
H    -1.537651  -2.730230  1.929075
H    0.412114  -2.667010  -0.441220
H    -0.599324  -3.973761  0.143458
H    0.882323  -4.286041  2.007835
H    3.076649  -4.051990  2.912897
H    3.088897  -2.681178  -0.556738
H    2.057341  -1.473417  0.061224
O    1.385956  1.437091  3.378778
H    0.484394  1.817323  3.380118
Ca    4.352633  -1.360722  1.926156
