27
Energy: -35053.1998619 eV PBE+vdW (tier 2 basis)
N    -1.011877  1.444848  0.871058
C    -0.841536  0.483007  1.971061
C    0.679206  0.267071  2.073864
O    1.183626  -0.612193  2.814772
H    -1.416472  1.040997  0.026359
H    -1.567081  2.258900  1.131871
H    -1.140724  0.969175  2.913380
C    -1.571276  -0.866906  1.879407
C    -1.166755  -1.769821  0.695155
C    -1.296652  -3.263749  1.012737
N    -0.097772  -3.804803  1.730524
C    1.098119  -4.097506  0.966611
N    2.195453  -3.962388  1.665057
N    0.992823  -4.429790  -0.321635
H    -2.653796  -0.682698  1.860047
H    -1.388392  -1.388208  2.832479
H    -0.135388  -1.565645  0.360602
H    -1.800092  -1.554784  -0.175921
H    -1.506785  -3.839506  0.099346
H    -2.153952  -3.443332  1.674529
H    -0.367281  -4.670385  2.211291
H    3.052206  -4.265673  1.196943
H    1.820666  -4.600390  -0.885396
H    0.101666  -4.657769  -0.748394
O    1.378387  1.038847  1.325247
H    0.596325  1.571892  0.838137
Ca    1.541338  -2.631211  3.388077
