27
Energy: -35051.5695096 eV PBE+vdW (tier 2 basis)
N    0.460368  1.625495  0.767615
C    -0.081787  0.931802  1.918097
C    0.948854  0.503589  2.965395
O    0.856678  0.793711  4.167530
H    1.030277  2.433699  1.013295
H    1.013261  1.013799  0.166768
H    -0.718925  1.655351  2.453714
C    -0.966459  -0.233856  1.414806
C    -1.428536  -1.344185  2.376855
C    -1.957820  -0.969000  3.773658
N    -2.804431  0.239454  3.796756
C    -2.581818  1.355440  4.478311
N    -3.280061  2.481129  4.441111
N    -1.456002  1.458419  5.380632
H    -0.420970  -0.734307  0.601810
H    -1.829895  0.243620  0.930912
H    -0.609676  -2.055960  2.559253
H    -2.197827  -1.923406  1.847634
H    -1.128120  -0.800899  4.465380
H    -2.550149  -1.801410  4.177657
H    -3.626048  0.226591  3.192121
H    -4.074282  2.505755  3.799230
H    -1.484079  0.708828  6.082099
H    -0.526685  1.289607  4.852121
O    1.971140  -0.182686  2.477032
H    2.607905  -0.391209  3.192338
Ca    -2.173107  3.661684  5.930603
