27
Energy: -35053.6711002 eV PBE+vdW (tier 2 basis)
N    -0.528066  0.637179  1.521341
C    0.232230  0.155474  2.677297
C    1.738025  0.407828  2.585706
O    2.291598  0.725084  1.468008
H    -0.471128  1.654783  1.449556
H    -0.123981  0.271830  0.654865
H    -0.101632  0.712171  3.567744
C    -0.004631  -1.350497  2.954293
C    -1.396603  -1.719073  3.507917
C    -2.516241  -2.015026  2.505092
N    -2.973895  -0.816876  1.800077
C    -4.174581  -0.678001  1.240206
N    -4.546288  0.522087  0.755568
N    -5.031499  -1.707109  1.152619
H    0.740600  -1.662846  3.697561
H    0.212020  -1.923803  2.037532
H    -1.736735  -0.953994  4.222445
H    -1.277280  -2.640446  4.094653
H    -3.364200  -2.436842  3.063791
H    -2.178213  -2.779562  1.783873
H    -2.234381  -0.101087  1.620016
H    -5.371959  0.626769  0.179887
H    -6.002234  -1.563765  0.902844
H    -4.730581  -2.659905  1.308876
O    2.467724  0.295645  3.640928
H    -4.054342  1.363656  1.023551
Ca    4.210727  0.824712  2.491081
