27
Energy: -35052.7969329 eV PBE+vdW (tier 2 basis)
N    -0.333669  0.910774  0.722404
C    0.005564  -0.142742  1.674465
C    1.478611  -0.512210  1.568566
O    2.270197  0.021161  0.773392
H    0.103820  1.792427  0.997635
H    -1.339907  1.085528  0.766551
H    -0.081868  0.193703  2.731312
C    -0.949720  -1.374236  1.574927
C    -1.433657  -1.874965  0.201381
C    -0.399003  -2.320545  -0.840850
N    0.092733  -1.170541  -1.607406
C    1.356686  -0.900958  -1.914067
N    2.421526  -1.671698  -1.834243
N    1.684439  0.456751  -2.236597
H    -1.847239  -1.111199  2.151706
H    -0.506361  -2.220430  2.123059
H    -2.108816  -1.138717  -0.261768
H    -2.076374  -2.741640  0.410546
H    -0.856038  -3.043920  -1.530305
H    0.462074  -2.820422  -0.372690
H    -0.590140  -0.436682  -1.776899
H    2.235266  -2.670481  -1.735288
H    1.870638  0.578892  -3.236298
H    0.975429  1.126413  -1.926727
O    1.980307  -1.414242  2.392737
H    1.319160  -1.758561  3.026786
Ca    3.704974  -0.072859  -0.885871
