27
Energy: -35053.2082467 eV PBE+vdW (tier 2 basis)
N    0.591062  -1.282984  0.998500
C    0.252177  -0.532750  2.247900
C    1.241813  -0.980326  3.311338
O    1.916951  -2.015604  3.207634
H    -0.183496  -1.161554  0.338256
H    1.386321  -0.822197  0.539525
H    0.416938  0.548377  2.123108
C    -1.265024  -0.752873  2.559414
C    -1.791409  -0.885881  3.996829
C    -1.601957  -2.264272  4.666427
N    -1.981085  -3.368501  3.773380
C    -1.088915  -4.146729  3.134053
N    0.149060  -4.401523  3.505879
N    -1.399099  -4.625591  1.851847
H    -1.570140  -1.650370  1.997763
H    -1.790943  0.083614  2.082342
H    -2.868758  -0.670318  3.952664
H    -1.371689  -0.117571  4.660847
H    -2.202343  -2.317329  5.582855
H    -0.561797  -2.427065  4.971376
H    -2.958882  -3.426254  3.497770
H    0.332961  -4.232546  4.495837
H    -2.291015  -4.334813  1.453221
H    -1.259763  -5.631893  1.747989
O    1.331057  -0.154790  4.330390
H    2.009948  -0.459323  4.971365
Ca    1.281607  -3.621150  1.710617
