27
Energy: -35053.345938 eV PBE+vdW (tier 2 basis)
N    -0.007223  -0.236502  1.518201
C    0.689683  -0.510457  2.767012
C    2.182871  -0.641196  2.539135
O    2.939959  -1.212940  3.413123
H    0.573712  0.311295  0.883758
H    -5.226998  -4.294817  2.527654
H    0.658343  0.344048  3.482470
C    0.068665  -1.711078  3.516277
C    0.002896  -2.994975  2.685019
C    -0.755216  -4.143095  3.365231
N    -2.191565  -3.901310  3.580316
C    -3.179739  -4.238101  2.741187
N    -4.449532  -4.245787  3.175146
N    -2.916533  -4.571877  1.470910
H    -0.946989  -1.397097  3.803447
H    0.622687  -1.878248  4.450783
H    1.019517  -3.369563  2.486460
H    -0.436345  -2.756985  1.704158
H    -0.330341  -4.352278  4.356154
H    -0.652678  -5.072050  2.787100
H    -2.471281  -3.503606  4.470355
H    -4.670561  -4.268279  4.163289
H    -3.616713  -5.019829  0.892174
H    -2.022824  -4.364629  1.045046
O    2.728290  -0.100642  1.503115
H    -0.857193  0.299443  1.689152
Ca    4.674744  -0.543096  2.314297
