27
Energy: -35053.6803271 eV PBE+vdW (tier 2 basis)
N    -0.922725  0.140548  0.564416
C    -0.536869  0.091107  2.035591
C    0.885402  0.669283  2.123112
O    1.417224  0.768063  3.262944
H    -1.739407  0.737193  0.384310
H    -1.119958  -0.791265  0.177950
H    -1.194400  0.794107  2.564840
C    -0.705784  -1.297211  2.683225
C    -0.156809  -2.549713  1.972682
C    1.337154  -2.631250  1.618505
N    2.225080  -2.412472  2.761457
C    3.286656  -1.584468  2.725236
N    3.833141  -1.033492  1.662606
N    3.784989  -1.071173  3.935265
H    -1.778807  -1.460815  2.855794
H    -0.262822  -1.194279  3.683388
H    -0.706978  -2.752260  1.037438
H    -0.424038  -3.403902  2.612956
H    1.601178  -1.876269  0.865310
H    1.537271  -3.611882  1.162754
H    2.045007  -2.938490  3.612800
H    3.628242  -1.503421  0.780209
H    3.247799  -1.273421  4.777262
H    4.781548  -1.246574  4.069782
O    1.473023  1.001553  1.040844
H    -0.082356  0.545289  0.084032
Ca    3.477506  1.114224  2.360175
