27
Energy: -35053.2448918 eV PBE+vdW (tier 2 basis)
N    0.054430  -0.085516  -0.379314
C    0.140280  0.260214  1.093235
C    1.616340  0.729737  1.266700
O    1.925994  1.162777  2.448507
H    -0.251371  -1.049454  -0.554602
H    -0.545115  0.548896  -0.918785
H    -0.525781  1.115475  1.264260
C    -0.202247  -0.927367  2.024953
C    -1.519494  -0.844934  2.812792
C    -1.682572  0.403574  3.708106
N    -0.463539  0.842313  4.388475
C    0.169483  0.273556  5.439876
N    1.473059  0.541982  5.623602
N    -0.532787  -0.543301  6.249149
H    0.625956  -1.041215  2.736275
H    -0.198694  -1.860384  1.441164
H    -1.573687  -1.751809  3.431093
H    -2.389613  -0.887430  2.140948
H    -2.491491  0.236498  4.432195
H    -2.016070  1.268852  3.120213
H    0.126495  1.464506  3.848415
H    1.758509  0.257870  6.564498
H    -0.089136  -0.979654  7.047850
H    -1.545895  -0.550940  6.240149
O    2.366530  0.630892  0.299668
H    1.071866  0.044394  -0.683271
Ca    3.064998  1.274768  4.204303
