27
Energy: -35051.7377724 eV PBE+vdW (tier 2 basis)
N    0.640022  -0.350987  0.612243
C    -0.242137  0.011505  1.716766
C    0.497520  -0.176207  3.044216
O    0.357496  -1.127665  3.831548
H    1.407380  0.306451  0.482436
H    1.019933  -1.293818  0.693995
H    -0.463703  1.084997  1.619670
C    -1.542515  -0.793811  1.624319
C    -2.618857  -0.439768  2.677620
C    -3.129571  -1.644786  3.467426
N    -2.011351  -2.254924  4.211725
C    -2.119604  -3.205087  5.100317
N    -3.189342  -3.862446  5.537516
N    -0.905203  -3.669709  5.784691
H    -1.292409  -1.867218  1.664046
H    -1.929832  -0.627675  0.612551
H    -3.488172  0.019848  2.191402
H    -2.249705  0.315458  3.388994
H    -3.559764  -2.400672  2.790659
H    -3.911089  -1.339719  4.180537
H    -1.043119  -1.854598  4.001387
H    -4.072300  -3.607856  5.091991
H    -0.260731  -4.091910  5.104751
H    -0.386912  -2.870861  6.170533
O    1.411026  0.767761  3.250189
H    1.928417  0.558449  4.054089
Ca    -2.337460  -5.120187  7.103525
