27
Energy: -35053.7097036 eV PBE+vdW (tier 2 basis)
N    0.684707  -0.220273  0.288485
C    0.159655  0.153381  1.666946
C    1.297326  -0.150330  2.655556
O    1.455735  0.584626  3.664913
H    1.284354  0.515324  -0.111179
H    -0.073709  -0.408454  -0.381913
H    -0.081305  1.222753  1.661355
C    -1.065294  -0.726268  1.990011
C    -1.639947  -0.489150  3.405241
C    -2.058541  -1.775391  4.140325
N    -0.979229  -2.769092  4.279869
C    0.166305  -2.571193  4.959038
N    0.495525  -1.560299  5.722023
N    1.248008  -3.464620  4.729796
H    -0.751303  -1.777163  1.885041
H    -1.842478  -0.540573  1.233833
H    -2.529902  0.150382  3.345943
H    -0.920699  0.072634  4.015156
H    -2.865647  -2.284231  3.599662
H    -2.467229  -1.517565  5.128689
H    -1.169071  -3.706527  3.939666
H    -0.278580  -0.961443  6.011576
H    1.504175  -3.980929  5.574431
H    1.130022  -4.108592  3.947695
O    1.960459  -1.224452  2.449406
H    1.264025  -1.073388  0.407155
Ca    2.532568  -1.153584  4.722961
