27
Energy: -35051.2967271 eV PBE+vdW (tier 2 basis)
N    -0.629044  0.600940  0.318119
C    -0.116159  0.060929  1.616826
C    1.269328  -0.508672  1.351332
O    1.922058  -0.140252  0.346471
H    -1.114685  -0.231303  -0.176436
H    -1.485801  1.138487  0.532789
H    0.089423  0.925669  2.277315
C    -1.108378  -0.824028  2.398790
C    -1.477999  -2.243674  1.900130
C    -1.439547  -2.593764  0.409652
N    -2.087951  -1.619712  -0.517745
C    -3.424882  -1.154048  -0.192659
N    -3.498740  -0.044148  0.456887
N    -4.434051  -1.924488  -0.676406
H    -2.024923  -0.223770  2.457434
H    -0.754366  -0.896713  3.440909
H    -2.484337  -2.445819  2.291086
H    -0.834925  -2.995205  2.382122
H    -1.879851  -3.598317  0.305062
H    -0.398165  -2.685786  0.061446
H    -2.094581  -2.029556  -1.454888
H    -4.462524  0.214511  0.686666
H    -4.274364  -2.859862  -1.029642
H    -5.401660  -1.655635  -0.535598
O    1.837043  -1.342475  2.177027
H    1.255158  -1.577582  2.929285
Ca    1.121944  1.333206  -1.017875
