27
Energy: -35052.5633635 eV PBE+vdW (tier 2 basis)
N    0.457961  -0.215883  -0.195905
C    0.084994  0.015533  1.176652
C    1.206931  -0.379507  2.095654
O    2.191818  -1.059895  1.809735
H    -0.316684  -0.002545  -0.824441
H    1.252803  0.351250  -0.491429
H    -0.172521  1.067020  1.439434
C    -1.164507  -0.847639  1.574979
C    -1.202270  -2.309947  1.095488
C    -0.056176  -3.271466  1.411523
N    0.228282  -3.425290  2.902876
C    0.883874  -4.675763  3.218607
N    2.164222  -4.553786  3.455669
N    0.149524  -5.790848  3.256269
H    -2.034511  -0.338271  1.137114
H    -1.322260  -0.782766  2.662737
H    -1.284018  -2.326498  0.000143
H    -2.150025  -2.736746  1.461510
H    0.870707  -2.957457  0.918683
H    -0.323933  -4.253516  0.995454
H    -0.668678  -3.383552  3.398787
H    2.668633  -5.429605  3.610429
H    0.559499  -6.689223  3.498088
H    -0.828166  -5.800640  2.985118
O    1.098599  -0.078183  3.424877
H    0.331312  0.492132  3.634678
Ca    2.419585  -2.309452  3.692400
