27
Energy: -35051.6819646 eV PBE+vdW (tier 2 basis)
N    0.603338  0.611281  0.689628
C    0.565242  -0.014416  1.987874
C    1.887328  -0.708348  2.311463
O    2.291707  -0.903331  3.472122
H    1.193990  1.439581  0.650505
H    -0.324428  0.856943  0.350386
H    0.409525  0.686094  2.838136
C    -0.581910  -1.066214  1.990351
C    -0.738144  -1.924660  3.249214
C    -1.191646  -1.131432  4.492813
N    -0.724752  -1.746280  5.749527
C    0.446362  -1.526504  6.335495
N    0.992736  -2.201963  7.334618
N    1.291680  -0.442082  5.894745
H    -0.426758  -1.723327  1.123716
H    -1.512743  -0.511765  1.793539
H    0.208563  -2.436261  3.476381
H    -1.465749  -2.721024  3.043057
H    -2.284428  -1.067974  4.554501
H    -0.824580  -0.098585  4.463142
H    -1.278966  -2.524006  6.106479
H    0.474540  -3.013706  7.674890
H    0.781911  0.447745  5.909459
H    1.615141  -0.579198  4.869935
O    2.565050  -1.121613  1.259416
H    3.382575  -1.574582  1.553353
Ca    2.867974  -1.075372  7.555978
