27
Energy: -35053.1980857 eV PBE+vdW (tier 2 basis)
N    -0.534677  0.115190  -0.468182
C    -0.371380  0.174305  1.040548
C    1.156387  0.475124  1.201732
O    1.536687  0.898441  2.356545
H    -0.941822  0.966837  -0.870490
H    -1.080443  -0.691358  -0.793469
H    -0.955346  1.022252  1.417331
C    -0.855971  -1.168306  1.629139
C    -0.595602  -1.482226  3.111838
C    -1.423300  -0.747144  4.182967
N    -1.114012  0.679276  4.365987
C    0.004950  1.196261  4.895808
N    0.386021  2.452952  4.932262
N    1.018490  0.321691  5.379060
H    -0.367501  -1.970197  1.052011
H    -1.936694  -1.253036  1.429478
H    0.482066  -1.399226  3.315407
H    -0.830422  -2.549034  3.241853
H    -1.310153  -1.264131  5.147796
H    -2.493613  -0.803294  3.947725
H    -1.773709  1.350860  3.985854
H    -0.336082  3.135157  4.693421
H    0.850191  -0.674157  5.243180
H    1.200053  0.503762  6.369647
O    1.862264  0.298626  0.208485
H    0.490793  0.039748  -0.773292
Ca    2.426247  1.887043  3.987299
