27
Energy: -35053.3061502 eV PBE+vdW (tier 2 basis)
N    1.112500  -0.450514  0.232698
C    0.626404  0.496179  1.319239
C    1.847425  0.825723  2.184860
O    2.845323  0.028673  2.164870
H    1.983328  -0.888363  0.602530
H    0.424947  -1.178897  0.000682
H    0.293210  1.419876  0.831300
C    -0.559752  -0.083299  2.138916
C    -0.568987  -1.577985  2.516432
C    0.494485  -2.164377  3.464894
N    0.287620  -1.966297  4.908371
C    1.129843  -1.223814  5.681245
N    1.646480  -0.071437  5.241340
N    1.442482  -1.673949  6.906719
H    -1.472178  0.110586  1.557253
H    -0.654894  0.556890  3.028145
H    -0.546261  -2.196858  1.602073
H    -1.564765  -1.782497  2.935854
H    1.500836  -1.800384  3.223017
H    0.512175  -3.250835  3.300511
H    -0.241247  -2.695674  5.379641
H    0.958579  0.336467  4.599479
H    1.782712  -1.022314  7.604080
H    1.232707  -2.618255  7.209323
O    1.771088  1.825314  2.951994
H    1.353392  0.047788  -0.634080
Ca    3.391136  0.955759  4.272472
