27
Energy: -35051.212236 eV PBE+vdW (tier 2 basis)
N    0.456922  0.477823  0.145270
C    -0.320361  0.288354  1.450136
C    0.682146  -0.215735  2.490215
O    0.295620  -0.458678  3.674828
H    0.257366  -0.288426  -0.513654
H    0.221520  1.361967  -0.324236
H    -0.638693  1.290921  1.775281
C    -1.559406  -0.594176  1.211226
C    -2.530191  -0.664617  2.396027
C    -3.893581  -1.278671  1.995828
N    -4.759907  -1.475491  3.143073
C    -4.542824  -2.523051  4.047787
N    -4.466830  -2.231116  5.300114
N    -4.412998  -3.768534  3.444072
H    -1.235097  -1.606938  0.918358
H    -2.085575  -0.161910  0.342502
H    -2.700752  0.344999  2.802037
H    -2.103111  -1.262040  3.211541
H    -3.736626  -2.245300  1.499212
H    -4.405365  -0.624940  1.273898
H    -4.975354  -0.626215  3.662901
H    -4.468630  -3.062435  5.898764
H    -4.370961  -4.550127  4.090143
H    -5.043418  -3.947747  2.665591
O    1.917784  -0.352307  2.157860
H    1.472493  0.453242  0.358999
Ca    2.346481  -0.946086  4.291579
