27
Energy: -35052.5877872 eV PBE+vdW (tier 2 basis)
N    0.817776  -0.754929  0.693780
C    -0.591094  -0.899301  0.980481
C    -0.944724  -0.378673  2.354998
O    -2.075545  -0.512669  2.886323
H    1.012077  -0.987632  -0.280225
H    1.170039  0.187019  0.858546
H    -1.257602  -0.252357  0.356121
C    -1.065612  -2.350575  0.686739
C    -0.182713  -3.494308  1.215561
C    -0.392888  -3.914483  2.674093
N    -1.786694  -4.337392  2.897776
C    -2.638336  -3.740437  3.731836
N    -2.370175  -2.961656  4.760815
N    -4.029506  -3.756964  3.417946
H    -1.095228  -2.430113  -0.408449
H    -2.114065  -2.457910  1.004612
H    0.876769  -3.226942  1.102149
H    -0.340463  -4.374217  0.573728
H    -0.178312  -3.091331  3.368178
H    0.284496  -4.737564  2.935912
H    -2.149243  -5.046407  2.263277
H    -1.416429  -3.037123  5.117351
H    -4.268423  -4.155792  2.508355
H    -4.586220  -4.211149  4.147869
O    0.005522  0.322494  2.929397
H    -0.299332  0.741136  3.760846
Ca    -3.715584  -1.291489  4.088507
