27
Energy: -35051.9376646 eV PBE+vdW (tier 2 basis)
N    0.868266  0.004685  0.520489
C    0.726391  0.259696  -0.957471
C    1.454803  1.592758  -1.193199
O    1.790835  2.300628  -0.262086
H    1.602819  -0.682673  0.713357
H    1.182436  0.922586  0.909842
H    1.236610  -0.543386  -1.504752
C    -0.744626  0.341094  -1.394761
C    -1.579920  -0.925553  -1.115204
C    -2.421185  -0.893287  0.164934
N    -1.600853  -0.780922  1.378226
C    -2.105437  -0.970589  2.550474
N    -1.493926  -0.895731  3.754610
N    -3.539530  -1.323030  2.793009
H    -0.725969  0.537197  -2.474319
H    -1.214759  1.225978  -0.936449
H    -0.940431  -1.822161  -1.117236
H    -2.282328  -1.065969  -1.947571
H    -3.037737  -1.807879  0.180625
H    -3.117856  -0.037737  0.103595
H    -0.077567  -0.322159  0.973885
H    -0.502115  -0.665641  3.698571
H    -3.765243  -2.204375  2.317617
H    -4.150706  -0.627738  2.350166
O    1.623206  1.848341  -2.485546
H    2.071298  2.713925  -2.590411
Ca    -3.077997  -1.300172  5.148317
