27
Energy: -35051.541928 eV PBE+vdW (tier 2 basis)
N    0.809055  -0.092086  -0.057754
C    1.053530  -0.647383  1.266606
C    2.058766  -1.790742  1.202750
O    2.082053  -2.782662  1.940054
H    0.362667  0.822525  0.014542
H    1.672070  0.036579  -0.584220
H    1.574395  0.059916  1.955250
C    -0.289851  -0.991184  1.951391
C    -1.252967  -1.872933  1.142142
C    -0.978472  -3.377956  1.081489
N    -1.462041  -4.172737  2.245860
C    -0.859146  -4.465356  3.387614
N    -1.270635  -5.321997  4.318251
N    0.409341  -3.886114  3.749206
H    -0.792910  -0.027606  2.117062
H    -0.102472  -1.375440  2.964645
H    -1.225596  -1.513480  0.102792
H    -2.282932  -1.714805  1.492028
H    0.080948  -3.608164  0.928078
H    -1.514954  -3.808406  0.227529
H    -2.355060  -4.640180  2.095859
H    -2.191160  -5.741323  4.175521
H    0.219414  -3.035210  4.295004
H    1.008995  -3.526857  2.948210
O    3.001093  -1.582405  0.290376
H    3.661508  -2.304450  0.327805
Ca    0.643835  -5.678975  5.329308
