27
Energy: -35051.360123 eV PBE+vdW (tier 2 basis)
N    0.850379  1.060336  1.675837
C    0.583245  0.290984  2.933508
C    1.875803  0.222516  3.739686
O    2.842437  0.968193  3.459949
H    0.805188  0.400323  0.890102
H    -0.036162  1.686703  1.544574
H    -0.066367  0.944137  3.547039
C    -0.144094  -1.076117  2.756978
C    -1.385356  -1.299915  3.657773
C    -2.740209  -0.813026  3.094363
N    -2.804605  0.620397  2.800259
C    -2.214321  1.197290  1.704810
N    -1.586509  2.353542  1.687551
N    -2.181826  0.446801  0.550197
H    0.575667  -1.894170  2.912585
H    -0.444749  -1.156986  1.703099
H    -1.227403  -0.845929  4.652144
H    -1.491052  -2.378718  3.841970
H    -3.529198  -1.041157  3.821813
H    -2.993776  -1.386950  2.193745
H    -2.853866  1.225451  3.614860
H    -1.691494  2.848946  2.577383
H    -2.040523  1.014823  -0.280636
H    -2.913991  -0.246175  0.427154
O    1.999973  -0.560374  4.775235
H    1.220333  -1.133900  4.922860
Ca    2.854019  2.287036  1.764045
