27
Energy: -35049.8827166 eV PBE+vdW (tier 2 basis)
N    0.899417  -0.329800  0.305613
C    0.864187  -0.533284  1.751121
C    1.968432  -1.582779  1.880203
O    3.192505  -1.272056  1.950133
H    0.161224  -0.818913  -0.197041
H    0.927617  0.646783  0.025556
H    1.236677  0.369754  2.254041
C    -0.483318  -0.945224  2.353277
C    -0.466833  -1.122247  3.876109
C    -1.818749  -1.625548  4.429006
N    -1.767928  -1.985294  5.829744
C    -1.104777  -3.101162  6.290300
N    -0.601172  -4.053816  5.545240
N    -0.919285  -3.183006  7.641385
H    -0.857037  -1.865339  1.857848
H    -1.206705  -0.169085  2.061104
H    -0.212941  -0.166313  4.358071
H    0.311329  -1.841872  4.181163
H    -2.169634  -2.490429  3.841424
H    -2.589696  -0.853004  4.312288
H    -2.074682  -1.289846  6.500574
H    -0.902501  -3.965214  4.571874
H    -0.615391  -4.088190  7.982937
H    -1.467537  -2.622722  8.282627
O    1.705332  -2.863047  1.816158
H    0.738096  -3.029206  1.814537
Ca    5.247696  -1.384026  1.712983
