27
Energy: -35052.2760141 eV PBE+vdW (tier 2 basis)
N    0.879291  0.958505  0.209077
C    0.062577  0.249853  1.268052
C    1.006117  -0.089442  2.452587
O    2.247895  -0.322439  2.105931
H    0.857905  1.963219  0.427616
H    0.377859  0.893677  -0.683208
H    -0.217736  -0.722801  0.827874
C    -1.202461  1.031107  1.670969
C    -2.458585  0.221333  2.057460
C    -2.409812  -0.743458  3.240354
N    -1.919198  -0.099292  4.527684
C    -2.648993  1.123923  4.990956
N    -2.048739  2.206595  4.717544
N    -3.846108  0.834580  5.561998
H    -1.509827  1.639675  0.807274
H    -0.955457  1.742736  2.473247
H    -2.787100  -0.387199  1.200420
H    -3.266489  0.947684  2.223197
H    -1.720596  -1.580651  3.071947
H    -3.408036  -1.156649  3.426683
H    -1.893470  -0.810171  5.271298
H    -2.535210  3.046816  5.042560
H    -4.089250  -0.094766  5.886003
H    -4.392572  1.591353  5.959339
O    0.596611  -0.155149  3.605273
H    -0.913332  0.161101  4.332245
Ca    3.184751  0.145654  0.365357
