27
Energy: -35052.9841273 eV PBE+vdW (tier 2 basis)
N    -0.236397  0.779789  1.870523
C    -0.416229  -0.697767  2.026427
C    0.930778  -1.374505  1.758000
O    1.897145  -0.757911  1.288630
H    -0.103301  1.183135  2.804034
H    -1.124143  1.183779  1.556082
H    -0.656281  -0.926662  3.079111
C    -1.606094  -1.275557  1.198952
C    -1.738179  -0.913543  -0.290352
C    -0.655312  -1.521270  -1.209540
N    -0.378624  -0.781802  -2.445264
C    0.464449  0.279441  -2.468814
N    0.646723  1.034609  -1.370272
N    1.140223  0.559288  -3.591773
H    -2.520531  -0.949002  1.714257
H    -1.598276  -2.371176  1.311695
H    -1.796565  0.179241  -0.415410
H    -2.728082  -1.259956  -0.618182
H    -0.953785  -2.534388  -1.504161
H    0.300408  -1.628792  -0.676491
H    -0.639462  -1.217449  -3.324621
H    -0.230040  0.970718  -0.840421
H    1.525245  1.487333  -3.722355
H    1.167335  -0.075293  -4.382017
O    1.091437  -2.647338  2.043946
H    0.309599  -3.059258  2.462330
Ca    1.862804  1.303435  0.456431
