27
Energy: -35053.2330866 eV PBE+vdW (tier 2 basis)
N    -0.995223  0.874138  -0.263874
C    -0.571777  0.604790  1.170425
C    0.819939  1.228825  1.033946
O    0.887360  2.500480  1.132817
H    -1.066196  -0.012131  -0.770087
H    -1.926964  1.293770  -0.280059
H    -1.181709  1.235005  1.828553
C    -0.638102  -0.859445  1.592059
C    -0.246314  -1.047491  3.066814
C    -0.506862  -2.454402  3.624707
N    0.389870  -3.506099  3.124430
C    1.454963  -4.005201  3.769204
N    1.994396  -5.163823  3.361210
N    1.995679  -3.360556  4.810731
H    0.019832  -1.452178  0.936343
H    -1.669954  -1.214601  1.439472
H    -0.832977  -0.354201  3.689196
H    0.811318  -0.775319  3.213742
H    -1.531898  -2.773718  3.390288
H    -0.440611  -2.448068  4.720809
H    0.135927  -3.964487  2.255859
H    1.476214  -5.813743  2.782385
H    2.646032  -3.826295  5.432638
H    1.747539  -2.405814  5.033649
O    1.689515  0.586436  0.351081
H    2.900456  -5.468861  3.696773
Ca    1.228564  2.285281  -1.011715
