27
Energy: -35052.4731016 eV PBE+vdW (tier 2 basis)
N    0.974402  -1.510381  -0.053697
C    0.284357  -1.138949  1.164760
C    1.253450  -1.383810  2.322349
O    2.335647  -1.966131  2.146833
H    0.403275  -1.277801  -0.866640
H    -2.711241  0.745783  -1.710052
H    0.050744  -0.050533  1.209483
C    -1.033299  -1.934649  1.436385
C    -2.200852  -1.640658  0.480883
C    -2.937629  -0.323244  0.776087
N    -4.253441  -0.240510  0.128218
C    -4.599646  0.506714  -0.928633
N    -3.669774  1.065620  -1.716305
N    -5.896423  0.706282  -1.202003
H    -1.381819  -1.771864  2.471308
H    -0.782146  -3.001789  1.360302
H    -2.923402  -2.463722  0.582715
H    -1.866632  -1.672395  -0.568318
H    -2.357280  0.563984  0.488856
H    -3.118203  -0.231923  1.857309
H    -4.996678  -0.791395  0.547932
H    -3.916548  1.787347  -2.382926
H    -6.198126  1.051478  -2.105759
H    -6.617895  0.523009  -0.514553
O    0.970868  -0.986147  3.549126
H    0.116677  -0.517357  3.596916
Ca    2.909099  -2.387493  0.047833
