27
Energy: -35050.6997337 eV PBE+vdW (tier 2 basis)
N    -0.336779  0.695096  1.138791
C    0.094784  -0.185420  2.279892
C    1.578056  -0.447824  2.129523
O    2.124194  -0.369760  0.997528
H    -1.326613  0.483560  0.955397
H    -0.351964  1.668227  1.467824
H    -0.109082  0.312136  3.241296
C    -0.660199  -1.545719  2.258577
C    -2.177078  -1.401737  2.405860
C    -2.887346  -2.773237  2.592576
N    -4.322109  -2.635604  2.689353
C    -4.940546  -1.921824  3.726819
N    -5.850320  -1.076884  3.390297
N    -4.439357  -2.209372  4.989389
H    -0.267733  -2.155012  3.087260
H    -0.400942  -2.090027  1.334076
H    -2.629386  -0.916747  1.523493
H    -2.417739  -0.771186  3.275765
H    -2.489893  -3.258583  3.494549
H    -2.664791  -3.439675  1.747778
H    -4.807082  -2.446441  1.814209
H    -6.350156  -0.683923  4.193226
H    -4.942424  -1.768832  5.753516
H    -4.244923  -3.190460  5.177666
O    2.318513  -0.847305  3.129693
H    1.849145  -0.868099  3.987940
Ca    1.248201  0.485204  -0.731870
