27
Energy: -35053.4191647 eV PBE+vdW (tier 2 basis)
N    0.537677  0.859412  2.613787
C    0.800128  -0.561290  2.532988
C    2.222182  -0.999422  2.897867
O    2.483589  -2.249774  3.088505
H    -4.018492  1.421051  -1.453833
H    0.489767  1.191111  3.575592
H    0.163439  -1.076376  3.272715
C    0.407425  -1.111342  1.135759
C    -1.112748  -1.057849  0.942509
C    -1.605295  -1.441715  -0.458705
N    -1.361286  -0.434783  -1.504289
C    -2.212370  0.534304  -1.866618
N    -3.262810  0.848113  -1.097950
N    -2.013622  1.200991  -3.014985
H    0.764575  -2.145691  1.028199
H    0.922169  -0.501609  0.374624
H    -1.464453  -0.050550  1.214236
H    -1.587689  -1.756056  1.648852
H    -2.684247  -1.649293  -0.441050
H    -1.126685  -2.368496  -0.802613
H    -0.503808  -0.507217  -2.040398
H    -3.330657  0.533150  -0.139005
H    -1.427817  0.823686  -3.749735
H    -2.517641  2.055237  -3.220444
O    3.163231  -0.134500  3.053067
H    1.253244  1.408290  2.136920
Ca    4.473883  -1.721893  3.711031
