27
Energy: -35051.9546942 eV PBE+vdW (tier 2 basis)
N    1.001818  -0.741443  0.162003
C    0.784488  -0.626834  1.619481
C    1.840186  -1.321614  2.458119
O    1.760299  -1.629795  3.603263
H    0.171935  -0.370360  -0.307696
H    1.764985  -0.126068  -0.131404
H    0.914966  0.426681  1.942398
C    -0.661961  -1.004829  2.028093
C    -1.098520  -2.465784  2.237817
C    -0.808367  -3.518673  1.151727
N    0.449481  -4.241697  1.416774
C    1.604103  -4.209136  0.756818
N    2.734696  -4.805001  1.093821
N    1.760618  -3.364585  -0.393695
H    -1.312473  -0.532157  1.275868
H    -0.881495  -0.476690  2.964970
H    -2.188326  -2.430921  2.372876
H    -0.708712  -2.835680  3.197740
H    -0.771021  -3.095076  0.141777
H    -1.606747  -4.271974  1.146116
H    0.442907  -4.803497  2.267837
H    2.682804  -5.463596  1.873943
H    1.271681  -2.423310  -0.313806
H    1.498497  -3.850572  -1.256372
O    3.151686  -1.490419  1.791804
H    3.745112  -1.462054  2.574095
Ca    4.036704  -3.191131  0.271230
