27
Energy: -35051.4885909 eV PBE+vdW (tier 2 basis)
N    0.568927  0.554302  0.222825
C    0.534719  -0.170367  1.471390
C    1.928538  -0.253330  2.087758
O    2.149619  -0.566004  3.268372
H    -0.359617  0.646039  -0.185240
H    0.980948  1.482468  0.298653
H    -0.085344  0.289106  2.275714
C    -0.065521  -1.580705  1.184840
C    -0.511313  -2.410283  2.399286
C    0.614680  -3.284674  2.974244
N    0.422570  -3.705715  4.382921
C    0.520365  -2.941770  5.462006
N    0.497645  -3.325694  6.731447
N    0.708532  -1.512745  5.347921
H    0.624865  -2.142556  0.539041
H    -0.951660  -1.388240  0.565060
H    -1.349650  -3.057962  2.111998
H    -0.916057  -1.732522  3.166808
H    1.588042  -2.786895  2.908605
H    0.700361  -4.213883  2.399925
H    0.302584  -4.704177  4.545129
H    0.332070  -4.318803  6.904803
H    -0.209791  -1.074718  5.199212
H    1.278652  -1.194235  4.501804
O    2.911786  0.045232  1.255934
H    3.766588  -0.023745  1.730112
Ca    1.297732  -1.505985  7.667553
