27
Energy: -35052.7011787 eV PBE+vdW (tier 2 basis)
N    0.607071  -0.045890  0.713280
C    -0.065371  -0.332660  1.972108
C    0.956651  -0.729917  3.016801
O    2.146204  -0.292086  2.973028
H    -0.028350  0.423830  0.067213
H    1.404170  0.576045  0.851124
H    -0.542497  0.556478  2.449659
C    -1.193886  -1.369936  1.792074
C    -0.840821  -2.612736  0.953731
C    0.431267  -3.365031  1.309915
N    0.415540  -3.862917  2.772242
C    1.637850  -4.583724  3.166624
N    2.566120  -3.891562  3.755900
N    1.640250  -5.878302  2.839770
H    -2.030801  -0.869914  1.286096
H    -1.587556  -1.644330  2.780991
H    -0.690458  -2.319719  -0.095375
H    -1.700792  -3.300190  0.951285
H    1.321633  -2.728433  1.221534
H    0.569139  -4.246387  0.672124
H    -0.421770  -4.440404  2.932243
H    3.388669  -4.482157  3.925201
H    2.434897  -6.473786  3.058222
H    0.879140  -6.323075  2.335778
O    0.623693  -1.537645  3.995530
H    0.333930  -2.975532  3.383771
Ca    2.760863  -1.614115  4.626658
