27
Energy: -35052.78761 eV PBE+vdW (tier 2 basis)
N    0.679287  -0.568305  -0.309927
C    0.585006  -0.030581  1.054565
C    1.947052  -0.078277  1.742210
O    2.960568  -0.579726  1.230399
H    -0.259777  -0.586473  -0.714985
H    1.214114  0.067564  -0.906977
H    0.311213  1.043806  1.048227
C    -0.533281  -0.749179  1.865798
C    -0.305960  -2.155915  2.444535
C    -0.036407  -3.343621  1.479668
N    1.322586  -3.879532  1.643292
C    2.409552  -3.647258  0.901232
N    3.661193  -3.916185  1.220235
N    2.309639  -2.954889  -0.345722
H    -1.421618  -0.748009  1.215520
H    -0.817015  -0.097620  2.706127
H    -1.212635  -2.387976  3.019111
H    0.499800  -2.126056  3.194846
H    -0.190555  -3.080150  0.428438
H    -0.728727  -4.165834  1.695874
H    1.495504  -4.338097  2.536599
H    3.796454  -4.474341  2.066187
H    1.537613  -2.248515  -0.410575
H    2.282738  -3.615076  -1.127613
O    2.074504  0.449753  2.942208
H    1.251667  0.865139  3.269856
Ca    4.428936  -1.987698  0.322860
