27
Energy: -35052.1438656 eV PBE+vdW (tier 2 basis)
N    0.477469  -0.344402  0.194722
C    0.164402  -0.239793  1.624904
C    1.463033  -0.150130  2.438095
O    2.568163  -0.072887  1.867625
H    0.051740  -1.205214  -0.164284
H    -1.122742  0.552625  -0.385251
H    -0.320943  0.737315  1.839182
C    -0.777946  -1.350551  2.150233
C    -2.101287  -1.483728  1.381647
C    -3.214184  -0.481824  1.689157
N    -2.960192  0.973735  1.484308
C    -2.803254  1.598355  0.292868
N    -1.977270  1.104579  -0.635344
N    -3.463879  2.744141  0.070693
H    -1.006438  -1.192176  3.218050
H    -0.243527  -2.311044  2.092133
H    -2.533281  -2.463795  1.632737
H    -1.924816  -1.533519  0.297770
H    -3.485723  -0.559385  2.749582
H    -4.106050  -0.765184  1.110665
H    -3.416397  1.553178  2.183844
H    -2.022412  1.483488  -1.575151
H    -3.191768  3.378706  -0.672151
H    -4.300456  2.981318  0.592573
O    1.457405  -0.083859  3.751357
H    0.560989  -0.185954  4.125849
Ca    2.595180  -0.110250  -0.319288
