27
Energy: -35053.1875871 eV PBE+vdW (tier 2 basis)
N    -0.877008  -1.797782  4.513230
C    0.127180  -1.569880  3.473002
C    1.307903  -0.831738  4.090097
O    2.276942  -1.523295  4.596203
H    -0.622520  -2.552458  5.147834
H    -1.106809  -0.967429  5.056655
H    0.521713  -2.555073  3.191269
C    -0.495127  -0.948348  2.206455
C    -1.354065  0.312416  2.391395
C    -2.445216  0.459303  1.322520
N    -1.956650  0.619602  -0.056916
C    -1.953106  1.749230  -0.774673
N    -2.097033  2.944659  -0.185510
N    -1.786858  1.691831  -2.105619
H    -1.131932  -1.751942  1.803438
H    0.299762  -0.773660  1.465089
H    -0.726510  1.214124  2.436516
H    -1.897567  0.257699  3.345947
H    -3.106748  1.305807  1.549237
H    -3.087078  -0.433118  1.325474
H    -1.677566  -0.224118  -0.547342
H    -2.346841  3.764867  -0.724793
H    -1.584514  2.523826  -2.646793
H    -1.941484  0.833538  -2.620605
O    1.336334  0.456089  4.217545
H    -2.064167  3.042896  0.820296
Ca    3.181247  0.254603  5.348928
