27
Energy: -35053.1213406 eV PBE+vdW (tier 2 basis)
N    -0.137180  -0.457717  0.709135
C    0.351918  0.016734  2.037411
C    1.864788  -0.217963  2.060913
O    2.351382  -1.188309  1.460779
H    0.010746  0.294578  0.026479
H    -1.154570  -0.557387  0.755835
H    0.122976  1.086369  2.173760
C    -0.221318  -0.776878  3.243577
C    -1.753651  -0.878021  3.385513
C    -2.441752  -2.094894  2.725949
N    -1.824557  -3.377661  3.066810
C    -0.838106  -3.974040  2.357955
N    -0.573039  -3.678619  1.077996
N    -0.042652  -4.866447  2.990244
H    0.170849  -0.279475  4.141701
H    0.220137  -1.784783  3.261672
H    -2.253142  0.037882  3.032636
H    -1.969342  -0.921373  4.462194
H    -2.491132  -2.006666  1.632967
H    -3.487578  -2.130412  3.055184
H    -2.096764  -3.796655  3.951869
H    -1.433807  -3.347988  0.630091
H    0.380352  -5.604428  2.438020
H    -0.141952  -5.051042  3.982948
O    2.659784  0.547151  2.768177
H    2.207293  1.311546  3.177079
Ca    1.150423  -2.564881  0.161836
