27
Energy: -35052.7153928 eV PBE+vdW (tier 2 basis)
N    -0.259784  0.696230  2.358105
C    0.656922  -0.400420  2.369385
C    2.017576  -0.243266  3.058862
O    2.734351  -1.245917  3.296867
H    -0.560706  1.006200  3.279615
H    0.055992  1.498937  1.816000
H    0.193432  -1.215000  2.956665
C    0.890318  -0.917116  0.917323
C    -0.185815  -1.896475  0.426173
C    0.168455  -3.376623  0.535414
N    0.413845  -3.833782  1.962352
C    0.707168  -5.249376  2.059237
N    1.974252  -5.497955  2.264559
N    -0.298112  -6.121027  1.951771
H    1.893553  -1.367221  0.804554
H    0.914346  -0.031615  0.267978
H    -0.380884  -1.720696  -0.641056
H    -1.141081  -1.679991  0.929799
H    1.086172  -3.600450  -0.030372
H    -0.635221  -3.978685  0.085501
H    -0.427822  -3.619443  2.509040
H    2.231095  -6.487688  2.272366
H    -0.145319  -7.122024  2.043987
H    -1.243480  -5.828966  1.726463
O    2.368930  0.969082  3.387773
H    3.244689  0.984902  3.832652
Ca    2.770429  -3.413883  2.810412
