27
Energy: -35052.4562886 eV PBE+vdW (tier 2 basis)
N    1.100669  -0.246939  -0.416629
C    0.905341  -0.024185  1.026602
C    1.760782  -0.977364  1.845342
O    2.718822  -1.638721  1.294572
H    2.040291  -0.599262  -0.613319
H    -0.092617  -0.944657  -1.070082
H    1.301161  0.966808  1.324962
C    -0.581949  -0.037739  1.432812
C    -1.390129  -1.290374  1.033578
C    -2.091734  -1.221662  -0.323595
N    -1.113365  -1.259531  -1.486457
C    -1.414968  -0.290884  -2.572467
N    -0.832767  0.833216  -2.432302
N    -2.239446  -0.783412  -3.527743
H    -1.050608  0.859841  1.003781
H    -0.624171  0.093385  2.521101
H    -2.192383  -1.429121  1.771819
H    -0.778460  -2.205716  1.098311
H    -2.651552  -0.283173  -0.416332
H    -2.796992  -2.052237  -0.443616
H    -1.030036  -2.213184  -1.855239
H    -1.075685  1.518826  -3.151958
H    -2.523128  -0.188247  -4.298631
H    -2.764114  -1.642018  -3.410953
O    1.586291  -1.063570  3.115424
H    0.960705  0.624702  -0.941950
Ca    3.379958  -2.255519  3.285169
