27
Energy: -35052.5544314 eV PBE+vdW (tier 2 basis)
N    1.736347  -0.381649  1.487775
C    0.884303  -0.026864  2.621424
C    1.665696  -0.224011  3.919427
O    1.352378  0.657763  4.897493
H    1.230910  -0.223464  0.614580
H    2.571670  0.203423  1.448174
H    0.541185  1.024489  2.612122
C    -0.396686  -0.911711  2.652305
C    -0.211191  -2.408433  2.951036
C    0.496154  -3.191516  1.830232
N    0.948945  -4.521169  2.243120
C    2.187385  -4.801271  2.670001
N    3.044116  -3.824662  2.986177
N    2.571915  -6.086245  2.776338
H    -0.897807  -0.775567  1.680579
H    -1.085313  -0.487264  3.396523
H    -1.203186  -2.847591  3.131647
H    0.348363  -2.539767  3.889570
H    1.367338  -2.632671  1.468225
H    -0.175359  -3.327222  0.972007
H    0.285342  -5.288443  2.215662
H    4.027435  -4.035524  3.100639
H    3.416286  -6.342806  3.271479
H    2.071836  -6.826260  2.299791
O    2.487351  -1.101926  4.110364
H    2.754719  -2.856188  3.150314
Ca    1.469761  1.749536  6.511915
