27
Energy: -35053.2596161 eV PBE+vdW (tier 2 basis)
N    0.297486  0.117028  0.330021
C    0.176402  -0.288326  1.785798
C    1.642286  -0.660687  2.171409
O    1.810107  -1.109977  3.375325
H    -0.051787  1.060282  0.129162
H    -0.166260  -0.542156  -0.306526
H    -0.086432  0.621854  2.342869
C    -0.863346  -1.406072  2.036072
C    -2.013458  -1.079365  3.011669
C    -1.634632  -0.621210  4.426556
N    -0.646241  -1.521876  5.027536
C    -0.173319  -1.461527  6.297881
N    1.113761  -1.780984  6.514130
N    -1.009299  -1.085200  7.281315
H    -0.335910  -2.315473  2.357277
H    -1.329024  -1.688296  1.080197
H    -2.635392  -1.982467  3.082035
H    -2.656101  -0.297841  2.581051
H    -2.553625  -0.603187  5.026261
H    -1.244580  0.412594  4.420179
H    0.070328  -1.813322  4.369217
H    1.272410  -1.965338  7.508579
H    -0.681542  -0.994946  8.235008
H    -2.011857  -1.049116  7.141040
O    2.518550  -0.491701  1.327116
H    1.353766  0.067182  0.180153
Ca    2.869996  -1.656061  5.114780
