27
Energy: -35051.9534251 eV PBE+vdW (tier 2 basis)
N    0.419635  0.005176  0.262847
C    0.151747  -0.058946  1.709061
C    1.460156  0.168185  2.497675
O    2.363115  0.861647  1.984082
H    0.768683  -0.923143  -0.016186
H    -1.204635  -0.594251  -0.482377
H    -0.429493  0.845352  1.983569
C    -0.715478  -1.248393  2.163734
C    -0.269977  -2.654385  1.700367
C    -1.280091  -3.384062  0.795926
N    -1.137644  -3.218661  -0.669814
C    -1.810718  -2.329863  -1.434192
N    -1.981146  -1.073150  -1.006828
N    -2.286032  -2.726346  -2.624250
H    -1.732850  -1.045389  1.801636
H    -0.835583  -1.229770  3.260528
H    -0.133593  -3.291389  2.583914
H    0.714453  -2.640133  1.207461
H    -2.305731  -3.105489  1.075440
H    -1.190918  -4.463767  0.962550
H    -0.831553  -4.053005  -1.161612
H    -2.646439  -0.482196  -1.494924
H    -2.570016  -2.056254  -3.330115
H    -2.459817  -3.705476  -2.823824
O    1.652603  -0.278630  3.715194
H    0.890853  -0.803899  4.031889
Ca    2.015657  1.492727  -0.088519
