27
Energy: -35051.3101719 eV PBE+vdW (tier 2 basis)
N    -0.726206  -1.182666  0.033009
C    -0.674164  -0.567087  1.399423
C    0.330534  0.572623  1.366550
O    0.648707  1.098575  0.273068
H    -0.164463  -2.042470  0.041926
H    -1.747670  -1.499003  -0.106129
H    -1.644279  -0.036067  1.513547
C    -0.560347  -1.548441  2.601382
C    -1.616541  -1.313799  3.708586
C    -2.893172  -2.201571  3.621034
N    -3.333251  -2.549179  2.270238
C    -3.585060  -1.668217  1.258614
N    -3.451732  -1.910429  -0.024987
N    -3.873443  -0.365430  1.641311
H    0.454504  -1.506709  3.026768
H    -0.651462  -2.571552  2.209490
H    -1.904397  -0.251316  3.720998
H    -1.167282  -1.508705  4.691275
H    -3.703169  -1.725239  4.193670
H    -2.704488  -3.157657  4.122494
H    -3.161632  -3.503486  1.975937
H    -3.324554  -2.911720  -0.202878
H    -4.369374  0.139572  0.910885
H    -4.317271  -0.250534  2.549261
O    0.825265  1.095911  2.453294
H    0.558125  0.618348  3.265182
Ca    -0.062703  0.366223  -1.616555
