27
Energy: -35052.2487079 eV PBE+vdW (tier 2 basis)
N    1.143444  0.034382  -0.063727
C    1.093271  -0.701875  1.208944
C    2.456991  -1.207451  1.687942
O    2.557867  -1.748595  2.849459
H    -0.489715  0.488838  -0.448973
H    1.793977  0.821949  -0.008314
H    0.756692  -0.005090  1.996100
C    0.086452  -1.873400  1.153366
C    -1.405092  -1.494697  1.096068
C    -1.960250  -0.967741  -0.224775
N    -1.570988  0.476044  -0.488942
C    -2.068553  1.501473  0.517918
N    -1.285141  2.269119  1.149531
N    -3.410943  1.444116  0.702431
H    0.235752  -2.475097  2.059096
H    0.344174  -2.526064  0.302259
H    -1.659881  -0.802833  1.914225
H    -1.975170  -2.410324  1.308430
H    -3.053469  -1.030685  -0.231289
H    -1.586778  -1.542839  -1.083302
H    -1.868776  0.752947  -1.434483
H    -0.297593  2.159767  0.925451
H    -3.800575  2.162955  1.306396
H    -4.034735  1.089630  -0.012969
O    3.503075  -1.084182  0.951972
H    1.511025  -0.567344  -0.806591
Ca    4.686791  -1.991681  2.551598
