27
Energy: -35053.4564848 eV PBE+vdW (tier 2 basis)
N    -0.385071  1.572746  0.514315
C    0.131402  0.645481  1.597654
C    1.582794  0.338446  1.137601
O    2.328356  -0.250075  2.014855
H    -1.299932  1.296819  0.138589
H    -0.437704  2.554415  0.809230
H    0.152628  1.201515  2.542856
C    -0.778314  -0.597434  1.692364
C    -0.274770  -1.780430  2.535812
C    -0.012865  -1.477404  4.019065
N    0.291786  -2.678762  4.786120
C    1.497730  -3.072508  5.253323
N    2.645531  -2.533765  4.814877
N    1.486819  -4.047503  6.188340
H    -0.950242  -0.975699  0.672084
H    -1.756280  -0.269127  2.078559
H    0.622100  -2.220649  2.077527
H    -1.048764  -2.559192  2.472274
H    -0.901332  -1.011769  4.471825
H    0.813568  -0.769325  4.156860
H    -0.502584  -3.248564  5.058521
H    3.384154  -2.831919  5.461425
H    0.636522  -4.338878  6.655845
H    2.334268  -4.539454  6.441188
O    1.903059  0.662747  -0.002910
H    0.377720  1.470845  -0.226460
Ca    3.628192  -1.413891  3.122261
