27
Energy: -35051.9710493 eV PBE+vdW (tier 2 basis)
N    -0.346049  1.153007  1.311604
C    0.530641  0.169930  2.022024
C    1.896404  0.054987  1.371748
O    2.191710  0.754813  0.335117
H    -1.239207  1.267412  2.024533
H    0.116352  2.059156  1.177548
H    0.688263  0.602279  3.027928
C    -0.169317  -1.203117  2.164062
C    -1.674969  -1.166903  2.508978
C    -2.106624  -0.264491  3.671197
N    -2.142935  1.177690  3.268755
C    -1.567994  2.244921  4.068590
N    -1.866808  3.473317  3.942699
N    -0.466630  1.855129  4.832399
H    0.381546  -1.752371  2.938744
H    -0.044504  -1.776751  1.233370
H    -1.963317  -2.198982  2.752241
H    -2.271915  -0.914111  1.617856
H    -1.430160  -0.397517  4.522650
H    -3.104762  -0.560302  4.017197
H    -3.092067  1.448287  3.006458
H    -2.622793  3.669634  3.281390
H    -0.104745  2.665464  5.335734
H    -0.623510  1.085781  5.480823
O    2.762169  -0.740080  1.878823
H    -0.648234  0.819204  0.389697
Ca    4.208526  -0.137434  0.369951
