27
Energy: -35053.5292303 eV PBE+vdW (tier 2 basis)
N    0.420785  -0.900872  0.640174
C    -0.126333  -0.766976  2.055996
C    0.839046  -1.581891  2.933786
O    1.108004  -1.211362  4.111771
H    1.250922  -0.310909  0.485304
H    0.711420  -1.889495  0.516548
H    -0.115382  0.297703  2.316380
C    -1.550237  -1.389545  2.104073
C    -2.613796  -0.753070  3.016502
C    -2.328154  -0.605282  4.527148
N    -1.505820  -1.645403  5.142682
C    -1.689749  -2.984405  5.162146
N    -0.613067  -3.776042  5.266083
N    -2.952226  -3.451649  5.033626
H    -1.450050  -2.462448  2.321249
H    -1.970783  -1.340963  1.086433
H    -3.513158  -1.367286  2.871688
H    -2.878491  0.246802  2.643140
H    -3.285705  -0.492572  5.057031
H    -1.783580  0.327004  4.719243
H    -0.565653  -1.347520  5.369936
H    -0.894410  -4.722273  5.536190
H    -3.742580  -2.866105  5.280879
H    -3.124427  -4.449879  5.038139
O    1.246704  -2.688060  2.444067
H    -0.280797  -0.656605  -0.072171
Ca    1.544544  -3.414291  4.620569
