27
Energy: -35052.3474064 eV PBE+vdW (tier 2 basis)
N    2.790148  -0.872025  -0.849471
C    1.783435  0.107780  -0.404150
C    2.245923  0.721435  0.915005
O    3.319790  0.380663  1.448308
H    1.909130  -2.608795  -1.345865
H    2.812428  -0.827248  -1.872653
H    1.751555  0.964392  -1.106679
C    0.308488  -0.389685  -0.292575
C    -0.054222  -1.308567  0.885216
C    0.377534  -2.778582  0.802380
N    -0.279985  -3.525586  -0.273885
C    0.285377  -3.919544  -1.422858
N    1.489955  -3.454429  -1.779828
N    -0.360402  -4.793919  -2.209952
H    0.052463  -0.856914  -1.255014
H    -0.350743  0.493349  -0.248645
H    -1.147049  -1.284174  1.009719
H    0.343067  -0.908122  1.831878
H    0.122958  -3.280504  1.745718
H    1.460998  -2.882542  0.672963
H    -1.243802  -3.804002  -0.116153
H    1.950808  -3.850148  -2.590071
H    -0.055294  -4.978640  -3.157612
H    -1.163572  -5.315099  -1.878772
O    1.531433  1.635443  1.534619
H    0.713630  1.863385  1.050672
Ca    4.651800  -0.908418  0.290239
