27
Energy: -35051.8236854 eV PBE+vdW (tier 2 basis)
N    -0.372342  1.500535  1.117045
C    -0.013427  0.385718  2.015610
C    1.343060  -0.166774  1.552303
O    1.853807  0.141352  0.491751
H    -1.227265  1.952688  1.449265
H    0.359672  2.214225  1.123707
H    0.103024  0.731917  3.058172
C    -1.121406  -0.701644  2.015846
C    -1.277954  -1.607456  0.779254
C    -1.763659  -0.953464  -0.527512
N    -0.745893  -0.045944  -1.067717
C    0.039380  -0.220419  -2.100569
N    1.178529  0.415470  -2.355378
N    -0.289197  -1.149294  -3.189233
H    -2.075817  -0.195642  2.232124
H    -0.950711  -1.358578  2.880745
H    -2.021339  -2.376106  1.036182
H    -0.340078  -2.150703  0.581431
H    -2.678068  -0.368147  -0.353071
H    -2.015552  -1.731832  -1.258877
H    -0.492244  0.722004  -0.333604
H    1.550807  0.913471  -1.539075
H    -1.277515  -1.084704  -3.455050
H    -0.143934  -2.119854  -2.887379
O    1.953938  -1.049633  2.353938
H    1.494738  -1.159110  3.207533
Ca    1.608973  -0.167836  -4.390610
