27
Energy: -35053.0798103 eV PBE+vdW (tier 2 basis)
N    1.119588  -1.755774  0.359444
C    0.525400  -0.775387  1.316856
C    1.682215  -0.109162  2.051164
O    2.779174  -0.671677  2.180478
H    0.368482  -2.368014  0.023579
H    1.440701  -1.259241  -0.480141
H    -0.040517  0.008208  0.785796
C    -0.459494  -1.554597  2.247078
C    -0.814175  -1.049016  3.652852
C    0.254760  -1.208552  4.777592
N    1.362147  -2.112469  4.461426
C    1.316126  -3.448241  4.208833
N    2.254120  -3.958880  3.402513
N    0.291681  -4.155524  4.722738
H    -0.077238  -2.582982  2.324972
H    -1.396741  -1.630778  1.678249
H    -1.712834  -1.609675  3.940601
H    -1.140734  0.001076  3.629591
H    -0.246874  -1.504362  5.710204
H    0.727928  -0.247064  5.002844
H    2.289500  -1.706745  4.441913
H    2.336312  -4.972429  3.519563
H    0.176664  -5.135365  4.490073
H    -0.207732  -3.827096  5.542686
O    1.519562  1.075818  2.597077
H    0.655113  1.481646  2.386689
Ca    3.064508  -2.827471  1.606330
