27
Energy: -35053.5021295 eV PBE+vdW (tier 2 basis)
N    -1.290149  1.174346  2.125801
C    -0.399307  -0.059601  2.164574
C    0.473921  0.019352  0.900450
O    1.592523  -0.562996  0.890632
H    -2.194500  1.023081  2.593191
H    -0.842247  1.992827  2.560161
H    0.226377  -0.001168  3.063237
C    -1.285783  -1.323636  2.174822
C    -0.501010  -2.658382  2.248944
C    -0.912810  -3.685566  1.174707
N    -0.729802  -3.195543  -0.194274
C    0.447404  -3.000197  -0.830925
N    0.579530  -2.245101  -1.927072
N    1.589741  -3.510510  -0.297961
H    -1.920264  -1.293248  1.274731
H    -1.963619  -1.251227  3.038359
H    -0.656222  -3.120481  3.232246
H    0.577789  -2.464884  2.174213
H    -1.971606  -3.955791  1.273891
H    -0.357736  -4.624312  1.316356
H    -1.529673  -2.749550  -0.629379
H    -0.307847  -2.131409  -2.424620
H    2.318724  -3.747558  -0.962709
H    1.556749  -4.099981  0.525959
O    -0.013822  0.622434  -0.115527
H    -1.440524  1.392107  1.118658
Ca    1.713963  -0.360162  -1.381160
