27
Energy: -35051.5190477 eV PBE+vdW (tier 2 basis)
N    0.244255  -1.262533  -0.302720
C    0.104105  -0.381675  0.864268
C    1.492901  0.057865  1.318137
O    2.475755  -0.674523  1.397914
H    0.791945  -0.809074  -1.036588
H    -0.678332  -1.430605  -0.708628
H    -0.463445  0.540765  0.657361
C    -0.645125  -1.108709  2.014753
C    0.095296  -2.260375  2.726630
C    0.527552  -3.381639  1.784856
N    1.375875  -4.418735  2.468715
C    2.704060  -4.046154  2.927267
N    3.091272  -4.837042  3.919043
N    3.343464  -3.032855  2.382528
H    -1.589887  -1.481421  1.590061
H    -0.929029  -0.363365  2.769849
H    -0.583123  -2.660850  3.503048
H    0.969307  -1.849732  3.256718
H    1.038027  -2.973612  0.899778
H    -0.346181  -3.923901  1.399500
H    1.519399  -5.179339  1.790496
H    4.052445  -4.712488  4.242874
H    4.249074  -2.755922  2.755702
H    2.899979  -2.329920  1.750893
O    1.523607  1.348422  1.644124
H    2.428765  1.588592  1.933325
Ca    1.131874  -5.548065  4.596746
