27
Energy: -35053.5984789 eV PBE+vdW (tier 2 basis)
N    0.849033  -0.794807  0.597697
C    -0.059273  -0.335065  1.732206
C    0.208807  -1.295237  2.898310
O    -0.212926  -0.988829  4.042116
H    1.692332  -0.212852  0.515166
H    1.143241  -1.762470  0.865012
H    0.273479  0.665562  2.035806
C    -1.533603  -0.232576  1.294574
C    -2.269878  -1.450430  0.688740
C    -2.980892  -2.438089  1.644334
N    -2.211488  -3.646186  1.958651
C    -1.775542  -4.007105  3.180086
N    -2.019688  -3.449792  4.339989
N    -0.776079  -5.009325  3.255275
H    -1.577469  0.587841  0.562242
H    -2.081483  0.144735  2.170068
H    -1.634253  -2.020558  -0.009465
H    -3.056818  -1.024799  0.051744
H    -3.926917  -2.756026  1.187622
H    -3.247316  -1.935779  2.581917
H    -2.106207  -4.321438  1.206115
H    -2.812508  -2.807789  4.362579
H    -1.068205  -5.806748  3.823754
H    -0.387086  -5.322862  2.366689
O    0.826229  -2.388169  2.640244
H    0.379527  -0.800828  -0.316281
Ca    0.200583  -3.115741  4.806450
