27
Energy: -35050.80979 eV PBE+vdW (tier 2 basis)
N    -0.497355  -0.400766  -0.137425
C    0.074804  -0.314449  1.185260
C    1.586393  -0.171044  1.019662
O    2.151277  0.010197  -0.028347
H    -1.440652  -0.032816  -0.218730
H    0.117162  -0.030896  -0.861892
H    -0.244334  0.603203  1.729547
C    -0.352018  -1.549754  2.039338
C    -0.748195  -1.288117  3.498997
C    0.412638  -1.011174  4.454558
N    -0.108291  -0.919476  5.843787
C    0.536746  -0.517360  6.925281
N    0.100245  -0.428669  8.168990
N    1.931569  -0.104430  6.826670
H    0.412479  -2.337842  1.977771
H    -1.234688  -1.961852  1.534976
H    -1.282890  -2.182204  3.860102
H    -1.460695  -0.447991  3.543028
H    0.924232  -0.075220  4.196948
H    1.151059  -1.826126  4.402359
H    -1.073093  -1.229353  5.969885
H    -0.876828  -0.686056  8.322508
H    2.019115  0.724662  6.225462
H    2.496160  -0.828259  6.365434
O    2.265953  -0.249710  2.212218
H    3.206889  -0.140605  1.966442
Ca    1.907208  0.201924  9.277684
