27
Energy: -35051.1321337 eV PBE+vdW (tier 2 basis)
N    -0.095878  -0.089853  -0.026871
C    0.029298  -0.087004  1.494923
C    1.477518  0.307633  1.811064
O    2.243194  0.670671  0.845076
H    0.674663  0.482378  -0.422161
H    0.003127  -1.044145  -0.402332
H    -0.610693  0.732949  1.857588
C    -0.450867  -1.427085  2.077761
C    -0.773413  -1.378563  3.577120
C    -1.271546  -2.734656  4.092019
N    -1.501259  -2.650368  5.527449
C    -2.090399  -3.707710  6.239963
N    -1.504674  -4.060608  7.331779
N    -3.226223  -4.243005  5.665253
H    0.299654  -2.206597  1.866220
H    -1.365780  -1.709375  1.529902
H    -1.540481  -0.614136  3.774450
H    0.121526  -1.083164  4.142511
H    -0.537066  -3.525097  3.836261
H    -2.209329  -3.006745  3.589120
H    -0.677844  -2.363382  6.056663
H    -2.020074  -4.770558  7.859223
H    -3.700123  -4.957318  6.207323
H    -3.863250  -3.604857  5.197840
O    1.890156  0.304353  3.009814
H    -1.003339  0.276952  -0.342303
Ca    3.865560  1.080835  2.369793
