27
Energy: -35053.7779024 eV PBE+vdW (tier 2 basis)
N    0.401132  -0.375072  0.218750
C    -0.077001  -0.030732  1.620508
C    0.894375  -0.704781  2.592601
O    1.426243  -1.809496  2.234017
H    1.146195  0.256347  -0.106989
H    0.797261  -1.334732  0.265068
H    -0.026173  1.057397  1.741178
C    -1.525209  -0.544853  1.806487
C    -1.971660  -0.670095  3.278285
C    -1.754642  -2.090343  3.833396
N    -1.842320  -2.152656  5.286140
C    -0.982160  -2.805462  6.107857
N    0.282427  -3.057505  5.747408
N    -1.466144  -3.167281  7.315381
H    -1.619346  -1.527175  1.313429
H    -2.189813  0.145004  1.268826
H    -3.039257  -0.421902  3.336463
H    -1.448518  0.062438  3.906859
H    -0.780267  -2.501503  3.546591
H    -2.501038  -2.771861  3.392823
H    -2.737748  -1.895829  5.690625
H    0.656975  -3.764249  6.387807
H    -0.844530  -3.445371  8.064269
H    -2.457307  -3.160100  7.525454
O    1.050921  -0.194215  3.738032
H    -0.361403  -0.347447  -0.472334
Ca    1.931730  -2.120875  4.503597
