27
Energy: -35053.5369713 eV PBE+vdW (tier 2 basis)
N    0.877869  -0.173327  0.383334
C    0.144350  0.066499  1.633066
C    1.033394  0.427435  2.819614
O    0.510402  0.947714  3.875485
H    0.374854  -3.231174  -2.081282
H    1.178239  0.706896  -0.039245
H    -0.518720  0.935191  1.497211
C    -0.724275  -1.168606  1.997519
C    -2.117006  -1.218900  1.340271
C    -2.227550  -0.893480  -0.157634
N    -1.263151  -1.619763  -0.984019
C    -1.516535  -2.420329  -2.019551
N    -0.514276  -3.141806  -2.554468
N    -2.746083  -2.547034  -2.541625
H    -0.883030  -1.207404  3.083380
H    -0.139892  -2.064982  1.739431
H    -2.784882  -0.514568  1.858233
H    -2.530093  -2.221420  1.521661
H    -2.083799  0.182310  -0.338721
H    -3.249954  -1.126698  -0.476425
H    -0.289502  -1.333191  -0.781977
H    -0.598918  -3.561901  -3.471630
H    -2.960177  -3.288828  -3.196720
H    -3.474362  -1.870609  -2.356543
O    2.301586  0.208177  2.787843
H    1.735920  -0.693387  0.585145
Ca    2.459908  1.059690  4.784143
