27
Energy: -35053.1112787 eV PBE+vdW (tier 2 basis)
N    0.888701  0.438335  0.415870
C    0.195717  0.268185  1.744060
C    1.183056  0.634985  2.896632
O    2.063134  1.566524  2.546048
H    1.416152  -0.421214  0.220036
H    0.185877  0.479647  -0.328986
H    -0.590352  1.041969  1.774169
C    -0.445287  -1.098817  1.999385
C    -1.666021  -1.451318  1.145248
C    -2.516951  -2.592140  1.722108
N    -1.844498  -3.900564  1.784063
C    -1.475151  -4.565461  2.890692
N    -1.265820  -3.927012  4.048728
N    -1.301107  -5.894456  2.832263
H    -0.728755  -1.055618  3.062817
H    0.328902  -1.880900  1.925965
H    -1.376439  -1.702001  0.112325
H    -2.339337  -0.582185  1.072751
H    -3.418786  -2.725696  1.109525
H    -2.865188  -2.341683  2.733157
H    -1.810065  -4.431941  0.919181
H    -1.199517  -4.438608  4.920899
H    -0.811878  -6.393589  3.566120
H    -1.722605  -6.451452  2.098357
O    1.093288  0.119632  3.987004
H    -1.119202  -2.926212  4.086890
Ca    2.487273  2.305165  0.732124
