27
Energy: -35051.6268918 eV PBE+vdW (tier 2 basis)
N    -2.051497  0.130042  1.437238
C    -0.817392  -0.170088  2.120916
C    0.388583  0.732212  1.831955
O    1.312162  0.906457  2.642312
H    -2.376370  1.081857  1.597268
H    -1.994109  -0.022889  0.430751
H    -1.001761  -0.039039  3.201667
C    -0.458195  -1.657257  1.857098
C    0.788491  -2.267089  2.515647
C    0.848110  -2.240814  4.049668
N    1.329035  -0.930685  4.538978
C    1.790915  -0.645121  5.728254
N    2.266042  0.522116  6.161233
N    1.839039  -1.646995  6.798925
H    -0.360867  -1.793806  0.769507
H    -1.353078  -2.222752  2.153953
H    1.717505  -1.832134  2.116273
H    0.817318  -3.325205  2.221209
H    1.535812  -3.025739  4.396739
H    -0.145704  -2.449541  4.478741
H    1.320474  -0.135901  3.809394
H    2.278379  1.265994  5.459367
H    2.435920  -2.436645  6.523587
H    0.910743  -2.058497  6.952625
O    0.373176  1.314900  0.644091
H    1.182591  1.856347  0.534174
Ca    2.747382  0.105524  8.238386
