27
Energy: -35053.558508 eV PBE+vdW (tier 2 basis)
N    0.715753  -0.382620  0.243268
C    -0.235348  -0.291256  1.416221
C    0.362234  0.594114  2.530841
O    1.669394  0.738728  2.490998
H    0.400657  0.281245  -0.473025
H    0.592414  -1.298311  -0.203676
H    -1.163390  0.192700  1.082292
C    -0.551257  -1.712527  1.935308
C    -1.381246  -1.802372  3.225732
C    -2.788010  -1.188012  3.121402
N    -3.489196  -1.149747  4.403770
C    -3.491517  -0.111077  5.257935
N    -2.689390  0.937253  5.067058
N    -4.325888  -0.137676  6.310617
H    0.399551  -2.242320  2.112271
H    -1.065357  -2.256404  1.125851
H    -0.836820  -1.330683  4.054792
H    -1.475058  -2.865930  3.487720
H    -3.412740  -1.765550  2.426567
H    -2.755737  -0.161487  2.734393
H    -3.979330  -1.987785  4.697892
H    -2.814376  1.775416  5.621807
H    -4.244064  0.535281  7.062472
H    -5.100221  -0.788149  6.357480
O    -0.363414  1.078253  3.386891
H    -1.900776  0.929914  4.409495
Ca    2.957896  0.238892  1.009560
