27
Energy: -35051.7371873 eV PBE+vdW (tier 2 basis)
N    0.494659  -0.850496  -0.220525
C    -0.046390  -0.090695  0.899593
C    1.075567  0.248798  1.862022
O    2.264713  0.422180  1.438613
H    -0.210635  -0.955001  -0.951459
H    1.288174  -0.370194  -0.646305
H    -0.416245  0.926299  0.624678
C    -1.247199  -0.809761  1.553662
C    -1.101041  -2.329486  1.770089
C    0.188033  -2.802684  2.425222
N    0.371859  -2.171908  3.811139
C    1.664986  -2.415617  4.531023
N    1.800658  -2.859002  5.691080
N    2.796448  -1.958454  3.785087
H    -2.119033  -0.660828  0.902500
H    -1.507893  -0.289266  2.486479
H    -1.127174  -2.850868  0.803102
H    -1.974562  -2.698463  2.328769
H    1.040882  -2.498691  1.801841
H    0.214144  -3.890213  2.562581
H    -0.394919  -2.479846  4.423641
H    0.963205  -3.121689  6.217861
H    3.619038  -2.369459  4.242955
H    2.784378  -2.297642  2.816093
O    0.849615  0.378588  3.143450
H    0.293864  -1.116255  3.677990
Ca    3.031993  0.654866  3.468529
