27
Energy: -35052.2082197 eV PBE+vdW (tier 2 basis)
N    -0.973516  0.908056  2.450661
C    -0.256432  -0.376220  2.556675
C    1.257989  -0.248291  2.413152
O    2.001829  -1.273983  2.631300
H    -2.545127  0.763394  2.952897
H    -0.529511  1.613362  3.045011
H    -0.426123  -0.774049  3.568857
C    -0.774449  -1.414479  1.527405
C    -2.299322  -1.560594  1.417410
C    -3.047983  -2.245374  2.571149
N    -2.849478  -1.702797  3.934737
C    -3.342965  -0.532841  4.448098
N    -3.560264  -0.123191  5.626641
N    -3.528109  0.537852  3.421608
H    -0.313799  -2.382285  1.767708
H    -0.398248  -1.131892  0.531240
H    -2.498769  -2.186649  0.535057
H    -2.751292  -0.591901  1.158029
H    -2.711727  -3.287514  2.635191
H    -4.121845  -2.291018  2.324930
H    -2.749899  -2.420806  4.646849
H    -3.441783  -0.823525  6.363370
H    -3.876798  1.349542  3.949926
H    -4.220577  0.294576  2.702840
O    1.799979  0.868526  2.078009
H    -0.908559  1.276707  1.496926
Ca    3.759580  -0.089221  2.191517
