27
Energy: -35052.0780116 eV PBE+vdW (tier 2 basis)
N    -0.985996  -0.092881  -0.284941
C    -0.137605  -0.386574  0.900165
C    1.314246  -0.556603  0.463213
O    1.682793  -1.253824  -0.481460
H    -0.723859  0.827144  -0.653990
H    -1.946077  0.029259  0.051941
H    -0.158258  0.454399  1.608854
C    -0.636120  -1.628838  1.679266
C    -0.367054  -3.057721  1.166490
C    -0.962319  -3.469434  -0.184761
N    -0.011269  -3.204711  -1.337155
C    -0.663507  -2.838527  -2.577682
N    -0.564101  -3.779546  -3.501755
N    -1.226698  -1.648871  -2.631052
H    -1.720225  -1.495742  1.823963
H    -0.203521  -1.566152  2.687466
H    -0.798515  -3.729346  1.922192
H    0.712533  -3.278591  1.176232
H    -1.915774  -2.955607  -0.369667
H    -1.195317  -4.547570  -0.172294
H    0.626228  -2.409059  -1.047290
H    -1.007687  -3.580729  -4.400050
H    -1.687464  -1.320175  -3.475871
H    -1.157415  -1.023224  -1.770993
O    2.149634  0.112848  1.246152
H    3.074187  -0.045044  0.959782
Ca    0.825962  -5.108470  -2.447384
