27
Energy: -35052.0100223 eV PBE+vdW (tier 2 basis)
N    0.595030  -1.116887  -0.409526
C    0.363287  -0.648037  0.973938
C    0.969248  -1.677696  1.926136
O    1.385858  -2.773927  1.584891
H    1.593843  -1.259058  -0.576046
H    0.287076  -0.400040  -1.070613
H    0.879680  0.305396  1.171102
C    -1.143308  -0.406749  1.244825
C    -2.080486  -1.621688  1.375970
C    -2.319785  -2.477431  0.118428
N    -1.091408  -3.179629  -0.269064
C    -0.818092  -4.454413  -0.189174
N    0.390011  -5.017238  -0.199254
N    -1.863696  -5.484128  -0.146099
H    -1.515300  0.268731  0.457884
H    -1.213021  0.165185  2.179243
H    -3.064594  -1.238956  1.683374
H    -1.745332  -2.277151  2.195712
H    -2.630060  -1.845841  -0.726913
H    -3.132992  -3.190814  0.304854
H    -0.266979  -2.458009  -0.433726
H    1.146022  -4.346005  -0.023606
H    -2.259706  -5.552562  0.798736
H    -2.648934  -5.252897  -0.763316
O    0.980983  -1.223231  3.183290
H    1.403799  -1.891042  3.760511
Ca    -0.068740  -7.094709  -0.573390
