27
Energy: -35051.1738306 eV PBE+vdW (tier 2 basis)
N    -0.072548  0.332178  0.215156
C    -0.081222  -0.104007  1.591838
C    1.266201  -0.655936  2.072476
O    2.039518  -1.329470  1.456533
H    0.582947  1.094260  0.047335
H    0.160924  -0.427331  -0.425861
H    -0.318487  0.775106  2.213962
C    -1.170764  -1.189831  1.768850
C    -1.393791  -1.684609  3.202658
C    -2.032468  -0.608242  4.097217
N    -1.787295  -0.841108  5.533820
C    -0.792351  -0.354265  6.258688
N    -0.488004  -0.633861  7.517357
N    0.121075  0.626174  5.699277
H    -0.900370  -2.050645  1.140389
H    -2.096126  -0.775286  1.343827
H    -0.441597  -2.010988  3.648178
H    -2.039730  -2.572628  3.185393
H    -3.120502  -0.570692  3.962803
H    -1.657619  0.391742  3.847148
H    -2.388894  -1.529906  5.986153
H    -1.067767  -1.336677  7.980084
H    0.648437  0.241811  4.871403
H    -0.394548  1.433151  5.328667
O    1.581939  -0.282441  3.414448
H    2.471305  -0.672263  3.547311
Ca    1.176832  0.748772  7.873999
