27
Energy: -35053.6346346 eV PBE+vdW (tier 2 basis)
N    1.082542  -0.876617  -0.266635
C    0.734771  -0.437013  1.122118
C    1.831081  -0.888192  2.076211
O    2.643770  -1.786450  1.805025
H    0.207698  -0.983824  -0.788753
H    1.551501  -0.094095  -0.736762
H    0.697901  0.661655  1.170024
C    -0.651024  -0.937432  1.602238
C    -0.861252  -2.407196  2.004998
C    -0.896906  -3.484689  0.911562
N    0.455128  -4.043782  0.629460
C    0.622371  -4.968867  -0.463556
N    1.827227  -4.930445  -0.970304
N    -0.420186  -5.699388  -0.870392
H    -1.381503  -0.648128  0.829606
H    -0.905256  -0.323374  2.476957
H    -1.842135  -2.435293  2.499337
H    -0.151398  -2.706171  2.794500
H    -1.301498  -3.085342  -0.028821
H    -1.578865  -4.282780  1.245445
H    0.811711  -4.492743  1.480759
H    2.028485  -5.646819  -1.671012
H    -0.345217  -6.312979  -1.676450
H    -1.276218  -5.763974  -0.330658
O    1.808751  -0.254382  3.224908
H    2.515791  -0.579897  3.823485
Ca    2.558986  -2.880853  -0.190410
