27
Energy: -35052.8534803 eV PBE+vdW (tier 2 basis)
N    -1.623317  -0.015537  0.174063
C    -0.374061  -0.391692  0.853988
C    0.761948  -0.571688  -0.140762
O    0.668530  -0.454686  -1.379016
H    -2.370746  0.001642  0.872158
H    -1.565104  0.946057  -0.171080
H    -0.011181  0.420569  1.512902
C    -0.577060  -1.613829  1.794963
C    -0.667010  -3.044863  1.240174
C    -1.777407  -3.409758  0.220952
N    -1.230395  -3.622727  -1.128571
C    -1.251180  -2.810049  -2.186990
N    -0.557973  -2.940308  -3.303632
N    -1.997073  -1.590428  -2.156662
H    -1.479557  -1.385781  2.382959
H    0.246709  -1.603810  2.520473
H    -0.798066  -3.689331  2.119926
H    0.306220  -3.344537  0.820642
H    -2.572572  -2.658746  0.168439
H    -2.259716  -4.349712  0.515197
H    -0.633230  -4.443299  -1.219878
H    -0.059996  -3.825564  -3.420181
H    -2.916852  -1.710449  -2.589731
H    -2.064857  -1.122830  -1.214567
O    1.904980  -0.834956  0.455038
H    2.642563  -0.888388  -0.188062
Ca    -0.166464  -0.723984  -3.453988
