27
Energy: -35053.4854452 eV PBE+vdW (tier 2 basis)
N    0.109399  0.445224  0.056206
C    -0.081533  0.104548  1.531773
C    1.326942  0.146648  2.147835
O    1.465399  -0.052222  3.383615
H    -0.253999  -0.286173  -0.566687
H    -0.339947  1.331547  -0.206071
H    -0.662230  0.926803  1.968196
C    -0.851392  -1.227519  1.758249
C    -0.048345  -2.490807  2.105256
C    0.860235  -3.090178  1.013067
N    1.835796  -4.024650  1.577629
C    2.937921  -3.624408  2.263263
N    3.515767  -2.436458  2.054528
N    3.442559  -4.447655  3.203363
H    -1.507853  -1.397090  0.888867
H    -1.539504  -1.045466  2.593139
H    -0.774634  -3.256508  2.411622
H    0.556479  -2.284046  2.998059
H    1.401639  -2.312832  0.452158
H    0.274789  -3.642109  0.266917
H    1.554589  -4.997828  1.650150
H    3.273196  -2.125947  1.107973
H    4.424621  -4.373861  3.441532
H    2.964861  -5.296675  3.483283
O    2.316497  0.330494  1.354005
H    1.147150  0.536317  -0.067180
Ca    3.687226  -0.447176  3.088192
