27
Energy: -35052.1753005 eV PBE+vdW (tier 2 basis)
N    0.192377  -1.312632  0.166499
C    0.250289  -0.417450  1.343537
C    1.647807  -0.350871  1.948235
O    1.872338  0.436551  2.937845
H    -1.184118  -2.353901  0.282635
H    0.113124  -0.766317  -0.692827
H    0.048728  0.618965  1.028318
C    -0.812589  -0.764505  2.422960
C    -0.928231  -2.267918  2.755666
C    -2.098629  -2.998321  2.093743
N    -2.129593  -2.797344  0.584968
C    -2.547694  -3.963778  -0.254862
N    -3.622429  -3.744286  -0.886006
N    -1.723113  -5.039321  -0.136083
H    -1.779178  -0.368679  2.079171
H    -0.575027  -0.188276  3.325616
H    -1.073589  -2.390614  3.837352
H    0.012236  -2.794143  2.525756
H    -3.062025  -2.644789  2.478852
H    -2.043338  -4.076206  2.279912
H    -2.854630  -2.109211  0.337992
H    -3.933440  -4.502237  -1.499236
H    -1.921135  -5.862912  -0.693160
H    -0.775543  -4.958688  0.211101
O    2.615062  -1.048462  1.464076
H    1.072818  -1.829800  0.086918
Ca    3.978518  -0.025127  2.848468
