27
Energy: -35053.42029 eV PBE+vdW (tier 2 basis)
N    0.600225  0.122228  0.375933
C    -0.070641  0.078068  1.688352
C    0.862511  0.461863  2.823872
O    0.462933  0.365069  4.043313
H    1.544316  0.502344  0.479198
H    0.104499  0.761052  -0.246421
H    -0.867165  0.842086  1.746703
C    -0.745180  -1.292720  1.920976
C    0.251702  -2.458491  1.861205
C    -0.304095  -3.751870  1.256973
N    -0.985723  -3.629394  -0.052810
C    -0.438951  -3.279795  -1.234208
N    0.537320  -2.367978  -1.303846
N    -0.903903  -3.854741  -2.355431
H    -1.498967  -1.393931  1.127036
H    -1.295275  -1.282209  2.870282
H    0.601760  -2.717438  2.871138
H    1.150297  -2.162984  1.302016
H    -1.065722  -4.176371  1.922282
H    0.502997  -4.494376  1.172823
H    -1.856145  -4.145963  -0.126520
H    1.030504  -2.254836  -2.182726
H    -1.406280  -4.734420  -2.329934
H    -0.738795  -3.443416  -3.266774
O    2.040460  0.926532  2.585281
H    0.606946  -1.580513  -0.626322
Ca    2.278972  1.313640  4.714587
