27
Energy: -35050.5232209 eV PBE+vdW (tier 2 basis)
N    0.967915  -0.590807  0.148319
C    0.143245  -0.016897  1.264483
C    1.089682  0.606527  2.277711
O    2.293655  0.271280  2.315257
H    0.461746  -1.408168  -0.215221
H    0.961605  0.070634  -0.637686
H    -0.532644  0.760574  0.872709
C    -0.701853  -1.118732  1.961084
C    -1.826117  -1.702625  1.092474
C    -2.997024  -0.745815  0.845045
N    -3.972175  -1.363727  -0.040724
C    -5.243195  -0.782277  -0.223857
N    -5.606815  -0.565282  -1.437952
N    -5.928464  -0.516350  0.945576
H    -1.134475  -0.697399  2.881408
H    -0.020131  -1.919085  2.293759
H    -2.201544  -2.605199  1.594620
H    -1.434693  -2.064756  0.123732
H    -2.634476  0.221601  0.430840
H    -3.483618  -0.506264  1.799874
H    -3.607447  -1.563526  -0.972531
H    -6.572090  -0.236385  -1.528954
H    -6.864938  -0.141877  0.834288
H    -5.857333  -1.203200  1.691286
O    0.670582  1.465646  3.164913
H    -0.273803  1.706615  3.073360
Ca    3.299866  -0.972703  0.880048
