27
Energy: -35051.0610603 eV PBE+vdW (tier 2 basis)
N    0.249198  0.848577  0.612232
C    0.317731  -0.088868  1.738174
C    1.816479  -0.304105  1.956010
O    2.496522  0.301649  2.737310
H    -0.722657  1.032155  0.359518
H    0.666601  1.746944  0.859689
H    -0.046137  0.324422  2.698385
C    -0.510955  -1.333078  1.383578
C    -0.714210  -2.388294  2.480913
C    0.539205  -3.149454  2.940394
N    1.314167  -3.682075  1.803492
C    1.245267  -4.892573  1.305002
N    0.538228  -5.943904  1.696771
N    2.068162  -5.229522  0.137808
H    -0.111679  -1.778047  0.458969
H    -1.512223  -0.966226  1.113008
H    -1.460372  -3.114812  2.125114
H    -1.147863  -1.926333  3.380251
H    0.279966  -3.969342  3.623114
H    1.229766  -2.496605  3.490822
H    1.874590  -2.944660  1.326773
H    -0.079836  -5.787578  2.494695
H    1.802148  -4.651782  -0.669236
H    3.056881  -5.015727  0.313846
O    2.402229  -1.247151  1.088834
H    3.364620  -1.099430  1.197397
Ca    1.207987  -7.508714  0.319827
