27
Energy: -35052.646158 eV PBE+vdW (tier 2 basis)
N    0.410232  -1.898596  -0.526250
C    0.265346  -0.962385  0.576948
C    1.487853  -0.040928  0.559459
O    2.581611  -0.353460  1.088587
H    0.314271  -1.501265  -1.458562
H    1.227882  -2.502752  -0.475076
H    -0.636061  -0.357910  0.383372
C    0.112254  -1.691161  1.916558
C    -0.416588  -0.802489  3.064392
C    0.085100  -1.170276  4.474635
N    1.308859  -0.430235  4.847128
C    2.556968  -0.730805  4.481810
N    3.030977  -1.844523  3.969893
N    3.537516  0.313064  4.498991
H    1.081605  -2.141124  2.172053
H    -0.576184  -2.527478  1.740162
H    -1.513698  -0.850155  3.070711
H    -0.172767  0.258541  2.891637
H    0.257537  -2.249741  4.584218
H    -0.663069  -0.906630  5.230310
H    1.165444  0.430695  5.368252
H    2.411959  -2.652475  4.049365
H    4.253233  0.145487  5.212982
H    3.161890  1.255484  4.620819
O    1.470725  1.087996  -0.121250
H    0.587369  1.282818  -0.493574
Ca    4.259842  -0.840428  2.347544
