27
Energy: -35052.5614056 eV PBE+vdW (tier 2 basis)
N    0.602059  1.499250  2.159166
C    0.252282  0.200768  2.693952
C    1.458264  -0.304856  3.486550
O    2.520291  0.337256  3.525995
H    -0.480395  -2.211812  -3.425464
H    -0.221791  1.936785  1.744353
H    -0.574677  0.259629  3.438935
C    -0.190569  -0.865256  1.640705
C    -1.502208  -0.471388  0.944586
C    -2.192648  -1.590325  0.158446
N    -1.461379  -1.966104  -1.060438
C    -1.984026  -2.653277  -2.087387
N    -1.282432  -2.794928  -3.222335
N    -3.206664  -3.188709  -1.994931
H    -0.334934  -1.842879  2.133099
H    0.633040  -0.987530  0.918987
H    -1.348656  0.394731  0.283981
H    -2.228546  -0.152142  1.707913
H    -3.190370  -1.240579  -0.143304
H    -2.321721  -2.474865  0.805295
H    -0.463392  -1.787609  -1.090118
H    -1.566674  -3.452754  -3.938485
H    -3.678951  -3.560321  -2.810868
H    -3.674965  -3.295366  -1.104156
O    1.406908  -1.435046  4.167572
H    0.526048  -1.852388  4.120713
Ca    2.483650  2.366959  2.625294
