27
Energy: -35053.4951735 eV PBE+vdW (tier 2 basis)
N    -1.393221  -0.678869  1.312308
C    -0.231412  -0.582183  2.216236
C    1.045954  -0.353494  1.426666
O    1.001000  0.053105  0.204059
H    -2.220670  -0.327160  1.798914
H    -1.248830  -0.053419  0.515316
H    -0.277177  0.339088  2.834982
C    -0.120697  -1.764873  3.201377
C    -0.288255  -3.147786  2.548276
C    -1.736655  -3.663947  2.659173
N    -2.090823  -4.683331  1.672538
C    -2.541462  -4.405486  0.440721
N    -2.524595  -3.149092  -0.017480
N    -3.005289  -5.402071  -0.332994
H    -0.876262  -1.624076  3.988416
H    0.848028  -1.687421  3.708938
H    0.386767  -3.870789  3.023851
H    0.005766  -3.108037  1.488194
H    -2.456115  -2.841054  2.556486
H    -1.910884  -4.099295  3.650915
H    -1.968341  -5.659018  1.920719
H    -2.065785  -2.366325  0.488330
H    -3.234083  -5.248961  -1.306848
H    -3.240763  -6.306582  0.056485
O    2.190259  -0.472833  2.003046
H    -3.044106  -2.919697  -0.855976
Ca    3.154601  0.375034  0.275746
