27
Energy: -35052.8073331 eV PBE+vdW (tier 2 basis)
N    0.782122  0.268384  0.338482
C    0.402192  -0.001063  1.693700
C    1.368003  -0.831220  2.540392
O    1.419233  -0.745348  3.795446
H    0.780581  -0.547893  -0.270597
H    1.661901  0.769474  0.237900
H    0.344964  0.963886  2.226741
C    -1.010127  -0.661900  1.703603
C    -1.652147  -0.954928  3.065204
C    -1.912032  0.297157  3.914125
N    -1.797358  -0.010619  5.388393
C    -1.744915  1.162921  6.226690
N    -0.519807  1.551313  6.474670
N    -2.888647  1.693884  6.663418
H    -0.956890  -1.600097  1.132254
H    -1.639527  0.019486  1.113644
H    -1.029578  -1.666662  3.633886
H    -2.597546  -1.486905  2.891503
H    -2.897427  0.729446  3.687736
H    -1.173294  1.085099  3.709830
H    -2.559386  -0.634982  5.670153
H    -0.428464  2.428492  6.990886
H    -2.897351  2.482453  7.305306
H    -3.792395  1.364201  6.340172
O    2.147515  -1.644864  1.875988
H    2.744934  -2.145017  2.472021
Ca    0.657730  -0.289413  5.794001
