27
Energy: -35053.4284669 eV PBE+vdW (tier 2 basis)
N    -0.284107  -0.040517  1.209839
C    -0.506099  -0.561157  2.569719
C    0.161771  0.328764  3.601135
O    0.299953  -0.078049  4.814897
H    -0.425281  0.972653  1.208684
H    2.265361  0.216455  -1.195108
H    -1.570509  -0.457994  2.873000
C    -0.177929  -2.072069  2.711019
C    0.925127  -2.596944  1.787289
C    2.298908  -1.937177  1.982683
N    3.192595  -2.119817  0.838287
C    3.138647  -1.375082  -0.278501
N    2.212299  -0.420802  -0.409635
N    4.042552  -1.580215  -1.250878
H    -1.092392  -2.637978  2.491523
H    0.052107  -2.276802  3.765224
H    0.614843  -2.476994  0.739932
H    1.017796  -3.680588  1.944484
H    2.811697  -2.346304  2.862017
H    2.205681  -0.853792  2.148918
H    3.779484  -2.946937  0.821282
H    1.386527  -0.335701  0.218565
H    3.939703  -1.156196  -2.164194
H    4.844434  -2.182459  -1.112322
O    0.486040  1.542954  3.309522
H    -0.997731  -0.426970  0.587432
Ca    0.785791  1.929856  5.430137
