27
Energy: -35051.0772398 eV PBE+vdW (tier 2 basis)
N    -0.066525  0.149564  0.113979
C    0.200758  -0.137405  1.512412
C    1.562619  -0.804767  1.778534
O    2.204808  -1.400944  0.950785
H    -0.000192  -0.707343  -0.441511
H    0.647367  0.772446  -0.266337
H    0.218023  0.822813  2.058089
C    -0.906756  -1.042339  2.103926
C    -2.337802  -0.625519  1.729813
C    -2.655071  0.852554  1.934417
N    -2.436458  1.255480  3.343428
C    -2.871232  2.370068  3.892638
N    -3.560955  3.352067  3.334206
N    -2.620306  2.639534  5.308561
H    -0.767417  -1.107231  3.196515
H    -0.760272  -2.072948  1.747404
H    -3.061288  -1.249233  2.275279
H    -2.507040  -0.811554  0.661685
H    -3.706498  1.055567  1.682880
H    -2.006310  1.460410  1.282345
H    -1.874190  0.616629  3.906779
H    -3.748839  3.244870  2.335374
H    -1.613264  2.728881  5.491840
H    -2.944706  1.865016  5.899555
O    1.933594  -0.647991  3.079925
H    2.785640  -1.116275  3.194522
Ca    -3.946256  4.690367  5.027851
