27
Energy: -35053.4369248 eV PBE+vdW (tier 2 basis)
N    0.256091  -0.362942  0.007313
C    -0.111796  -0.087226  1.430928
C    1.163655  0.203166  2.223243
O    2.274565  -0.161007  1.821046
H    0.173199  0.515036  -0.517600
H    -0.472534  -0.959033  -0.396916
H    -0.757940  0.804606  1.475909
C    -0.908422  -1.243813  2.090814
C    -0.203053  -2.542106  2.522923
C    0.238388  -3.545686  1.447383
N    1.626969  -3.289870  0.975002
C    2.148921  -4.055828  -0.129258
N    3.049846  -3.397995  -0.810769
N    1.656687  -5.274304  -0.374052
H    -1.752298  -1.474448  1.420711
H    -1.382432  -0.824483  2.990276
H    -0.930190  -3.068707  3.156310
H    0.641614  -2.327067  3.198243
H    -0.428080  -3.514221  0.574263
H    0.159372  -4.556134  1.878840
H    2.272031  -3.392419  1.766812
H    3.531376  -3.938271  -1.532521
H    1.965358  -5.809562  -1.180341
H    1.064069  -5.759556  0.290453
O    1.086731  0.806168  3.389088
H    0.185885  1.108335  3.618708
Ca    2.610613  -1.229843  -0.133887
