27
Energy: -35051.2312973 eV PBE+vdW (tier 2 basis)
N    -1.863493  -0.632031  2.162291
C    -0.466560  -0.763160  2.690866
C    0.431089  0.123698  1.850448
O    0.091912  0.443176  0.686197
H    -2.441260  -1.483234  2.499294
H    -2.309468  0.130942  2.689342
H    -0.445645  -0.448522  3.746222
C    0.082535  -2.230294  2.569915
C    0.763733  -2.828535  3.814596
C    -0.111114  -3.007964  5.081760
N    -1.458651  -3.512545  4.800615
C    -2.463056  -2.647372  4.416316
N    -3.252764  -2.770794  3.380181
N    -2.558221  -1.478914  5.154760
H    0.794740  -2.292705  1.733218
H    -0.770387  -2.860338  2.282492
H    1.664280  -2.254736  4.089340
H    1.143506  -3.813468  3.503947
H    -0.202521  -2.063627  5.630220
H    0.397859  -3.702478  5.761894
H    -1.482925  -4.407520  4.317645
H    -3.098227  -3.657966  2.892543
H    -3.472509  -1.044054  5.057505
H    -2.280056  -1.551029  6.130258
O    1.602115  0.518748  2.268868
H    1.795378  0.259011  3.192239
Ca    -1.843673  -0.036446  -0.123094
