27
Energy: -35049.7331607 eV PBE+vdW (tier 2 basis)
N    -0.861402  -0.157400  -0.261295
C    -0.442485  0.063654  1.118446
C    1.067470  0.190649  0.907528
O    1.614035  1.278793  0.573019
H    -1.100122  -1.120275  -0.483768
H    -1.562651  0.488463  -0.608915
H    -0.791693  1.049080  1.457576
C    -0.824108  -1.008597  2.150869
C    -2.279918  -0.963625  2.649975
C    -3.347677  -1.373930  1.628095
N    -4.646076  -1.453850  2.265438
C    -5.832492  -1.404357  1.550359
N    -5.969907  -1.256321  0.261199
N    -6.967431  -1.536417  2.296222
H    -0.172774  -0.889416  3.031736
H    -0.619034  -2.015493  1.736709
H    -2.509897  0.039135  3.040334
H    -2.336348  -1.645212  3.512355
H    -3.063152  -2.332344  1.150202
H    -3.419884  -0.622177  0.829529
H    -4.678449  -1.944825  3.154856
H    -5.076587  -1.235927  -0.234605
H    -7.842746  -1.479992  1.787894
H    -6.986459  -1.337868  3.288546
O    1.856716  -0.853752  0.971236
H    1.379041  -1.650192  1.287481
Ca    3.028078  2.601871  -0.199076
