27
Energy: -35053.2155181 eV PBE+vdW (tier 2 basis)
N    -0.349245  -0.790071  0.343304
C    -0.382251  -0.222506  1.716635
C    1.071034  0.031929  2.125276
O    1.955782  -0.747576  1.738117
H    -1.221314  -1.309076  0.160949
H    -0.321901  -0.026798  -0.340331
H    -0.974971  0.705677  1.749072
C    -0.945187  -1.225352  2.756950
C    -2.297858  -1.891740  2.437350
C    -2.228392  -3.253931  1.730589
N    -2.177766  -3.206733  0.246143
C    -1.330857  -4.024747  -0.474909
N    -0.028362  -4.047364  -0.192457
N    -1.880147  -4.721491  -1.486522
H    -1.031629  -0.677299  3.705374
H    -0.197391  -2.013619  2.950715
H    -2.972125  -1.206828  1.899677
H    -2.792974  -2.073232  3.401172
H    -3.115306  -3.839425  2.010217
H    -1.354649  -3.823262  2.071895
H    -3.102698  -3.122257  -0.172270
H    0.388804  -4.886875  -0.608166
H    -1.303962  -5.184819  -2.180675
H    -2.878100  -4.896168  -1.539382
O    1.397750  1.007644  2.935997
H    0.648119  1.591204  3.167649
Ca    1.506871  -2.391701  0.263836
