27
Energy: -35051.8127191 eV PBE+vdW (tier 2 basis)
N    -0.156535  0.334399  0.277884
C    0.063130  -0.048327  1.677912
C    1.490065  -0.525121  1.881988
O    2.194053  -0.976405  0.960404
H    -1.143126  0.582365  0.159727
H    0.363111  1.187583  0.054160
H    -0.083130  0.800592  2.372322
C    -0.949153  -1.149428  2.116901
C    -1.197423  -2.347368  1.185062
C    -0.118827  -3.440667  1.077815
N    0.672843  -3.531860  -0.230691
C    0.019260  -3.064423  -1.452356
N    -0.594205  -3.898297  -2.171117
N    0.433755  -1.718682  -1.726901
H    -1.908975  -0.629308  2.251379
H    -0.676316  -1.507227  3.121004
H    -1.523213  -2.014180  0.189549
H    -2.091169  -2.839940  1.591591
H    -0.608397  -4.414688  1.190314
H    0.617448  -3.362783  1.888657
H    0.770749  -4.541449  -0.388317
H    -0.955760  -3.543955  -3.063205
H    0.148295  -1.007324  -0.990520
H    0.104739  -1.394186  -2.638765
O    2.015946  -0.505458  3.083402
H    1.435215  -0.089556  3.753133
Ca    2.600534  -2.191283  -0.764468
