27
Energy: -35052.0195278 eV PBE+vdW (tier 2 basis)
N    0.258392  1.166352  0.880500
C    0.151179  0.096347  1.944114
C    1.554125  -0.540291  2.134933
O    2.555133  0.258491  1.875631
H    0.083675  0.717516  -0.028085
H    -0.532522  1.810388  0.988365
H    -0.059644  0.631569  2.885816
C    -0.965407  -0.929781  1.663168
C    -1.756600  -1.482450  2.867790
C    -1.027990  -2.166169  4.023188
N    -0.161557  -3.337727  3.595285
C    -0.800429  -4.376900  2.681132
N    -0.366119  -4.614648  1.520004
N    -1.908846  -4.932746  3.236830
H    -0.553483  -1.752115  1.061198
H    -1.718562  -0.445586  1.023962
H    -2.514370  -2.171514  2.468716
H    -2.326239  -0.662908  3.332727
H    -1.761546  -2.529298  4.751827
H    -0.342998  -1.489005  4.550702
H    0.226468  -3.799920  4.429953
H    0.453980  -4.080184  1.232550
H    -2.322411  -5.695519  2.706716
H    -2.021308  -4.996492  4.242188
O    1.687885  -1.697884  2.521144
H    0.647970  -2.894649  3.082562
Ca    2.547654  2.049815  0.905922
