27
Energy: -35053.3177306 eV PBE+vdW (tier 2 basis)
N    -0.439218  1.913037  0.816550
C    -0.292842  1.011564  1.956154
C    0.915136  1.573659  2.701940
O    0.741156  2.265279  3.773603
H    0.100891  1.632225  0.001134
H    -1.405169  2.093650  0.559682
H    -1.150001  1.178128  2.623142
C    -0.166560  -0.496583  1.653256
C    -1.480761  -1.068545  1.104968
C    -1.508907  -2.583025  0.888805
N    -0.691617  -2.992778  -0.264479
C    -0.413094  -4.262848  -0.592097
N    -0.910613  -5.273758  0.130249
N    0.390986  -4.526098  -1.633833
H    0.101549  -1.026419  2.581994
H    0.670222  -0.653240  0.953971
H    -1.765670  -0.563254  0.167581
H    -2.293017  -0.847414  1.813570
H    -2.553372  -2.896710  0.728782
H    -1.127130  -3.098555  1.783377
H    -0.510290  -2.287627  -0.971919
H    -1.667739  -5.131852  0.786525
H    0.917054  -3.794704  -2.094730
H    0.466976  -5.459943  -2.018568
O    2.104954  1.453630  2.216859
H    -0.602549  -6.227124  -0.019493
Ca    2.771673  2.935703  3.643527
