27
Energy: -35051.0194269 eV PBE+vdW (tier 2 basis)
N    -0.096169  0.519656  -0.022757
C    -0.521422  0.014885  1.269010
C    0.330828  0.366377  2.511682
O    -0.009795  0.071233  3.635557
H    -0.104197  1.538719  -0.052293
H    0.854839  0.225723  -0.251148
H    -1.500045  0.468023  1.500065
C    -0.672924  -1.523138  1.241006
C    -1.519699  -2.053651  0.076637
C    -2.942745  -1.489429  0.069809
N    -3.749822  -2.024612  -1.049161
C    -4.574721  -3.057669  -1.045590
N    -5.260121  -3.570221  -2.053376
N    -4.836085  -3.790456  0.188383
H    -1.080285  -1.845701  2.209283
H    0.324957  -1.980502  1.160508
H    -1.554801  -3.154347  0.135199
H    -1.038455  -1.795191  -0.877320
H    -2.926589  -0.401341  -0.070124
H    -3.467765  -1.683126  1.015296
H    -3.586322  -1.578724  -1.952528
H    -5.144138  -3.108431  -2.957758
H    -5.256209  -3.174946  0.895613
H    -3.961182  -4.129104  0.606578
O    1.466806  1.016761  2.194622
H    1.945245  1.204290  3.028298
Ca    -6.311757  -5.272830  -1.120236
