27
Energy: -35052.188841 eV PBE+vdW (tier 2 basis)
N    -0.301536  -1.549671  0.896025
C    0.016963  -0.280060  1.580299
C    1.514389  0.007749  1.657454
O    1.915840  1.185554  1.978279
H    0.346727  -2.277694  1.214757
H    -1.831124  -2.237959  1.149341
H    -0.414949  0.547163  0.995914
C    -0.605996  -0.245710  2.995328
C    -2.145537  -0.150441  2.943338
C    -2.897336  -1.141113  3.848873
N    -2.440190  -2.542685  3.791140
C    -2.551342  -3.437508  2.766449
N    -2.433553  -4.696835  2.689958
N    -2.737511  -2.803516  1.423099
H    -0.191865  0.606066  3.547943
H    -0.294387  -1.158327  3.526876
H    -2.488298  -0.245068  1.902540
H    -2.469736  0.855110  3.242900
H    -3.980199  -1.070517  3.654947
H    -2.761638  -0.845307  4.896005
H    -2.336669  -2.991463  4.695903
H    -2.296489  -5.180519  3.581035
H    -2.863680  -3.599781  0.782458
H    -3.567073  -2.200108  1.367000
O    2.378539  -0.912885  1.412754
H    -0.137855  -1.461980  -0.110112
Ca    3.969235  0.551340  1.750010
