27
Energy: -35051.0915511 eV PBE+vdW (tier 2 basis)
N    0.107287  -0.328319  0.011976
C    0.189218  0.279190  1.324289
C    1.641836  0.665131  1.610110
O    2.541162  0.579374  0.808159
H    -0.689244  -0.009379  -0.532853
H    0.971223  -0.185948  -0.514213
H    -0.386224  1.220340  1.392807
C    -0.376527  -0.676061  2.411996
C    0.393683  -1.999171  2.449891
C    -0.250310  -3.090063  3.294259
N    -0.281575  -2.708604  4.729440
C    -0.613468  -3.515096  5.718720
N    -0.990229  -4.778671  5.660981
N    -0.576278  -3.033567  7.098815
H    -1.431331  -0.866924  2.161609
H    -0.360691  -0.145177  3.377747
H    1.433499  -1.846865  2.781386
H    0.453201  -2.381209  1.419274
H    0.320227  -4.027785  3.210616
H    -1.286020  -3.279162  2.969084
H    -0.042037  -1.740413  4.941981
H    -1.054671  -5.178048  4.722744
H    -1.240998  -2.262812  7.237052
H    0.348029  -2.654321  7.335724
O    1.803282  1.121633  2.881957
H    2.731980  1.421362  2.952407
Ca    -1.235391  -5.306609  7.792561
