27
Energy: -35051.0497416 eV PBE+vdW (tier 2 basis)
N    -0.643056  0.263661  -0.233072
C    -0.200126  0.141584  1.144848
C    1.320032  0.307496  1.202774
O    2.025875  0.458242  0.230156
H    -1.459340  0.860436  -0.337699
H    0.114608  0.603867  -0.828115
H    -0.624867  0.924669  1.795457
C    -0.630580  -1.225526  1.746426
C    -0.046904  -2.390152  0.941632
C    -0.671473  -3.729197  1.314337
N    -0.129449  -4.791528  0.425631
C    -0.221512  -6.101636  0.564811
N    0.262473  -7.055999  -0.211703
N    -0.947383  -6.665244  1.697209
H    -1.729984  -1.259852  1.710780
H    -0.330782  -1.275666  2.802202
H    1.043866  -2.445392  1.086028
H    -0.237130  -2.178873  -0.125105
H    -1.765453  -3.690604  1.190853
H    -0.446734  -3.991832  2.358900
H    0.358445  -4.444785  -0.402200
H    0.804099  -6.745793  -1.021054
H    -1.889052  -6.261288  1.769463
H    -0.482297  -6.421284  2.580774
O    1.778844  0.245848  2.474113
H    2.742280  0.413072  2.443654
Ca    -0.515497  -8.893355  0.730595
