27
Energy: -35051.7914781 eV PBE+vdW (tier 2 basis)
N    -0.474316  -0.811499  0.332183
C    0.386330  -0.431012  1.516348
C    1.846398  -0.835186  1.272419
O    2.664820  -0.920094  2.146105
H    0.033592  -0.619743  -0.540212
H    -1.341636  -0.263471  0.333481
H    0.395193  0.669671  1.559589
C    -0.175969  -0.973563  2.832085
C    -0.171009  -2.498874  3.027818
C    -1.282846  -3.307555  2.349826
N    -1.153535  -3.359862  0.883743
C    -1.592374  -4.407643  0.265769
N    -2.217491  -5.529919  0.686219
N    -1.379760  -4.517555  -1.199307
H    -1.188633  -0.564761  2.979773
H    0.441890  -0.522984  3.619964
H    -0.273033  -2.681467  4.106609
H    0.809099  -2.917251  2.754287
H    -2.269117  -2.885194  2.610342
H    -1.250970  -4.323735  2.775902
H    -0.737614  -1.892492  0.394833
H    -2.471330  -5.528360  1.674205
H    -2.001701  -3.865043  -1.688703
H    -0.428148  -4.220425  -1.434409
O    2.093856  -1.023618  -0.056384
H    3.056562  -1.168849  -0.161815
Ca    -2.166273  -6.799077  -1.045868
