27
Energy: -35049.7740306 eV PBE+vdW (tier 2 basis)
N    0.206651  0.143511  0.386175
C    0.168000  -0.159365  1.814991
C    1.612116  -0.605226  2.028143
O    2.541103  0.223364  2.259320
H    -0.123093  -0.615217  -0.207656
H    -0.268782  1.008642  0.143185
H    0.070365  0.787512  2.362696
C    -0.931007  -1.118816  2.315225
C    -0.992601  -2.521715  1.687234
C    -2.395956  -3.165385  1.839170
N    -2.496894  -4.479254  1.237335
C    -2.356665  -4.745287  -0.116739
N    -1.946708  -5.858478  -0.630078
N    -2.623216  -3.678739  -0.964880
H    -1.876361  -0.594474  2.104835
H    -0.869989  -1.195362  3.411746
H    -0.285764  -3.224204  2.172320
H    -0.769913  -2.501740  0.607609
H    -3.141733  -2.481275  1.406507
H    -2.653470  -3.264890  2.901550
H    -2.366247  -5.278942  1.846665
H    -1.739503  -6.583203  0.062974
H    -2.591389  -3.975107  -1.938244
H    -3.457453  -3.135675  -0.755647
O    1.972262  -1.852625  1.893640
H    1.184442  -2.436322  1.767837
Ca    4.364787  1.195095  2.295309
