30
Energy: -572553.917369 eV PBE+vdW (tier 2 basis)
C    0.812134  -0.253711  0.193446
C    0.650636  -0.187405  1.679226
O    1.722507  -0.290212  2.365938
H    -0.135176  -0.130109  -0.342896
H    1.280366  -1.208837  -0.079051
H    1.506816  0.540639  -0.117217
N    -0.586503  -0.024464  2.185285
C    -1.003393  0.494377  3.508316
C    -1.436298  -0.634475  4.473171
O    -0.563085  -1.488269  4.930124
H    -1.323135  -0.028301  1.482955
H    -0.102793  0.927187  3.979833
C    -1.960418  1.694362  3.323116
C    -3.230748  1.527860  2.448221
C    -4.520976  1.535836  3.263682
O    -4.619351  0.818458  4.283745
N    -5.527264  2.301901  2.849738
H    -1.347225  2.491833  2.883762
H    -2.230896  2.054192  4.325512
H    -3.253440  0.571575  1.898119
H    -3.257587  2.313993  1.684764
H    -5.459511  2.902137  2.035833
H    -6.406697  2.289826  3.361781
N    -2.667099  -0.754086  4.877334
C    -3.115563  -1.762286  5.844374
H    -3.440612  -0.061509  4.547443
H    -4.131958  -1.498709  6.148315
H    -2.452693  -1.781162  6.717039
H    -3.120792  -2.757757  5.381948
Hg    1.493862  -1.105948  4.401113
