30
Energy: -572554.132108 eV PBE+vdW (tier 2 basis)
C    -0.111054  0.947509  0.072275
C    -0.083996  0.490404  1.489290
O    1.086792  0.122687  1.917968
H    0.226019  0.121631  -0.571903
H    0.602068  1.771455  -0.063924
H    -1.110932  1.263027  -0.244913
N    -1.209106  0.468339  2.201931
C    -1.445287  -0.162149  3.514009
C    -2.803808  -0.910907  3.706705
O    -2.730089  -1.893226  4.440467
H    -2.027855  0.821792  1.709836
H    -0.770423  -1.031939  3.564819
C    -1.216919  0.797625  4.729649
C    -1.018298  0.062438  6.079501
C    0.374760  -0.172997  6.620334
O    1.472629  -0.308336  5.932640
N    0.519929  -0.306517  7.921163
H    -2.100797  1.441452  4.829782
H    -0.400976  1.511904  4.522199
H    -1.493347  -0.937335  6.009255
H    -1.577720  0.593318  6.859988
H    -0.265458  -0.213883  8.560370
H    1.431140  -0.536133  8.317994
N    -3.956628  -0.460622  3.169370
C    -4.245161  0.743168  2.395189
H    -4.746586  -1.066651  3.389025
H    -5.313339  0.965015  2.486303
H    -4.043291  0.610907  1.319101
H    -3.715281  1.622499  2.786597
Hg    1.444635  -0.164904  3.904063
