30
Energy: -572554.619178 eV PBE+vdW (tier 2 basis)
C    -2.792985  0.320562  0.910454
C    -1.884471  0.208942  2.095984
O    -0.649575  0.089964  1.935888
H    -2.553658  -0.475828  0.195228
H    -2.583575  1.273600  0.403293
H    -3.857601  0.280838  1.165126
N    -2.462661  0.249618  3.329684
C    -1.783726  0.260653  4.629475
C    -0.799071  1.461557  4.711209
O    0.456838  1.403404  4.450872
H    -3.474325  0.336917  3.351414
H    -2.580681  0.515911  5.336166
C    -1.208274  -1.118958  5.148877
C    -1.228631  -2.354533  4.199196
C    0.090473  -3.082368  3.994622
O    1.179239  -2.511048  3.617000
N    0.127787  -4.390938  4.159143
H    -1.814975  -1.382680  6.022671
H    -0.207793  -0.961480  5.584869
H    -1.567540  -2.075265  3.189320
H    -1.971363  -3.073885  4.561622
H    -0.685090  -4.921473  4.457390
H    0.988509  -4.904309  3.970074
N    -1.273254  2.636315  5.088897
C    -2.634035  2.995541  5.506815
H    -0.578032  3.385285  5.091603
H    -2.946036  2.421595  6.388455
H    -3.348804  2.859922  4.686233
H    -2.627240  4.054066  5.780725
Hg    1.070548  -0.402926  3.495694
