30
Energy: -572553.813714 eV PBE+vdW (tier 2 basis)
C    0.066176  0.618498  -0.024888
C    -0.043055  0.235238  1.418057
O    1.048079  0.257972  2.085683
H    0.824750  -0.021723  -0.498710
H    0.433960  1.650775  -0.099701
H    -0.879445  0.512382  -0.567737
N    -1.251000  -0.103010  1.899763
C    -1.672382  -0.921804  3.065817
C    -1.915459  -0.128593  4.364639
O    -1.192354  0.850675  4.798508
H    -1.998594  0.028917  1.222287
H    -2.671576  -1.266405  2.768851
C    -0.825839  -2.211584  3.242878
C    -1.389418  -3.247545  4.244171
C    -2.833138  -3.662361  3.980498
O    -3.754793  -2.809830  3.992185
N    -3.087715  -4.948370  3.741030
H    0.205197  -1.985837  3.544643
H    -0.754630  -2.669347  2.245838
H    -1.356779  -2.857834  5.272969
H    -0.724157  -4.120088  4.228089
H    -2.361548  -5.655806  3.733249
H    -4.049381  -5.249512  3.598209
N    -2.975929  -0.485876  5.052233
C    -3.378650  0.064352  6.342525
H    -3.513303  -1.301681  4.647907
H    -4.064217  0.909490  6.186907
H    -2.506682  0.414392  6.903448
H    -3.911165  -0.715837  6.895908
Hg    0.903421  0.871143  4.202864
