30
Energy: -572553.703628 eV PBE+vdW (tier 2 basis)
C    0.347663  -0.818032  0.714135
C    0.248544  0.021380  1.952456
O    1.165301  0.926653  2.048132
H    0.165891  -0.180085  -0.162747
H    -0.390174  -1.628906  0.732913
H    1.362147  -1.224006  0.619760
N    -0.739681  -0.221614  2.806792
C    -1.164541  0.626166  3.913442
C    -0.322244  0.414367  5.200568
O    0.394126  1.404392  5.622179
H    -1.476246  -0.993082  2.586273
H    -0.933480  1.676307  3.654359
C    -2.711314  0.695619  4.067827
C    -3.607979  -0.525389  4.336916
C    -3.674682  -1.580120  3.238315
O    -2.667960  -1.887778  2.554531
N    -4.838223  -2.206440  3.062028
H    -3.060335  1.189773  3.148632
H    -2.895523  1.419801  4.875072
H    -4.615020  -0.126638  4.523645
H    -3.330879  -1.040096  5.267265
H    -5.673296  -1.971645  3.586763
H    -4.904006  -2.949001  2.369909
N    -0.265258  -0.702836  5.900331
C    -0.902625  -2.004400  5.703065
H    0.356581  -0.635520  6.711410
H    -1.689084  -2.162965  6.451662
H    -0.133408  -2.772849  5.850641
H    -1.306229  -2.099909  4.693093
Hg    1.385071  2.214208  3.800792
