30
Energy: -572553.761826 eV PBE+vdW (tier 2 basis)
C    0.551533  1.886038  4.083234
C    -0.467760  1.337676  5.005172
O    -0.079101  1.058285  6.225679
H    1.308518  1.120096  3.855583
H    1.090220  2.689821  4.610015
H    0.114781  2.283357  3.162919
N    -1.739912  1.118809  4.675710
C    -2.348480  0.561882  3.462785
C    -3.857815  0.810342  3.711935
O    -4.227726  0.732880  4.898831
H    -2.481428  1.091832  5.411558
H    -1.958914  1.055462  2.565786
C    -2.068072  -0.978288  3.394664
C    -3.078959  -1.978338  4.013481
C    -3.405263  -2.149892  5.491660
O    -2.589071  -2.110532  6.508211
N    -4.610323  -2.591325  5.782387
H    -1.045519  -1.169607  3.754810
H    -2.036474  -1.257231  2.331799
H    -2.710240  -2.981388  3.728355
H    -4.040956  -1.868490  3.495175
H    -5.306481  -2.776951  5.065259
H    -4.850110  -2.820770  6.747038
N    -4.675484  1.013411  2.677660
C    -4.321233  1.207736  1.267510
H    -5.646991  1.176458  2.941757
H    -3.599154  0.455979  0.928823
H    -3.924540  2.215433  1.087334
H    -5.228104  1.083441  0.668618
Hg    -1.223399  -0.604763  6.742857
