30
Energy: -572554.256042 eV PBE+vdW (tier 2 basis)
C    -0.841148  0.778621  -0.058947
C    -1.173930  -0.066723  1.129896
O    -0.798251  -1.240236  1.256759
H    -1.314936  1.766121  -0.047506
H    -1.125865  0.241560  -0.972160
H    0.249901  0.907296  -0.094158
N    -1.933270  0.515650  2.127381
C    -2.126843  -0.161013  3.404623
C    -3.261909  -1.230340  3.234004
O    -4.507243  -1.159573  3.666180
H    -2.332886  1.437239  1.976692
H    -1.214685  -0.759772  3.564190
C    -2.218780  0.892093  4.532720
C    -1.900078  0.390208  5.981891
C    -2.762250  0.993825  7.077754
O    -4.047497  0.818561  7.129633
N    -2.218011  1.700518  8.042092
H    -3.174622  1.445249  4.484204
H    -1.469861  1.655008  4.282611
H    -0.840699  0.570510  6.200885
H    -2.024810  -0.703815  6.074542
H    -1.217269  1.875343  8.083230
H    -2.796249  2.074694  8.796061
N    -2.937025  -2.239135  2.473883
C    -3.809022  -3.341737  2.072454
H    -1.993359  -2.116948  1.999792
H    -3.186787  -4.230871  1.930485
H    -4.300711  -3.098645  1.120378
H    -4.572089  -3.525635  2.833556
Hg    -4.713319  -0.251628  5.479932
