30
Energy: -572553.936611 eV PBE+vdW (tier 2 basis)
C    1.296977  -0.294671  0.892663
C    0.616084  -0.179228  2.220013
O    1.390174  0.092788  3.210580
H    0.598805  -0.575407  0.096227
H    2.114658  -1.023090  0.959927
H    1.749638  0.677325  0.645928
N    -0.709871  -0.344066  2.277443
C    -1.621202  -0.037229  3.386233
C    -1.821774  -1.278381  4.294591
O    -1.224920  -1.343641  5.446587
H    -1.178718  -0.764493  1.465886
H    -1.110341  0.697349  4.029216
C    -2.941194  0.689540  2.946077
C    -3.370777  0.695919  1.470326
C    -3.688116  -0.671151  0.891066
O    -3.029905  -1.674210  1.267822
N    -4.629720  -0.760615  -0.045819
H    -2.824933  1.740898  3.237032
H    -3.758988  0.302881  3.568855
H    -2.589570  1.146723  0.835362
H    -4.233572  1.370467  1.384704
H    -5.157914  0.043526  -0.368216
H    -4.814762  -1.659075  -0.486050
N    -2.603230  -2.244929  3.892869
C    -2.874139  -3.484406  4.619259
H    -3.002557  -2.111417  2.934242
H    -3.819352  -3.391531  5.171520
H    -2.066895  -3.694804  5.326566
H    -2.970703  -4.294905  3.889378
Hg    0.705155  -0.349196  5.242169
