30
Energy: -572554.112238 eV PBE+vdW (tier 2 basis)
C    -0.984575  1.094955  0.513903
C    -0.803784  0.301397  1.747217
O    -0.261292  0.865239  2.771664
H    -0.003214  1.518066  0.239575
H    -1.635686  1.957902  0.714955
H    -1.356448  0.497295  -0.322905
N    -1.164151  -1.007113  1.823697
C    -2.503992  -1.547426  1.520307
C    -3.561414  -0.488048  1.895731
O    -3.386566  0.220585  2.915431
H    -0.662404  -1.513659  2.552693
H    -2.575863  -1.812853  0.455210
C    -2.735185  -2.856262  2.332826
C    -2.352767  -2.945741  3.840851
C    -3.110464  -2.177354  4.914041
O    -2.645223  -1.144713  5.531885
N    -4.273004  -2.639775  5.333578
H    -2.155662  -3.652121  1.843758
H    -3.789971  -3.132825  2.200353
H    -1.282834  -2.743561  4.007445
H    -2.453629  -4.011821  4.097790
H    -4.643880  -3.532111  5.018621
H    -4.771529  -2.157928  6.081864
N    -4.639546  -0.413856  1.118038
C    -5.779035  0.474658  1.360672
H    -4.671391  -0.994061  0.283182
H    -6.697740  -0.116088  1.455491
H    -5.889190  1.172653  0.522251
H    -5.600997  1.034972  2.281531
Hg    -1.359565  0.092594  4.432348
