30
Energy: -572554.014014 eV PBE+vdW (tier 2 basis)
C    -0.411565  0.013979  -0.539304
C    0.181823  0.456468  0.739824
O    1.412463  0.840194  0.750399
H    0.261771  -0.737938  -0.983503
H    -0.430266  0.853567  -1.250088
H    -1.404946  -0.426128  -0.415258
N    -0.518536  0.445384  1.904229
C    -1.825774  1.090856  2.127489
C    -1.892515  2.379223  1.283248
O    -0.845000  3.046204  1.099674
H    0.082700  0.417569  2.727246
H    -2.639831  0.401780  1.866602
C    -1.986070  1.441410  3.636867
C    -0.816506  2.097676  4.431358
C    -0.353494  3.522984  4.162683
O    0.753195  3.828295  3.574628
N    -1.057855  4.527621  4.648893
H    -2.207111  0.506863  4.171465
H    -2.889456  2.058872  3.731879
H    0.087517  1.468572  4.426576
H    -1.138205  2.073267  5.484293
H    -0.736658  5.486197  4.511994
H    -1.854591  4.380890  5.262608
N    -3.072115  2.772806  0.803416
C    -4.367327  2.084814  0.877932
H    -3.041235  3.658484  0.298812
H    -5.095554  2.681078  0.321463
H    -4.724528  1.996633  1.911518
H    -4.322494  1.091748  0.413521
Hg    1.421160  2.505631  2.089535
