30
Energy: -572554.730576 eV PBE+vdW (tier 2 basis)
C    -0.596763  -0.205923  0.142810
C    -0.275390  -0.038319  1.596637
O    0.907364  0.168157  1.952788
H    0.106431  -0.920135  -0.302412
H    -0.430506  0.757736  -0.360318
H    -1.625020  -0.532012  -0.047063
N    -1.314427  -0.116766  2.472687
C    -1.315173  0.105066  3.925943
C    -0.807637  1.534273  4.273969
O    0.419686  1.858791  4.446475
H    -2.226866  -0.280407  2.057355
H    -2.381810  0.119774  4.178257
C    -0.697568  -1.039130  4.829343
C    -0.003661  -2.255933  4.148688
C    1.407942  -2.572904  4.616754
O    2.367404  -1.717614  4.641783
N    1.696434  -3.808533  4.979083
H    -1.531673  -1.435657  5.419427
H    -0.046189  -0.587771  5.596177
H    0.072202  -2.115554  3.059051
H    -0.626299  -3.147884  4.279989
H    0.996673  -4.544255  4.994513
H    2.651008  -4.053406  5.241432
N    -1.720712  2.480230  4.394416
C    -1.412418  3.888091  4.679649
H    -2.700092  2.220700  4.310668
H    -2.316036  4.478398  4.508560
H    -0.610602  4.234075  4.018731
H    -1.092697  4.001328  5.723154
Hg    1.812395  0.260586  4.116459
