30
Energy: -572554.051397 eV PBE+vdW (tier 2 basis)
C    1.183032  0.241768  0.070515
C    0.864506  -0.158715  1.458037
O    1.824545  -0.380563  2.276829
H    1.709040  -0.606773  -0.402605
H    1.887969  1.082755  0.063963
H    0.288666  0.452927  -0.523164
N    -0.426510  -0.330714  1.875895
C    -1.478693  0.705141  1.815286
C    -0.805244  2.081526  1.994569
O    0.167690  2.190846  2.785276
H    -0.533967  -1.007483  2.632055
H    -2.010304  0.640817  0.855112
C    -2.520354  0.468926  2.954270
C    -2.315159  1.154751  4.348450
C    -1.695556  0.388837  5.502374
O    -0.434490  0.195207  5.701199
N    -2.495311  -0.063881  6.450990
H    -2.690360  -0.613055  3.060356
H    -3.469384  0.864723  2.573430
H    -3.312097  1.463085  4.686604
H    -1.737100  2.084509  4.250247
H    -2.105999  -0.542596  7.263347
H    -3.496662  0.107624  6.438690
N    -1.330769  3.108272  1.334044
C    -0.870975  4.495669  1.447140
H    -2.076655  2.917750  0.668699
H    -0.393638  4.808044  0.510199
H    -0.149177  4.566256  2.264229
H    -1.728008  5.148627  1.646626
Hg    0.997965  0.256719  4.167338
