30
Energy: -572553.852488 eV PBE+vdW (tier 2 basis)
C    0.237889  -0.907198  1.801502
C    -1.063003  -1.170692  2.454535
O    -1.552416  -2.381906  2.346736
H    0.663145  0.058683  2.087613
H    0.137004  -0.981517  0.708180
H    0.932931  -1.711622  2.091844
N    -1.752441  -0.262395  3.144782
C    -2.040141  1.152891  2.874160
C    -2.735305  1.601589  4.183966
O    -3.494533  0.766239  4.707948
H    -2.450445  -0.572779  3.853444
H    -1.117639  1.703934  2.654251
C    -3.032817  1.265120  1.666625
C    -4.560363  1.332329  1.920431
C    -5.444061  0.218258  2.465454
O    -5.381286  -1.059961  2.213149
N    -6.530950  0.588162  3.108348
H    -2.784935  0.489092  0.925688
H    -2.808802  2.209861  1.151308
H    -5.012229  1.539329  0.932218
H    -4.775534  2.222610  2.526247
H    -6.757806  1.565950  3.268424
H    -7.210535  -0.111925  3.405929
N    -2.516992  2.844055  4.614713
C    -3.114356  3.404887  5.829730
H    -1.827517  3.410347  4.127388
H    -3.810611  2.673784  6.248146
H    -3.643439  4.334826  5.591304
H    -2.329204  3.618321  6.564907
Hg    -3.612612  -2.084846  2.257831
