30
Energy: -572553.937382 eV PBE+vdW (tier 2 basis)
C    0.358100  0.955975  0.299171
C    0.215818  1.175533  1.774725
O    1.094687  2.008769  2.250234
H    0.351213  1.931022  -0.208100
H    -0.449272  0.329166  -0.092989
H    1.335352  0.496965  0.096840
N    -0.741634  0.527141  2.428001
C    -1.376506  0.834765  3.723812
C    -0.758432  0.056689  4.918811
O    0.247222  0.533177  5.576677
H    -1.414273  -0.080686  1.792410
H    -1.182007  1.892832  3.981712
C    -2.926725  0.780838  3.596391
C    -3.693402  -0.470112  3.103336
C    -3.565882  -0.800639  1.618742
O    -2.468411  -0.709077  1.022541
N    -4.658778  -1.235957  0.992346
H    -3.196203  1.621536  2.941149
H    -3.323523  1.046587  4.586972
H    -4.748490  -0.305935  3.361437
H    -3.425638  -1.400674  3.631541
H    -5.561372  -1.313395  1.447026
H    -4.592538  -1.518454  0.017245
N    -1.267073  -1.084381  5.325490
C    -0.758363  -1.875131  6.454706
H    -2.107561  -1.414923  4.859325
H    -1.090938  -2.908886  6.326860
H    -1.149317  -1.477933  7.400412
H    0.334937  -1.831652  6.471092
Hg    1.308969  1.967500  4.359266
