30
Energy: -572553.948358 eV PBE+vdW (tier 2 basis)
C    0.222125  1.201542  0.382035
C    0.468850  0.404963  1.608113
O    1.707545  0.347836  2.033286
H    0.698619  2.185905  0.507921
H    -0.844782  1.338613  0.183022
H    0.718181  0.731242  -0.479463
N    -0.468531  -0.229906  2.296447
C    -1.777030  -0.815825  2.016403
C    -2.312844  -1.052136  3.462103
O    -1.454549  -1.250643  4.344494
H    -0.300990  -0.486308  3.308364
H    -2.421715  -0.135699  1.444744
C    -1.660804  -2.183075  1.268496
C    -0.413372  -3.077268  1.510282
C    -0.064813  -3.625480  2.886453
O    1.027947  -3.338515  3.523083
N    -0.840544  -4.530804  3.444575
H    -1.663526  -1.988139  0.187242
H    -2.580495  -2.750694  1.468515
H    0.487924  -2.583525  1.117570
H    -0.538642  -3.958366  0.859700
H    -1.644190  -4.920745  2.960236
H    -0.596649  -4.923582  4.353767
N    -3.630944  -1.070194  3.639955
C    -4.281244  -1.302543  4.933274
H    -4.228646  -0.834520  2.851869
H    -4.869358  -0.420878  5.213597
H    -3.510519  -1.479341  5.687361
H    -4.946487  -2.171462  4.867909
Hg    1.890671  -1.491399  3.043766
