30
Energy: -572553.87165 eV PBE+vdW (tier 2 basis)
C    -1.722111  -1.335004  0.468209
C    -1.530188  -0.338030  1.572946
O    -1.698633  0.888778  1.189836
H    -2.710247  -1.187108  0.012276
H    -1.633008  -2.360651  0.843592
H    -0.973903  -1.153110  -0.314939
N    -1.214401  -0.785301  2.781561
C    -1.247846  -0.040509  4.041405
C    0.028151  0.805896  4.284086
O    -0.055533  2.096212  4.249826
H    -1.273998  -1.882878  2.955080
H    -2.062778  0.707664  3.996561
C    -1.592627  -0.951193  5.250074
C    -2.792117  -1.900552  5.047680
C    -2.405068  -3.205026  4.359015
O    -1.559435  -3.219320  3.428240
N    -2.993913  -4.326098  4.769473
H    -1.812984  -0.276870  6.088615
H    -0.721385  -1.542560  5.551779
H    -3.588461  -1.428015  4.449505
H    -3.241180  -2.106221  6.027621
H    -3.664163  -4.345695  5.529963
H    -2.778964  -5.203276  4.301090
N    1.211504  0.287834  4.550646
C    1.635641  -1.106556  4.708025
H    1.940167  0.992267  4.696129
H    2.651441  -1.185758  4.303929
H    0.984314  -1.786324  4.153830
H    1.665109  -1.383052  5.770503
Hg    -1.338967  2.552789  2.520175
