30
Energy: -572554.258676 eV PBE+vdW (tier 2 basis)
C    0.962714  -0.568015  0.323112
C    0.361505  0.154136  1.474642
O    1.177367  0.988571  2.092112
H    0.257136  -1.257512  -0.151244
H    1.822668  -1.146521  0.699295
H    1.365754  0.144332  -0.408643
N    -0.890920  -0.072651  1.821202
C    -1.635978  -0.016041  3.095296
C    -2.823935  -1.006264  2.775249
O    -3.003411  -1.312919  1.591343
H    -1.494838  -0.679260  1.196367
H    -1.000253  -0.449735  3.882281
C    -2.152517  1.352492  3.626879
C    -2.714777  2.367947  2.593666
C    -2.341100  3.801081  2.914373
O    -1.107485  4.197323  3.015323
N    -3.268568  4.713093  3.093693
H    -1.362189  1.812422  4.244200
H    -2.941515  1.135796  4.359579
H    -3.802990  2.269143  2.505176
H    -2.321957  2.165924  1.580398
H    -4.258818  4.489359  3.037824
H    -3.010529  5.683312  3.280295
N    -3.557322  -1.427183  3.808764
C    -4.679249  -2.363040  3.665147
H    -3.248457  -1.215687  4.753164
H    -5.507640  -2.038026  4.303236
H    -4.370908  -3.374900  3.956231
H    -4.997984  -2.371076  2.619816
Hg    0.283719  2.723463  2.646280
