30
Energy: -572553.973899 eV PBE+vdW (tier 2 basis)
C    -0.544928  2.352467  -0.014296
C    -0.641814  1.730406  1.343827
O    -0.802441  2.502668  2.333482
H    0.277794  3.079608  -0.014862
H    -1.468408  2.911884  -0.216993
H    -0.384636  1.613285  -0.807161
N    -0.548862  0.378248  1.433407
C    -0.729524  -0.319541  2.694189
C    0.560474  -0.362122  3.544969
O    0.652243  0.438596  4.530396
H    -0.408545  -0.138034  0.568463
H    -1.341794  0.386065  3.249072
C    -1.653675  -1.557021  2.716468
C    -3.050312  -1.157685  3.264732
C    -3.105572  -0.730277  4.732646
O    -2.707319  0.385703  5.204216
N    -3.663258  -1.584186  5.584194
H    -1.213534  -2.349148  3.336942
H    -1.783470  -1.982722  1.712402
H    -3.736744  -2.001369  3.122251
H    -3.455671  -0.325659  2.668622
H    -4.094639  -2.450070  5.276184
H    -3.757858  -1.329155  6.565977
N    1.557126  -1.188850  3.275975
C    1.661419  -2.192508  2.217667
H    2.360513  -1.102540  3.902223
H    1.814371  -3.183937  2.660972
H    2.516474  -1.956945  1.572174
H    0.753600  -2.218841  1.609690
Hg    -1.119012  1.928681  4.567170
