30
Energy: -572554.296719 eV PBE+vdW (tier 2 basis)
C    -0.763418  1.390315  0.120915
C    -0.573295  0.574597  1.351881
O    0.621505  0.093046  1.517042
H    -1.801379  1.715024  -0.009163
H    -0.455767  0.797118  -0.752307
H    -0.100393  2.266078  0.158981
N    -1.596407  0.374021  2.179697
C    -1.690094  -0.519444  3.352424
C    -3.211703  -0.934321  3.468692
O    -3.923574  -0.271174  4.210890
H    -2.453128  0.875071  1.941412
H    -1.104786  -1.428990  3.132130
C    -1.277086  0.166961  4.681291
C    -0.889082  -0.810643  5.819595
C    0.575024  -0.966585  6.180601
O    1.566526  -0.985384  5.341335
N    0.897042  -1.155562  7.441498
H    -2.175796  0.715005  5.007029
H    -0.516054  0.950232  4.527170
H    -1.243527  -1.831781  5.589839
H    -1.429164  -0.526974  6.731212
H    0.196017  -1.159765  8.178275
H    1.867828  -1.321876  7.708257
N    -3.627215  -1.966415  2.710793
C    -2.846468  -2.814496  1.811640
H    -4.620514  -2.171406  2.808813
H    -3.537834  -3.488483  1.297548
H    -2.124595  -3.440401  2.355275
H    -2.329690  -2.230163  1.038461
Hg    1.225154  -0.528104  3.373887
