30
Energy: -572554.67673 eV PBE+vdW (tier 2 basis)
C    -1.005234  0.294289  -0.174061
C    -0.457469  0.224392  1.217439
O    0.781562  0.531197  1.328067
H    -2.074354  0.065091  -0.234119
H    -0.440952  -0.391996  -0.819536
H    -0.833577  1.308077  -0.563352
N    -1.304190  -0.131514  2.199338
C    -1.305315  -0.107632  3.696925
C    -0.600223  1.123663  4.301275
O    0.644852  1.171505  4.446901
H    -2.226229  -0.354049  1.830850
H    -2.374005  0.027102  3.915250
C    -0.995710  -1.462123  4.407680
C    0.291376  -2.306764  4.188580
C    1.540263  -2.006195  5.003931
O    2.533278  -1.321616  4.557458
N    1.655013  -2.517827  6.215387
H    -1.819705  -2.127787  4.116974
H    -1.138229  -1.278144  5.482970
H    0.578749  -2.336265  3.124872
H    0.010667  -3.344810  4.420835
H    0.966417  -3.157401  6.600482
H    2.495491  -2.339634  6.764680
N    -1.397627  2.109564  4.710374
C    -0.919615  3.342198  5.340521
H    -2.403560  1.997520  4.619186
H    0.150003  3.451762  5.146077
H    -1.090682  3.304263  6.423920
H    -1.466245  4.193082  4.920097
Hg    1.946243  -0.106943  2.948998
