30
Energy: -572554.905873 eV PBE+vdW (tier 2 basis)
C    0.986758  2.394674  1.598447
C    0.553750  1.039072  2.060306
O    1.476196  0.153343  2.094689
H    1.374401  2.315298  0.573464
H    1.819822  2.732255  2.230037
H    0.183951  3.138939  1.628364
N    -0.739323  0.880085  2.395290
C    -1.521349  -0.257743  2.950987
C    -0.954967  -0.675986  4.327873
O    0.082298  -1.377126  4.421454
H    -1.281928  1.732688  2.284253
H    -2.511463  0.179422  3.128964
C    -1.728946  -1.422378  1.920221
C    -1.961024  -2.848492  2.493871
C    -0.982448  -3.937298  2.072897
O    0.294040  -3.805730  2.007739
N    -1.467186  -5.134667  1.801382
H    -0.921410  -1.419743  1.170708
H    -2.606730  -1.149634  1.321276
H    -2.972740  -3.183603  2.238610
H    -1.918864  -2.848032  3.595240
H    -0.834297  -5.902834  1.580109
H    -2.463389  -5.331145  1.819573
N    -1.629043  -0.254008  5.396080
C    -1.227241  -0.511775  6.781538
H    -2.464232  0.307643  5.253984
H    -0.356071  -1.170864  6.782748
H    -2.055065  -0.986414  7.320730
H    -0.973086  0.434407  7.274778
Hg    1.128586  -1.908355  2.356388
