30
Energy: -572554.040938 eV PBE+vdW (tier 2 basis)
C    0.632450  0.777814  3.652647
C    0.175579  -0.515899  3.046668
O    0.986894  -1.500668  3.290141
H    1.539513  1.110756  3.128317
H    0.911327  0.610847  4.701331
H    -0.144685  1.546492  3.584295
N    -0.951217  -0.522980  2.344131
C    -1.806936  -1.656528  1.945892
C    -1.422165  -2.276073  0.572296
O    -0.653173  -3.311271  0.494542
H    -1.547125  0.409602  2.414901
H    -1.689200  -2.483954  2.671558
C    -3.295715  -1.230839  1.992179
C    -3.768319  -0.563869  3.300783
C    -3.542393  0.945313  3.301924
O    -2.532613  1.443084  2.745407
N    -4.444252  1.711146  3.912986
H    -3.891347  -2.135838  1.814281
H    -3.516677  -0.536966  1.166781
H    -3.252024  -0.983928  4.179293
H    -4.832065  -0.790493  3.445995
H    -5.281209  1.334620  4.343819
H    -4.300479  2.717473  3.950912
N    -1.909373  -1.774539  -0.540219
C    -1.616753  -2.268690  -1.891204
H    -2.589780  -1.021336  -0.457979
H    -2.349632  -3.034984  -2.176529
H    -0.613833  -2.703999  -1.913980
H    -1.682723  -1.426651  -2.586775
Hg    0.693097  -3.301677  2.193483
