30
Energy: -572553.687627 eV PBE+vdW (tier 2 basis)
C    0.375301  0.713252  0.088856
C    -0.241170  0.805409  1.440833
O    -0.097253  1.843153  2.192085
H    0.141220  1.623201  -0.479068
H    0.049092  -0.171585  -0.466351
H    1.471378  0.674054  0.190756
N    -1.006112  -0.190966  1.883427
C    -1.558152  -0.339353  3.216949
C    -0.696849  0.281353  4.323168
O    0.570064  0.124882  4.312577
H    -1.175421  -1.052712  1.245836
H    -2.548217  0.148829  3.232928
C    -1.748708  -1.852389  3.543098
C    -2.753364  -2.628638  2.673796
C    -2.224766  -3.107442  1.323002
O    -1.402792  -2.421023  0.667615
N    -2.684073  -4.262545  0.849757
H    -2.106603  -1.902159  4.580794
H    -0.763940  -2.340605  3.532635
H    -3.656892  -2.029694  2.472366
H    -3.089863  -3.504111  3.246302
H    -3.361193  -4.825144  1.353535
H    -2.395472  -4.577455  -0.073863
N    -1.296602  0.870191  5.353134
C    -2.723345  1.115933  5.570041
H    -0.660530  1.157561  6.098697
H    -2.826908  1.822839  6.397805
H    -3.253625  0.191162  5.832602
H    -3.180009  1.562470  4.676326
Hg    1.786225  1.875643  3.410745
