30
Energy: -572553.952878 eV PBE+vdW (tier 2 basis)
C    0.299798  -0.332839  1.438285
C    -0.613088  0.465506  2.286090
O    -0.156476  1.498941  2.888329
H    0.727735  0.298461  0.646917
H    -0.176676  -1.227575  1.027865
H    1.150817  -0.645971  2.067032
N    -1.922695  0.112786  2.459332
C    -2.892677  -0.087563  1.364799
C    -2.548130  0.897906  0.231498
O    -2.084136  2.032873  0.524806
H    -2.327026  0.427919  3.341511
H    -2.856324  -1.129390  1.021137
C    -4.339687  0.195581  1.875126
C    -4.915835  1.650834  1.802097
C    -4.863462  2.564828  3.012897
O    -3.858151  3.284178  3.382015
N    -5.965284  2.717441  3.725868
H    -4.445689  -0.228515  2.884770
H    -5.001531  -0.412093  1.246210
H    -5.977295  1.545361  1.545358
H    -4.467386  2.213099  0.970838
H    -5.976590  3.359500  4.518478
H    -6.839847  2.268473  3.469378
N    -2.797475  0.554560  -1.029002
C    -3.273995  -0.734959  -1.546403
H    -2.595404  1.286885  -1.710217
H    -2.602721  -1.554203  -1.261021
H    -3.284208  -0.674328  -2.637994
H    -4.295400  -0.952594  -1.210831
Hg    -1.859162  2.842901  2.877830
