30
Energy: -572554.048574 eV PBE+vdW (tier 2 basis)
C    -1.505605  -2.688442  0.462247
C    -1.204307  -1.679353  1.526275
O    -0.017043  -1.247453  1.605866
H    -2.542741  -3.040444  0.496351
H    -0.821682  -3.539773  0.574063
H    -1.304161  -2.240375  -0.520559
N    -2.218066  -1.289109  2.340676
C    -2.050427  -0.235613  3.326806
C    -1.446137  -0.758331  4.650992
O    -0.206703  -0.584855  4.866912
H    -3.129888  -1.713523  2.187480
H    -1.234793  0.344601  2.901958
C    -3.148514  0.845667  3.417454
C    -2.662602  2.136957  2.705338
C    -1.454923  2.842242  3.327870
O    -0.243756  2.447893  3.271157
N    -1.689874  3.996383  3.943240
H    -3.390870  1.060233  4.466914
H    -4.081448  0.515634  2.941014
H    -3.496435  2.848059  2.659229
H    -2.397985  1.902712  1.662652
H    -2.609142  4.427151  3.950499
H    -0.913846  4.525830  4.337227
N    -2.215751  -1.388229  5.522057
C    -1.741840  -1.955711  6.791504
H    -3.210978  -1.454136  5.322800
H    -2.342821  -2.839917  7.024098
H    -1.847350  -1.220822  7.599637
H    -0.689448  -2.235480  6.691628
Hg    0.806141  0.398201  3.026615
