30
Energy: -572553.983719 eV PBE+vdW (tier 2 basis)
C    0.597562  -0.465175  0.196786
C    0.466433  0.271296  1.493347
O    1.542611  0.842071  1.906418
H    1.447546  -1.156306  0.248269
H    0.816390  0.263044  -0.598372
H    -0.320454  -1.006336  -0.058967
N    -0.723948  0.300345  2.099078
C    -1.129494  1.150966  3.228143
C    -0.807928  0.467099  4.578189
O    0.134774  0.939485  5.335453
H    -1.451344  -0.339292  1.761827
H    -0.481194  2.042014  3.193417
C    -2.550093  1.766904  3.055198
C    -3.839139  0.995767  3.401751
C    -3.981683  -0.349547  2.719711
O    -3.025358  -1.168996  2.773798
N    -5.117786  -0.641019  2.092409
H    -2.593936  2.113812  2.012009
H    -2.554595  2.677454  3.670223
H    -4.684360  1.657088  3.169871
H    -3.899146  0.812762  4.486743
H    -5.895449  0.008731  2.044035
H    -5.243625  -1.565188  1.685148
N    -1.490376  -0.591637  4.931038
C    -1.269021  -1.381486  6.139687
H    -2.199540  -0.913340  4.213127
H    -0.246668  -1.244163  6.504185
H    -1.460701  -2.433138  5.901673
H    -1.970347  -1.066378  6.924933
Hg    1.757868  1.528168  3.982871
