30
Energy: -572554.165247 eV PBE+vdW (tier 2 basis)
C    2.313232  -0.267676  2.740863
C    1.227749  0.348920  3.566597
O    1.351669  0.604946  4.769139
H    3.158849  0.433711  2.705930
H    2.009867  -0.508729  1.716085
H    2.674641  -1.173904  3.242173
N    0.034921  0.645325  2.924507
C    -0.984673  1.437307  3.594551
C    -1.826078  0.549800  4.580232
O    -3.097473  0.202862  4.516373
H    -0.093144  0.330026  1.969399
H    -0.426768  2.073111  4.302517
C    -1.676314  2.449600  2.641596
C    -2.117798  1.997638  1.200727
C    -3.475625  2.507907  0.750516
O    -4.578427  2.151868  1.336041
N    -3.581841  3.310342  -0.283501
H    -0.944493  3.255261  2.500874
H    -2.495873  2.953808  3.182992
H    -2.180315  0.899150  1.103147
H    -1.355402  2.308648  0.476711
H    -2.770012  3.624478  -0.808860
H    -4.501045  3.624595  -0.599037
N    -1.145871  0.096865  5.595032
C    -1.659402  -0.772141  6.657012
H    -0.115467  0.329568  5.551689
H    -1.761580  -1.801681  6.289382
H    -2.635568  -0.415618  7.001973
H    -0.942813  -0.752534  7.481994
Hg    -4.184738  1.044180  3.032115
