30
Energy: -572554.013234 eV PBE+vdW (tier 2 basis)
C    1.889288  0.008122  2.310668
C    0.706135  0.437174  3.124448
O    0.755107  1.162886  4.103827
H    1.658657  -0.758668  1.562508
H    2.669113  -0.362200  2.987396
H    2.306696  0.890022  1.805169
N    -0.554573  -0.064973  2.719759
C    -1.709977  0.478917  3.395727
C    -2.546659  -0.638292  4.045890
O    -3.804361  -0.551066  4.420829
H    -0.642107  -0.523825  1.817159
H    -1.225291  0.972661  4.278699
C    -2.375530  1.674656  2.660058
C    -2.987650  1.462033  1.231988
C    -4.299974  2.188711  0.995198
O    -5.371835  1.938591  1.686835
N    -4.405538  3.091227  0.047236
H    -1.567396  2.412892  2.566531
H    -3.076663  2.191538  3.339859
H    -3.197172  0.397122  1.024665
H    -2.259653  1.765264  0.470502
H    -3.620889  3.339419  -0.549730
H    -5.297562  3.558295  -0.123442
N    -1.907643  -1.725552  4.403683
C    -2.454413  -2.845403  5.174256
H    -0.912833  -1.734332  4.167090
H    -2.267594  -2.684779  6.244462
H    -1.951725  -3.763019  4.854202
H    -3.531181  -2.925507  5.004108
Hg    -4.967768  0.618784  3.225306
