30
Energy: -572553.978987 eV PBE+vdW (tier 2 basis)
C    1.220319  -0.095826  -0.231522
C    0.886427  0.379073  1.146706
O    1.752185  1.135133  1.707657
H    0.432979  -0.720750  -0.667246
H    2.171511  -0.643753  -0.207420
H    1.376217  0.783747  -0.873833
N    -0.279913  -0.005342  1.695860
C    -1.060342  0.610611  2.798656
C    -0.888402  -0.190663  4.108825
O    0.234466  -0.158865  4.769941
H    -0.813647  -0.663089  1.129163
H    -0.629700  1.609051  2.992039
C    -2.494772  0.809339  2.264951
C    -3.512750  1.498631  3.202234
C    -4.619042  0.539757  3.638634
O    -4.341543  -0.646210  3.930482
N    -5.865646  1.001071  3.705358
H    -2.890791  -0.167042  1.946409
H    -2.391930  1.411054  1.352672
H    -3.940494  2.379197  2.709078
H    -3.041232  1.870841  4.126161
H    -6.113686  1.944593  3.429531
H    -6.610446  0.384755  4.022879
N    -1.854468  -0.923998  4.583052
C    -1.751406  -1.711039  5.818242
H    -2.848474  -0.869239  4.153716
H    -2.738220  -2.133106  6.023848
H    -1.431846  -1.078916  6.655569
H    -1.024693  -2.522605  5.690302
Hg    1.786338  1.068591  3.905058
