30
Energy: -572554.506916 eV PBE+vdW (tier 2 basis)
C    -0.229829  -0.900422  -0.162083
C    -0.331011  0.158440  0.879431
O    0.768871  0.847851  1.057885
H    0.588978  -1.584476  0.104909
H    0.034931  -0.444615  -1.125873
H    -1.160430  -1.469352  -0.258058
N    -1.457408  0.329919  1.542556
C    -1.786872  1.119315  2.733887
C    -2.996835  0.304454  3.333113
O    -3.691509  -0.314413  2.530644
H    -2.278720  -0.271342  1.320226
H    -0.939295  1.103046  3.441319
C    -2.258099  2.575249  2.394313
C    -2.077151  3.621321  3.525261
C    -0.947113  4.628222  3.410220
O    0.250553  4.378983  2.977867
N    -1.151450  5.855437  3.837386
H    -3.326589  2.523227  2.144739
H    -1.800621  2.924001  1.452675
H    -1.919750  3.121930  4.497020
H    -3.010400  4.184223  3.646852
H    -2.052010  6.155888  4.201542
H    -0.392259  6.537567  3.827886
N    -3.211237  0.403859  4.651777
C    -4.332113  -0.274600  5.316279
H    -2.482638  0.790596  5.242659
H    -4.634015  0.309846  6.190725
H    -4.042201  -1.284508  5.632990
H    -5.167817  -0.347176  4.614863
Hg    0.675040  2.607527  2.054988
