30
Energy: -572554.426074 eV PBE+vdW (tier 2 basis)
C    0.341108  0.200863  -0.110908
C    -0.418912  -0.525865  0.944712
O    -0.787668  -1.733958  0.597966
H    0.622819  1.209486  0.208537
H    -0.285952  0.267829  -1.012521
H    1.235415  -0.373805  -0.386777
N    -0.658631  0.062815  2.103355
C    -1.662061  -0.144940  3.165316
C    -2.202805  1.341065  3.350619
O    -1.430644  2.245437  3.032812
H    -0.396949  1.076907  2.174817
H    -2.488887  -0.782440  2.811395
C    -1.085657  -0.570930  4.543686
C    -0.406661  -1.954248  4.779044
C    -1.314563  -3.156047  4.919720
O    -1.801162  -3.813526  3.909086
N    -1.646773  -3.595895  6.113660
H    -1.890840  -0.445001  5.281313
H    -0.325770  0.178489  4.807078
H    0.176910  -1.860310  5.705433
H    0.341422  -2.174984  3.998670
H    -1.275542  -3.177144  6.962581
H    -2.250070  -4.413345  6.213441
N    -3.423713  1.483010  3.871692
C    -4.034061  2.790019  4.144780
H    -3.991276  0.657555  4.036465
H    -4.349435  2.840214  5.193043
H    -4.903437  2.941116  3.494044
H    -3.292220  3.567860  3.947636
Hg    -1.383106  -2.967045  2.089559
