36
Energy: -246328.975557 eV PBE+vdW (tier 2 basis)
C    0.323101  -0.584749  -0.028132
C    0.032966  -0.346488  1.418369
O    0.850022  -0.743254  2.322008
H    0.391241  -1.667271  -0.203628
H    1.297870  -0.151393  -0.286965
H    -0.443008  -0.166503  -0.688544
N    -1.083885  0.275586  1.755884
C    -1.538260  0.527041  3.120047
C    -3.039393  0.887278  2.937658
O    -3.351459  1.480848  1.905915
H    -1.732809  0.657112  1.054277
H    -1.392421  -0.392193  3.704400
C    -0.764853  1.716867  3.745323
C    -0.945860  1.905562  5.254071
C    -0.374258  0.812896  6.156551
N    1.129472  0.872228  6.252267
C    1.662105  -0.109096  7.152121
N    1.877609  0.265518  8.425020
N    1.914699  -1.268684  6.608065
H    -1.083170  2.631257  3.225079
H    0.304168  1.605792  3.498782
H    -2.015096  2.000570  5.489206
H    -0.514569  2.877008  5.543234
H    -0.634127  -0.194236  5.804198
H    -0.806607  0.913940  7.164447
H    1.394177  1.814390  6.553299
H    2.311471  -0.364085  9.093334
H    1.512421  1.135331  8.796860
H    2.179665  -1.995614  7.276555
N    -3.927772  0.574463  3.906478
C    -3.770860  -0.279766  5.076098
H    -4.868766  0.902470  3.695587
H    -3.015318  -1.055027  4.903887
H    -4.719936  -0.792360  5.265610
H    -3.510250  0.288749  5.980814
Ba    2.464822  -0.675360  4.096533
