36
Energy: -246329.332907 eV PBE+vdW (tier 2 basis)
C    0.390132  -1.180441  0.726586
C    0.022523  -0.464586  2.002612
O    0.955730  0.166168  2.626094
H    -0.161268  -0.778120  -0.133167
H    0.159840  -2.253815  0.787026
H    1.460364  -1.060344  0.538550
N    -1.178266  -0.480267  2.605007
C    -2.194663  -1.493297  2.291987
C    -1.680690  -2.865564  2.796192
O    -0.864569  -2.887319  3.761070
H    -0.893552  3.063834  2.195132
H    -3.016157  -1.282869  3.001144
C    -2.839361  -1.479477  0.882581
C    -3.068816  -0.069187  0.320628
C    -3.900533  0.850937  1.230868
N    -3.752368  2.268478  0.896634
C    -2.696605  3.019614  1.241648
N    -2.642695  4.304189  0.855286
N    -1.705275  2.499614  1.977714
H    -3.806468  -2.004453  0.941520
H    -2.225158  -2.031144  0.157709
H    -3.559553  -0.151284  -0.658724
H    -2.096624  0.405798  0.129286
H    -3.629743  0.726719  2.289121
H    -4.969553  0.616822  1.161765
H    -4.456087  2.692090  0.302185
H    -1.863160  4.899576  1.104269
H    -3.414024  4.745613  0.370233
H    -1.642700  1.496015  2.203631
N    -2.148827  -3.978440  2.239702
C    -1.829482  -5.335724  2.681248
H    -2.793368  -3.881914  1.460941
H    -2.737338  -5.837306  3.037865
H    -1.100583  -5.280925  3.492728
H    -1.408017  -5.908330  1.846818
Ba    0.303659  -0.876763  4.788158
