36
Energy: -246329.149309 eV PBE+vdW (tier 2 basis)
C    -1.483723  -0.960772  0.253556
C    -1.277388  0.377153  0.889805
O    -0.650591  1.286997  0.246006
H    -0.509832  -1.413241  0.024024
H    -1.995463  -0.810478  -0.706656
H    -2.068247  -1.656915  0.860641
N    -1.734926  0.655888  2.100742
C    -2.397258  -0.177318  3.100700
C    -3.020338  0.873293  4.066170
O    -2.542462  2.017636  4.075046
H    -1.669844  1.626047  2.456858
H    -3.185762  -0.783342  2.633526
C    -1.396176  -1.095676  3.846198
C    -0.338863  -0.336190  4.679877
C    1.126298  -0.666621  4.369146
N    1.543351  -0.483282  2.962779
C    1.920514  0.659949  2.359028
N    1.510300  1.895843  2.909633
N    2.570289  0.773563  1.222163
H    -0.916186  -1.744675  3.098823
H    -1.973295  -1.768976  4.493422
H    -0.480465  -0.553268  5.747252
H    -0.512165  0.748374  4.604420
H    1.331597  -1.719457  4.599015
H    1.788578  -0.076400  5.018736
H    1.770057  -1.331890  2.453638
H    2.307003  2.460651  3.206689
H    0.827253  1.834251  3.663923
H    3.001858  -0.096122  0.903389
N    -4.005632  0.441051  4.862642
C    -4.668828  1.278552  5.860824
H    -4.353252  -0.504160  4.733577
H    -5.722948  1.424012  5.595270
H    -4.166359  2.248801  5.886586
H    -4.608251  0.807104  6.848737
Ba    1.286389  2.689859  0.007972
