36
Energy: -246328.823948 eV PBE+vdW (tier 2 basis)
C    -0.892628  0.920943  0.304634
C    -0.769471  0.589150  1.760824
O    -0.210538  -0.492657  2.117658
H    -1.330998  1.905741  0.112787
H    -1.519794  0.154478  -0.172720
H    0.093394  0.866501  -0.173492
N    -1.270173  1.465728  2.641566
C    -1.490068  1.350177  4.096138
C    -0.208206  1.395400  4.942583
O    0.828154  0.711129  4.631806
H    -1.668634  2.304306  2.228942
H    -2.036191  2.273368  4.328454
C    -2.373630  0.146648  4.503218
C    -3.824672  0.161574  3.990198
C    -4.681896  1.409630  4.320605
N    -4.526361  1.912474  5.689192
C    -3.568614  2.850032  6.018888
N    -3.398995  3.874992  5.093806
N    -2.769955  2.824272  7.047203
H    -2.374745  0.121038  5.602309
H    -1.899897  -0.790854  4.177058
H    -4.313251  -0.728508  4.413469
H    -3.852356  0.017255  2.899085
H    -5.737423  1.164101  4.144936
H    -4.443646  2.228598  3.632434
H    -4.697193  1.227491  6.420442
H    -2.868810  4.648395  5.488552
H    -4.251051  4.196701  4.641077
H    -2.931861  2.000321  7.632769
N    -0.253041  2.127203  6.035303
C    0.848870  2.207158  6.991246
H    -1.175138  2.557216  6.348831
H    0.552722  2.894732  7.788216
H    1.067341  1.223867  7.428626
H    1.754185  2.587690  6.503858
Ba    1.673740  -1.196300  3.465132
