36
Energy: -246328.625543 eV PBE+vdW (tier 2 basis)
C    -0.099393  -0.411359  -0.166553
C    -0.168856  -0.163195  1.305008
O    0.849514  0.245826  1.944092
H    0.701609  -1.132015  -0.377407
H    0.172475  0.526445  -0.670731
H    -1.038558  -0.783458  -0.588484
N    -1.329484  -0.370908  1.940970
C    -1.570577  -0.042895  3.354893
C    -0.832224  -1.040754  4.276707
O    0.264038  -0.641613  4.807141
H    -2.129762  -0.668133  1.387708
H    -1.052256  0.908750  3.547702
C    -3.065216  0.179215  3.617704
C    -3.372082  0.472875  5.086673
C    -4.869598  0.696522  5.357748
N    -5.753652  -0.329732  4.810413
C    -5.889407  -1.569838  5.416704
N    -7.135296  -2.136954  5.259608
N    -4.855214  -2.116602  5.984044
H    -3.659036  -0.686604  3.293905
H    -3.375144  1.025716  2.984312
H    -2.835529  1.375923  5.419492
H    -3.042351  -0.363072  5.717893
H    -5.186172  1.648781  4.910972
H    -5.003066  0.784914  6.447462
H    -6.583065  0.020130  4.346394
H    -7.283216  -3.049545  5.673638
H    -7.956202  -1.540797  5.264912
H    -5.124310  -2.963773  6.489632
N    -1.257501  -2.269030  4.504252
C    -2.468482  -2.957594  4.046772
H    -0.674454  -2.783986  5.164393
H    -2.284148  -4.033158  4.128296
H    -2.672158  -2.728658  2.996355
H    -3.333819  -2.680312  4.687639
Ba    2.223432  0.474936  3.940682
