36
Energy: -246328.007924 eV PBE+vdW (tier 2 basis)
C    -0.026366  0.476067  -0.300735
C    -0.032241  -0.016379  1.105989
O    1.039788  -0.400178  1.682245
H    0.084401  1.573735  -0.320227
H    -0.962762  0.214018  -0.823509
H    0.839215  0.049025  -0.816562
N    -1.169070  0.004790  1.830650
C    -2.199880  1.018587  1.696164
C    -1.579999  2.367642  2.136871
O    -0.449895  2.396875  2.728597
H    -1.129385  -0.485031  2.722998
H    -2.462029  1.081712  0.626619
C    -3.478214  0.655996  2.505517
C    -4.672052  0.174862  1.661745
C    -4.767263  -1.336521  1.361908
N    -3.516798  -2.021261  1.046376
C    -2.771132  -1.755402  -0.088322
N    -1.619386  -2.525510  -0.212223
N    -2.957616  -0.794394  -0.938920
H    -3.791632  1.537054  3.080397
H    -3.209748  -0.100881  3.259039
H    -4.707702  0.757696  0.730550
H    -5.597163  0.435055  2.194898
H    -5.518909  -1.480156  0.566969
H    -5.161174  -1.842580  2.252192
H    -3.467220  -2.971727  1.399748
H    -1.312992  -2.612445  -1.176976
H    -1.591191  -3.409436  0.285844
H    -3.879629  -0.369160  -0.837831
N    -2.221122  3.498017  1.876362
C    -3.492228  3.681921  1.171707
H    -1.768444  4.339369  2.231905
H    -3.612301  2.930699  0.384832
H    -3.484048  4.670815  0.703534
H    -4.341838  3.626027  1.863972
Ba    1.729851  1.344478  3.257882
