36
Energy: -246329.82083 eV PBE+vdW (tier 2 basis)
C    0.124040  1.208035  3.274214
C    -0.828391  0.199976  3.835899
O    -0.645228  -0.311751  4.970156
H    0.223956  2.038840  3.984668
H    -0.180306  1.601526  2.298753
H    1.116990  0.748130  3.180100
N    -1.898702  -0.149135  3.090596
C    -2.918614  -1.088826  3.553498
C    -2.457114  -2.552187  3.384394
O    -1.974224  -3.142175  4.388426
H    -2.012014  0.285342  2.178917
H    -2.970748  -0.950859  4.640652
C    -4.312477  -0.765776  3.008009
C    -4.971972  0.420690  3.729343
C    -5.063717  0.269341  5.259745
N    -3.978423  0.981247  5.972710
C    -3.568768  0.626986  7.238227
N    -3.507543  1.635881  8.140969
N    -3.198183  -0.619454  7.507469
H    -4.943070  -1.656695  3.145689
H    -4.283742  -0.578502  1.921847
H    -5.987115  0.531625  3.327317
H    -4.453964  1.360434  3.484759
H    -5.029922  -0.783171  5.568812
H    -6.031500  0.663377  5.604890
H    -4.018936  1.988994  5.835095
H    -3.048516  1.505207  9.034455
H    -4.066693  2.475387  8.039188
H    -3.245335  -0.760201  8.522708
N    -2.579376  -3.128951  2.193832
C    -2.171990  -4.497633  1.876183
H    -3.008157  -2.588654  1.447290
H    -3.033360  -5.062774  1.501298
H    -1.791198  -4.972144  2.783254
H    -1.388218  -4.486587  1.109182
Ba    -1.210123  -2.134205  6.596349
