36
Energy: -246328.08308 eV PBE+vdW (tier 2 basis)
C    -0.668559  1.235717  0.077948
C    -0.503142  0.822722  1.502839
O    0.597878  0.998938  2.109993
H    -0.541559  2.326036  0.013910
H    -1.644358  0.968358  -0.340248
H    0.124752  0.783918  -0.531207
N    -1.545327  0.271307  2.140814
C    -1.570759  -0.012194  3.582945
C    -0.720396  -1.256129  3.916914
O    0.456515  -1.054583  4.367191
H    -2.425119  0.200828  1.634250
H    -1.017704  0.806165  4.069257
C    -3.006519  0.032920  4.129826
C    -3.552259  1.463962  4.140958
C    -5.006191  1.569505  4.645566
N    -5.536109  2.919949  4.521664
C    -5.672435  3.489870  3.243900
N    -6.437224  2.708022  2.375596
N    -5.076893  4.601920  2.998689
H    -2.998146  -0.383278  5.148837
H    -3.667132  -0.617208  3.537100
H    -3.519648  1.897530  3.128372
H    -2.908161  2.101749  4.768095
H    -5.070440  1.269733  5.701351
H    -5.645358  0.877199  4.080059
H    -5.065847  3.595267  5.122591
H    -7.255160  2.276777  2.801797
H    -6.670261  3.168666  1.501225
H    -5.384127  5.019831  2.115055
N    -1.151711  -2.499509  3.760099
C    -2.424693  -3.003450  3.236718
H    -0.483403  -3.205780  4.069014
H    -2.258580  -4.024163  2.879328
H    -2.769251  -2.401445  2.391067
H    -3.193302  -3.026874  4.018594
Ba    2.268225  0.484390  3.794989
