36
Energy: -246328.533217 eV PBE+vdW (tier 2 basis)
C    -0.213371  1.427546  0.616247
C    0.250061  0.437727  1.642525
O    1.486393  0.190976  1.776363
H    -0.097354  2.454758  0.993671
H    -1.256075  1.283529  0.317116
H    0.434519  1.330188  -0.262666
N    -0.650886  -0.198142  2.423735
C    -1.763392  0.518359  3.066196
C    -1.185735  1.189730  4.356069
O    0.077214  1.568052  4.263406
H    -0.229789  -0.927020  3.001655
H    -2.027880  1.345519  2.389951
C    -2.998273  -0.380787  3.251850
C    -4.324123  0.379142  3.061187
C    -5.579720  -0.337386  3.624684
N    -6.237113  0.425172  4.703365
C    -5.554236  0.917712  5.746082
N    -5.960202  2.030680  6.370356
N    -4.427742  0.310985  6.180050
H    -2.948723  -0.853984  4.241336
H    -2.938047  -1.192634  2.514511
H    -4.473324  0.563299  1.988228
H    -4.251262  1.371769  3.526631
H    -5.338234  -1.352701  3.974933
H    -6.341481  -0.467159  2.849113
H    -7.192029  0.735464  4.551151
H    -5.629575  2.217300  7.310267
H    -6.688070  2.626720  5.993775
H    -4.353808  -0.659597  5.888091
N    -1.928432  1.356085  5.396646
C    -1.323332  2.047003  6.535446
H    -3.507640  0.810895  6.018559
H    -0.463568  1.490039  6.940018
H    -2.062665  2.144001  7.338365
H    -0.973231  3.053988  6.263745
Ba    2.360546  1.372508  3.799343
