36
Energy: -246328.417723 eV PBE+vdW (tier 2 basis)
C    0.100272  0.041218  0.092586
C    0.098481  -0.219572  1.568670
O    1.208035  -0.395325  2.160109
H    -0.725901  0.675951  -0.234907
H    0.047309  -0.907386  -0.462798
H    1.052765  0.519622  -0.160105
N    -1.041168  -0.228525  2.306651
C    -2.261784  -1.019786  2.028692
C    -1.930205  -2.507483  2.351826
O    -0.693803  -2.896816  2.105527
H    -0.810382  -0.251933  3.301236
H    -2.986704  -0.682271  2.780019
C    -2.873028  -0.793472  0.629031
C    -4.299399  -1.339392  0.464978
C    -5.412011  -0.500140  1.137908
N    -6.522359  -1.342370  1.614285
C    -6.316390  -2.299161  2.534454
N    -7.032623  -3.428353  2.528221
N    -5.366121  -2.147587  3.485665
H    -2.245903  -1.271605  -0.133530
H    -2.861694  0.286810  0.421107
H    -4.331305  -2.365654  0.855104
H    -4.516465  -1.418141  -0.608297
H    -5.843384  0.223832  0.438033
H    -5.024867  0.100403  1.973837
H    -7.369276  -1.375838  1.054185
H    -7.076234  -3.988612  3.372440
H    -7.629813  -3.687920  1.751436
H    -5.109262  -1.176403  3.639991
N    -2.859836  -3.245553  2.860643
C    -2.538688  -4.643206  3.138991
H    -4.489252  -2.742708  3.396636
H    -2.077703  -5.145902  2.276064
H    -3.454300  -5.180923  3.407467
H    -1.845762  -4.730457  3.991835
Ba    1.612918  -2.831719  2.513435
