36
Energy: -246328.953386 eV PBE+vdW (tier 2 basis)
C    -0.616514  -0.321527  1.268033
C    -0.596157  -0.399026  2.758706
O    -0.728098  -1.482472  3.372743
H    0.235132  -0.916668  0.904546
H    -0.509843  0.695588  0.880150
H    -1.522664  -0.794430  0.870540
N    -0.399197  0.743077  3.501428
C    -1.140664  2.010268  3.354173
C    -2.454487  1.729571  2.606247
O    -3.154847  0.767782  3.034676
H    -0.103193  0.535866  4.453314
H    -1.557797  2.174705  4.362327
C    -0.277436  3.234940  3.082880
C    0.710278  3.499208  4.245497
C    0.115151  3.475525  5.679663
N    0.284372  2.191678  6.387598
C    -0.624200  1.214147  6.626682
N    -0.110233  -0.026882  7.009237
N    -1.926458  1.237702  6.419607
H    -0.936699  4.112528  2.987092
H    0.287189  3.139853  2.144477
H    1.159802  4.486994  4.082423
H    1.544843  2.784672  4.199127
H    -0.946422  3.759132  5.692201
H    0.623621  4.230451  6.291201
H    1.207095  2.052825  6.790765
H    -0.579397  -0.431681  7.816695
H    0.900717  -0.123330  7.073059
H    -2.304665  2.185843  6.373113
N    -2.826594  2.522355  1.611436
C    -4.094559  2.424974  0.888170
H    -2.182689  3.257746  1.331607
H    -4.649660  3.365553  0.984035
H    -4.681515  1.606360  1.310484
H    -3.901695  2.230117  -0.173606
Ba    -2.732609  -0.916365  4.968535
