36
Energy: -246330.133745 eV PBE+vdW (tier 2 basis)
C    1.663656  0.024504  0.827604
C    0.911469  0.053628  2.120160
O    1.505042  -0.003685  3.228449
H    2.266334  -0.891962  0.781128
H    2.364770  0.869766  0.807230
H    1.017613  0.074667  -0.055013
N    -0.435412  0.150965  2.074429
C    -1.243266  0.285191  3.286243
C    -1.393027  -1.079735  4.001516
O    -0.708392  -1.307710  5.036200
H    -0.886181  0.218078  1.165810
H    -0.652391  0.895521  3.978161
C    -2.565905  1.021266  3.030862
C    -3.399889  1.281635  4.299796
C    -2.807314  2.262010  5.322362
N    -1.638732  1.710184  6.011279
C    -0.555688  2.393887  6.469226
N    -0.659478  3.742027  6.553815
N    0.553703  1.713835  6.747272
H    -3.187094  0.464756  2.309370
H    -2.325694  1.978182  2.542714
H    -3.648684  0.332291  4.802451
H    -4.366171  1.697406  3.983643
H    -3.594961  2.531418  6.044111
H    -2.496817  3.186123  4.813717
H    -1.666723  0.730798  6.273631
H    0.150807  4.292762  6.808925
H    -1.559672  4.192889  6.668227
H    1.183550  2.294709  7.307580
N    -2.240388  -1.968137  3.492612
C    -2.474465  -3.309885  4.026032
H    -2.761374  -1.702914  2.661141
H    -2.015494  -4.065087  3.375333
H    -3.552572  -3.495853  4.082901
H    -2.038834  -3.375865  5.025761
Ba    1.604675  -0.451666  5.713324
