36
Energy: -246327.608226 eV PBE+vdW (tier 2 basis)
C    -1.220151  -0.399671  -0.675991
C    -0.876428  0.159632  0.658411
O    0.188298  0.840588  0.823252
H    -1.377773  -1.486045  -0.640251
H    -0.415335  -0.175332  -1.381092
H    -2.167591  0.040928  -1.058700
N    -1.677756  -0.017117  1.738790
C    -2.368141  -1.252692  2.123916
C    -1.281661  -2.345890  2.354454
O    -0.046718  -2.037250  2.357577
H    -1.429565  0.590639  2.516888
H    -2.790229  -1.033249  3.117585
C    -3.543608  -1.674097  1.213820
C    -4.476993  -0.506201  0.884824
C    -5.388156  -0.778427  -0.331292
N    -5.892911  0.445207  -0.935481
C    -5.011078  1.393299  -1.455244
N    -3.996984  0.831584  -2.273675
N    -5.161575  2.627578  -1.148113
H    -4.112178  -2.464919  1.728177
H    -3.163489  -2.127506  0.287202
H    -3.878620  0.385668  0.651233
H    -5.083217  -0.238363  1.762925
H    -6.248920  -1.400471  -0.053804
H    -4.828348  -1.350867  -1.086527
H    -6.615577  0.918264  -0.395911
H    -3.534131  1.549544  -2.827578
H    -4.350797  0.102229  -2.894969
H    -4.583230  3.255205  -1.713702
N    -1.700991  -3.580587  2.572475
C    -0.861788  -4.739150  2.877259
H    -2.705612  -3.739621  2.537016
H    -1.048627  -5.531062  2.142476
H    -1.102618  -5.116982  3.878447
H    0.188754  -4.445165  2.840011
Ba    1.838629  -0.444079  2.101328
