36
Energy: -246328.579221 eV PBE+vdW (tier 2 basis)
C    -0.635746  -1.427064  -0.255751
C    -0.251064  -0.866582  1.077194
O    0.885496  -0.326841  1.244669
H    -0.663953  -0.602014  -0.982082
H    -1.609080  -1.928558  -0.253719
H    0.133066  -2.129386  -0.601136
N    -1.143375  -0.939628  2.072637
C    -1.068966  -0.284089  3.389343
C    -0.208472  -1.112327  4.371368
O    1.029875  -1.271763  4.097106
H    -2.024124  -1.403133  1.863117
H    -0.495548  0.645848  3.244279
C    -2.485065  0.085166  3.856951
C    -3.538142  -1.047259  3.810673
C    -4.463343  -1.030528  5.039322
N    -3.718829  -1.304261  6.276099
C    -3.487155  -2.607990  6.789451
N    -3.653193  -3.637227  5.870963
N    -2.991165  -2.859536  7.945299
H    -2.823829  0.932338  3.245886
H    -2.397828  0.478793  4.880291
H    -3.063705  -2.041549  3.768913
H    -4.159706  -0.955148  2.908324
H    -5.300731  -1.730103  4.891894
H    -4.922430  -0.038731  5.145161
H    -3.923487  -0.652020  7.027715
H    -3.545701  -4.541714  6.325438
H    -4.492920  -3.605910  5.299121
H    -2.843485  -2.019657  8.511403
N    -0.734786  -1.598291  5.472527
C    0.019948  -2.382443  6.454606
H    -1.727174  -1.405195  5.690350
H    -0.701102  -2.881943  7.110309
H    0.664807  -1.725936  7.053799
H    0.641778  -3.123488  5.941828
Ba    2.837167  -0.574648  2.660138
