36
Energy: -246328.496375 eV PBE+vdW (tier 2 basis)
C    1.312724  0.278218  0.798225
C    0.343721  1.052285  1.635384
O    0.567541  2.289852  1.891027
H    2.035920  -0.239859  1.447146
H    1.867164  0.969869  0.156442
H    0.793924  -0.481502  0.186486
N    -0.707029  0.393005  2.114895
C    -1.907035  0.853790  2.814352
C    -1.768676  2.073921  3.714289
O    -0.740621  2.307399  4.423179
H    -0.808507  -0.616402  1.809361
H    -2.658993  1.091483  2.044959
C    -2.483601  -0.289623  3.707824
C    -3.182329  -1.456365  2.979213
C    -2.293394  -2.623876  2.531837
N    -1.340934  -2.271612  1.470439
C    -1.712825  -2.141808  0.096024
N    -3.035249  -2.385361  -0.193931
N    -0.787685  -1.712831  -0.684795
H    -3.221655  0.169614  4.380223
H    -1.673689  -0.651752  4.359250
H    -3.760784  -1.075082  2.123888
H    -3.922867  -1.875278  3.675461
H    -2.934381  -3.478787  2.257594
H    -1.694194  -2.974104  3.383521
H    -0.465453  -2.788151  1.523104
H    -3.522901  -3.113779  0.318448
H    -3.288237  -2.347708  -1.175838
H    -1.063383  -1.710373  -1.669165
N    -2.831889  2.874986  3.821312
C    -4.128016  2.785386  3.140584
H    -2.751264  3.577782  4.553635
H    -4.001628  2.762280  2.051959
H    -4.703686  3.679314  3.396187
H    -4.696327  1.904788  3.466155
Ba    1.338881  3.444808  3.815383
