36
Energy: -246328.981877 eV PBE+vdW (tier 2 basis)
C    -1.645650  -1.255600  0.239114
C    -1.473294  -0.949057  1.573295
O    -0.322780  -1.021046  2.179219
H    -2.593899  -1.139956  -0.280696
H    -2.587247  -3.555783  1.164291
H    -0.867138  -1.819956  -0.274758
N    -2.547035  -0.443418  2.377419
C    -3.363842  0.685329  1.888818
C    -2.528489  1.985625  2.023916
O    -1.340440  2.004774  1.596249
H    -2.168907  -0.259953  3.309701
H    -3.485006  0.547862  0.803651
C    -4.767953  0.714304  2.520030
C    -5.762526  -0.364451  2.030885
C    -5.733995  -1.745558  2.698476
N    -4.513074  -2.481503  2.380936
C    -4.401149  -3.777182  2.096633
N    -5.399599  -4.642351  2.334645
N    -3.261237  -4.220209  1.536158
H    -5.235583  1.674449  2.254140
H    -4.691815  0.693771  3.619560
H    -5.673299  -0.487686  0.940349
H    -6.774153  0.028167  2.204246
H    -6.599015  -2.315136  2.332633
H    -5.842539  -1.644663  3.790836
H    -3.652900  -1.899735  2.393486
H    -5.379961  -5.581327  1.956505
H    -6.158359  -4.411273  2.962497
H    -3.012062  -5.201005  1.550144
N    -3.061957  3.061066  2.592143
C    -2.353609  4.332427  2.747447
H    -4.012812  3.002946  2.939741
H    -3.038481  5.059179  3.191625
H    -2.017817  4.702785  1.771929
H    -1.483244  4.210455  3.403446
Ba    0.647536  0.696281  0.794621
