36
Energy: -246330.065003 eV PBE+vdW (tier 2 basis)
C    -2.317895  2.344797  0.144453
C    -1.806013  1.164488  0.909151
O    -0.892158  0.433470  0.449937
H    -1.481086  3.029824  -0.047656
H    -3.114619  2.889889  0.661251
H    -2.686853  2.008895  -0.833388
N    -2.350783  0.910190  2.119433
C    -1.882855  -0.159515  3.006270
C    -2.511640  -1.503602  2.574080
O    -1.893296  -2.223887  1.748260
H    -3.090585  1.524897  2.448100
H    -0.813696  -0.274507  2.787642
C    -2.030308  0.240211  4.478124
C    -1.417726  -0.730912  5.502420
C    0.093798  -1.018488  5.365978
N    0.406127  -2.217539  4.578776
C    0.962444  -2.271248  3.349665
N    0.963065  -3.528704  2.705604
N    1.412099  -1.290066  2.607502
H    -3.090024  0.402185  4.738778
H    -1.552978  1.226099  4.589309
H    -1.960983  -1.687975  5.511069
H    -1.583457  -0.290785  6.494886
H    0.524870  -1.170503  6.363395
H    0.627763  -0.158220  4.940664
H    0.291764  -3.100435  5.067718
H    0.442777  -4.268855  3.173320
H    1.907544  -3.842199  2.480302
H    1.565226  -0.418060  3.115573
N    -3.703956  -1.830836  3.067945
C    -4.466973  -3.022378  2.700089
H    -4.130088  -1.193289  3.734524
H    -4.750596  -3.575369  3.602947
H    -3.846736  -3.655010  2.061037
H    -5.376306  -2.736465  2.156882
Ba    0.201137  -1.832099  0.299961
