36
Energy: -246329.736094 eV PBE+vdW (tier 2 basis)
C    -1.114293  0.091907  -0.185501
C    -1.300525  -0.325597  1.243514
O    -0.878765  -1.438814  1.645971
H    -1.636793  -0.628877  -0.829494
H    -0.049000  0.037984  -0.443217
H    -1.485902  1.097889  -0.406702
N    -1.939952  0.545477  2.054863
C    -2.381381  0.357677  3.453505
C    -1.169442  0.329085  4.405750
O    -0.389127  -0.652352  4.454614
H    -2.234896  1.413342  1.618315
H    -2.955344  1.267723  3.678078
C    -3.349223  -0.833889  3.595175
C    -4.039599  -1.004939  4.963221
C    -3.342597  -1.930426  5.978550
N    -3.062847  -3.244049  5.380291
C    -1.833998  -3.757285  5.127862
N    -0.755401  -3.368321  5.944557
N    -1.482397  -4.536992  4.133443
H    -2.838966  -1.759689  3.300301
H    -4.122991  -0.671094  2.832831
H    -5.046402  -1.408687  4.781115
H    -4.211417  -0.032794  5.450125
H    -3.983770  -2.048696  6.862534
H    -2.398721  -1.487974  6.319074
H    -3.796422  -3.597012  4.770074
H    -0.226727  -4.189817  6.238737
H    -0.991967  -2.800849  6.754378
H    -2.269109  -4.867171  3.569650
N    -1.011386  1.406042  5.179390
C    0.082090  1.598969  6.129044
H    -1.670555  2.171208  5.071187
H    -0.314556  2.011207  7.063163
H    0.826976  2.294253  5.720853
H    0.558700  0.635211  6.324467
Ba    0.413183  -2.803051  3.308253
