36
Energy: -246329.931157 eV PBE+vdW (tier 2 basis)
C    -0.030513  -0.009579  0.252257
C    -0.124837  -0.091053  1.746768
O    0.901730  -0.283224  2.445785
H    0.691400  0.770508  -0.021359
H    -0.985756  0.196805  -0.241651
H    0.366971  -0.961260  -0.126225
N    -1.354041  0.047842  2.292496
C    -1.734138  -0.109830  3.711578
C    -1.152922  1.049383  4.549468
O    0.025849  1.006629  4.991020
H    -2.117371  0.186877  1.637946
H    -2.826645  -0.014579  3.720906
C    -1.371334  -1.498370  4.258113
C    -1.725712  -1.736783  5.729452
C    -1.002012  -2.974570  6.291119
N    0.453877  -2.837831  6.239355
C    1.246870  -2.131564  7.097223
N    0.849202  -2.055650  8.390252
N    2.328105  -1.540119  6.605428
H    -0.297577  -1.663251  4.104692
H    -1.880361  -2.238109  3.623049
H    -2.809474  -1.877869  5.850280
H    -1.448406  -0.869323  6.347875
H    -1.263423  -3.875269  5.720375
H    -1.332380  -3.162591  7.319780
H    0.931937  -3.166432  5.409835
H    1.385378  -1.499437  9.044517
H    0.269044  -2.781957  8.794959
H    3.002559  -1.343807  7.351266
N    -1.929145  2.103812  4.799410
C    -3.308107  2.354509  4.368811
H    -1.479555  2.830378  5.354764
H    -4.002742  1.618148  4.791646
H    -3.391635  2.366682  3.275253
H    -3.600359  3.341594  4.737545
Ba    2.310524  0.058288  4.514012
