36
Energy: -246328.38084 eV PBE+vdW (tier 2 basis)
C    -2.490425  2.059327  0.853183
C    -1.814974  1.447327  2.038733
O    -0.666005  1.875215  2.404067
H    -3.498054  1.669636  0.684541
H    -1.881361  1.904354  -0.047552
H    -2.548381  3.144724  1.013247
N    -2.442513  0.474366  2.698787
C    -1.959313  -0.090806  3.967198
C    -0.957062  -1.229660  3.676078
O    0.217605  -0.921120  3.301016
H    -3.310584  0.069282  2.242067
H    -1.335385  0.689010  4.429240
C    -3.095484  -0.408764  4.964185
C    -4.361400  -1.099093  4.417422
C    -5.422746  -0.070355  3.957052
N    -6.329363  -0.539000  2.906699
C    -5.995991  -0.337817  1.568834
N    -4.643495  -0.736974  1.268959
N    -6.695342  0.117336  0.606913
H    -3.390414  0.544328  5.426797
H    -2.651488  -0.990886  5.784791
H    -4.794928  -1.738881  5.196813
H    -4.126598  -1.775170  3.582168
H    -4.924384  0.862759  3.642144
H    -6.038508  0.202377  4.822940
H    -7.308435  -0.345112  3.094104
H    -4.539391  -0.613812  0.258114
H    -4.532305  -1.735751  1.464380
H    -7.608256  0.478691  0.897804
N    -1.340750  -2.486936  3.825533
C    -0.508494  -3.668034  3.600114
H    -2.291855  -2.643420  4.151233
H    -0.971228  -4.306895  2.838403
H    -0.413909  -4.236743  4.533061
H    0.480050  -3.351455  3.261649
Ba    1.558470  1.079052  2.790412
