36
Energy: -246330.010606 eV PBE+vdW (tier 2 basis)
C    -0.198102  1.875314  2.454006
C    -0.323332  0.817599  3.506490
O    0.205625  0.955375  4.638560
H    -0.529466  2.835802  2.868876
H    -0.768905  1.658427  1.544974
H    0.861687  1.991470  2.189221
N    -1.029563  -0.293828  3.203937
C    -1.234053  -1.396470  4.144273
C    -0.004792  -2.333144  4.143314
O    0.926285  -2.086170  4.954515
H    -1.421814  -0.371691  2.269456
H    -1.197410  -0.945593  5.139861
C    -2.609742  -2.054030  3.986118
C    -3.772645  -1.223115  4.557458
C    -3.810236  -1.067169  6.093431
N    -3.066556  0.080632  6.634695
C    -1.874020  0.050920  7.270321
N    -1.273275  1.293015  7.567544
N    -1.123606  -0.986098  7.550426
H    -2.586827  -3.029735  4.495079
H    -2.816055  -2.272757  2.925180
H    -4.706505  -1.722488  4.264830
H    -3.810437  -0.227742  4.089301
H    -3.466924  -1.985167  6.590613
H    -4.852208  -0.934522  6.409951
H    -3.579545  0.956483  6.665921
H    -1.109151  1.409476  8.567625
H    -1.731836  2.116406  7.181693
H    -1.606258  -1.881938  7.467709
N    0.033318  -3.343041  3.278747
C    1.142063  -4.286984  3.138573
H    -0.772146  -3.481926  2.674811
H    0.781838  -5.309875  3.299273
H    1.905595  -4.046894  3.881782
H    1.572552  -4.212030  2.132643
Ba    1.257608  -0.181846  6.646850
