36
Energy: -246329.150115 eV PBE+vdW (tier 2 basis)
C    1.552401  0.913496  1.580242
C    0.635675  0.282367  2.591714
O    1.223803  -0.479037  3.484912
H    1.023374  1.571247  0.885386
H    2.075264  0.131421  1.013198
H    2.323559  1.499267  2.097997
N    -0.646982  0.525010  2.522925
C    -1.565956  -0.107828  3.487097
C    -1.209051  0.225536  4.947688
O    -0.655049  -0.609845  5.726528
H    -1.298137  1.276061  0.922496
H    -2.537669  0.392148  3.340392
C    -1.808344  -1.622168  3.289968
C    -2.098716  -2.106986  1.857968
C    -3.384948  -1.604126  1.182224
N    -3.313329  -0.184588  0.794070
C    -2.601085  0.286977  -0.257817
N    -2.771733  -0.249458  -1.472616
N    -1.755616  1.290644  -0.022974
H    -2.631556  -1.921521  3.957051
H    -0.926612  -2.180569  3.636218
H    -2.170059  -3.204014  1.897303
H    -1.242325  -1.883084  1.203776
H    -4.259211  -1.717090  1.836816
H    -3.588853  -2.206164  0.288946
H    -3.317457  0.466915  1.571714
H    -2.151976  -0.021612  -2.240700
H    -3.614726  -0.768307  -1.690696
H    -1.375179  1.848923  -0.779622
N    -1.501427  1.444596  5.399186
C    -2.135184  2.545862  4.673784
H    -1.283425  1.598618  6.382168
H    -1.763953  2.585486  3.644717
H    -1.867031  3.483437  5.170288
H    -3.229853  2.452714  4.683769
Ba    1.551875  -1.644671  5.457718
