36
Energy: -246328.892372 eV PBE+vdW (tier 2 basis)
C    -0.061029  -0.441288  -0.172241
C    -0.189203  -0.749929  1.289253
O    -0.145537  -1.956779  1.681792
H    0.647659  0.372430  -0.358377
H    -1.033580  -0.138281  -0.587720
H    0.277223  -1.341668  -0.692649
N    -0.343167  0.232383  2.206318
C    -1.245602  1.393060  2.070900
C    -2.713217  0.876222  1.919770
O    -2.879781  -0.428501  1.814005
H    -0.300277  -0.135277  3.155909
H    -1.192676  1.888545  3.050631
C    -0.768986  2.431861  1.027934
C    -1.221394  3.879199  1.310984
C    -2.414334  4.329750  0.450828
N    -3.049709  5.550465  0.946615
C    -3.893938  5.580053  1.989819
N    -4.379060  6.763180  2.409880
N    -4.241529  4.448740  2.605354
H    -1.076265  2.138220  0.014830
H    0.327992  2.401373  1.044254
H    -0.380913  4.562616  1.131529
H    -1.473432  3.988076  2.375642
H    -3.173468  3.538707  0.397761
H    -2.094756  4.533103  -0.578501
H    -2.749119  6.437280  0.558793
H    -5.037735  6.818767  3.175503
H    -4.196022  7.620495  1.904508
H    -4.916036  4.488353  3.359161
N    -3.666030  1.744313  1.945144
C    -5.032177  1.240988  1.809130
H    -3.879071  3.496501  2.337349
H    -5.718580  2.084853  1.671472
H    -5.350510  0.691488  2.709318
H    -5.144439  0.565676  0.948273
Ba    -2.485646  -2.723675  2.050731
