36
Energy: -246328.953897 eV PBE+vdW (tier 2 basis)
C    -0.062790  0.333268  -1.114241
C    0.226889  0.255628  0.353785
O    1.433124  0.094788  0.766700
H    0.501107  1.165091  -1.557355
H    -1.126322  0.476454  -1.329671
H    0.271637  -0.593014  -1.600694
N    -0.783649  0.353191  1.193736
C    -0.759371  0.312806  2.655973
C    -2.265123  0.119996  3.006988
O    -3.086374  0.572415  2.205687
H    -1.748216  0.528572  0.863027
H    -0.124884  -0.523002  2.980269
C    -0.237656  1.667238  3.200798
C    0.108503  1.752151  4.691823
C    1.214818  0.821465  5.204355
N    2.408374  0.877679  4.356946
C    3.492590  0.065156  4.463087
N    3.583632  -0.724523  5.553925
N    4.366082  0.045788  3.452928
H    -0.995266  2.430779  2.974714
H    0.642231  1.936683  2.597847
H    -0.782682  1.575035  5.309233
H    0.396597  2.793488  4.901365
H    0.875750  -0.223720  5.230028
H    1.448437  1.115742  6.241617
H    2.563995  1.727841  3.827539
H    4.325745  -1.409679  5.626576
H    3.087181  -0.503690  6.409611
H    5.264429  -0.334515  3.763945
N    -2.629631  -0.476630  4.159960
C    -1.834205  -1.222845  5.123297
H    -3.639512  -0.480909  4.294119
H    -0.918070  -1.606142  4.660606
H    -2.411328  -2.089199  5.465370
H    -1.574133  -0.618978  6.004485
Ba    3.818876  -0.021476  0.947856
