36
Energy: -246328.515475 eV PBE+vdW (tier 2 basis)
C    0.019122  -1.268948  0.362471
C    0.056634  -0.179854  1.387705
O    0.982570  0.685892  1.373148
H    -0.795787  -1.984269  0.515015
H    0.975621  -1.806560  0.356685
H    -0.094246  -0.807956  -0.629144
N    -0.920235  -0.143208  2.305122
C    -1.185069  0.934725  3.269398
C    -0.274103  0.805726  4.513137
O    0.971547  1.062719  4.358531
H    -1.631816  -0.866088  2.239574
H    -0.826292  1.861853  2.794964
C    -2.708700  1.105476  3.489008
C    -3.627943  -0.132622  3.542722
C    -3.406971  -1.167168  4.652746
N    -3.386373  -0.520346  5.970853
C    -3.065611  -1.235263  7.172489
N    -2.380886  -2.424685  6.963727
N    -3.214411  -0.770217  8.352758
H    -3.070675  1.725627  2.657571
H    -2.846753  1.722913  4.387066
H    -3.631299  -0.662094  2.575407
H    -4.653762  0.258755  3.621960
H    -2.440345  -1.680146  4.526117
H    -4.192631  -1.937188  4.568972
H    -4.197037  0.078229  6.127491
H    -2.199308  -2.891834  7.850177
H    -2.770297  -3.065735  6.277721
H    -3.630100  0.164386  8.378879
N    -0.771834  0.490491  5.682465
C    0.036639  0.379687  6.898632
H    -1.798171  0.269292  5.775342
H    0.585938  1.311647  7.077837
H    0.752551  -0.446749  6.808572
H    -0.636228  0.181308  7.737038
Ba    2.677728  1.698428  2.789726
