36
Energy: -246328.337432 eV PBE+vdW (tier 2 basis)
C    0.032496  -0.293347  -0.814927
C    0.064790  -0.660855  0.631540
O    1.164993  -0.862757  1.237144
H    0.423449  0.725309  -0.958511
H    -0.971519  -0.362525  -1.244358
H    0.716213  -0.965979  -1.349596
N    -1.088603  -0.750697  1.324300
C    -2.197085  0.197789  1.166097
C    -1.626883  1.591862  1.457507
O    -0.613169  1.712072  2.238412
H    -0.991378  -1.152682  2.258190
H    -2.620642  0.113677  0.135314
C    -3.302081  -0.231697  2.160843
C    -4.666016  0.458727  2.098587
C    -5.481170  0.266863  0.799204
N    -5.399779  -1.052937  0.198242
C    -4.725173  -1.275490  -0.980835
N    -5.096754  -2.420124  -1.640580
N    -3.773436  -0.456466  -1.350804
H    -2.910075  -0.139477  3.187916
H    -3.451866  -1.304493  1.966554
H    -4.582807  1.537673  2.302376
H    -5.242302  0.052744  2.942829
H    -5.161966  0.974349  0.028055
H    -6.532942  0.494315  1.021579
H    -6.084393  -1.744960  0.477333
H    -4.641074  -2.627809  -2.520223
H    -6.053594  -2.749698  -1.573525
H    -3.472732  -0.665168  -2.304461
N    -2.150279  2.676073  0.909385
C    -3.177876  2.788925  -0.128431
H    -1.737854  3.550741  1.235172
H    -3.357317  1.818450  -0.607299
H    -2.824885  3.500207  -0.884003
H    -4.110895  3.173289  0.301626
Ba    1.564247  0.864877  2.962603
