36
Energy: -246329.829484 eV PBE+vdW (tier 2 basis)
C    -0.844502  0.316448  0.588137
C    -0.557198  -0.429706  1.857272
O    0.592668  -0.889454  2.082575
H    -1.890139  0.623185  0.480349
H    -0.562950  -0.309862  -0.268749
H    -0.206671  1.210030  0.549980
N    -1.579941  -0.594057  2.719305
C    -1.595808  -1.254821  4.043602
C    -0.649874  -0.518757  5.022093
O    0.576844  -0.800205  5.059383
H    -2.462579  -0.183910  2.430579
H    -2.626167  -1.109288  4.388740
C    -1.312003  -2.766680  4.092997
C    -2.065926  -3.696379  3.130783
C    -1.471961  -3.843547  1.709806
N    -0.008177  -3.840519  1.651208
C    0.841555  -4.664758  2.327349
N    0.437007  -5.942288  2.524193
N    1.984256  -4.157332  2.778201
H    -1.559663  -3.065000  5.122677
H    -0.236163  -2.952755  4.000270
H    -3.123025  -3.406587  3.035112
H    -2.076337  -4.687359  3.603809
H    -1.790629  -3.023331  1.056048
H    -1.878209  -4.753197  1.244941
H    0.412483  -2.953791  1.400829
H    1.030526  -6.585017  3.033807
H    -0.247823  -6.363425  1.906570
H    2.641883  -4.904467  3.016858
N    -1.159028  0.410406  5.829641
C    -2.546415  0.870964  5.939645
H    -0.478538  0.837691  6.456679
H    -2.916419  1.262209  4.984195
H    -2.572139  1.687802  6.666166
H    -3.208165  0.075047  6.303789
Ba    2.449752  -1.696260  3.596318
