36
Energy: -246327.901274 eV PBE+vdW (tier 2 basis)
C    -1.806685  1.636283  1.375082
C    -1.004420  0.583172  2.024222
O    0.262357  0.721938  2.132613
H    -2.128361  1.407068  0.320076
H    -1.206892  2.550818  1.330342
H    -2.727490  1.823017  1.937015
N    -1.542881  -0.537089  2.596680
C    -2.423532  -1.553968  2.000010
C    -1.520868  -2.511330  1.182068
O    -0.392549  -2.113294  0.741620
H    -0.856648  -0.968674  3.216497
H    -2.842752  -2.117169  2.847942
C    -3.578808  -1.052141  1.118440
C    -4.703439  -0.326810  1.868626
C    -5.712003  0.323857  0.898820
N    -5.103197  1.318834  0.016624
C    -4.479319  1.001986  -1.182523
N    -5.248200  0.244178  -2.037436
N    -3.253852  1.395932  -1.379607
H    -4.006071  -1.927252  0.608113
H    -3.171730  -0.424142  0.315182
H    -4.291360  0.446773  2.534499
H    -5.240809  -1.030203  2.524317
H    -6.511997  0.803153  1.478384
H    -6.189644  -0.444568  0.277966
H    -4.620378  2.074440  0.492637
H    -4.858258  0.047348  -2.951970
H    -6.247392  0.427737  -2.045623
H    -2.979664  1.318425  -2.362536
N    -1.921740  -3.751576  0.937787
C    -3.154672  -4.427522  1.347595
H    -1.285099  -4.293559  0.353793
H    -2.919743  -5.474577  1.565249
H    -3.902276  -4.392541  0.544663
H    -3.571700  -3.973290  2.250596
Ba    1.633739  -0.706775  0.734684
