36
Energy: -246329.484511 eV PBE+vdW (tier 2 basis)
C    1.673224  0.314435  1.234452
C    1.002511  0.333416  2.579014
O    1.750224  0.710519  3.587134
H    0.984722  0.035254  0.432226
H    2.512605  -0.393894  1.244561
H    2.095454  1.305578  1.021896
N    -0.256818  -0.009615  2.672005
C    -0.922764  0.097294  3.975719
C    -0.547934  -1.088542  4.875653
O    0.419170  -0.995100  5.693067
H    -1.302407  -0.226390  1.286311
H    -0.558442  0.986996  4.522975
C    -2.430652  0.253243  3.735444
C    -2.763739  1.552162  2.967810
C    -3.749017  1.364000  1.792825
N    -3.176982  1.526677  0.446129
C    -2.505822  0.592965  -0.249631
N    -2.531461  0.652877  -1.594468
N    -1.840702  -0.383167  0.377587
H    -2.968625  0.225847  4.692451
H    -2.788745  -0.609623  3.149569
H    -1.842526  2.001005  2.571327
H    -3.183534  2.286334  3.666106
H    -4.555997  2.102197  1.850090
H    -4.224878  0.374181  1.840765
H    -3.459289  2.352547  -0.070472
H    -1.855178  0.149608  -2.155035
H    -3.254805  1.162276  -2.087980
H    -1.524351  -1.162866  -0.189461
N    -1.234879  -2.219166  4.766324
C    -0.955404  -3.434437  5.528278
H    -1.995072  -2.242266  4.094202
H    -1.854005  -4.057612  5.538984
H    -0.685193  -3.171805  6.555817
H    -0.131847  -4.001216  5.074210
Ba    2.473654  0.359471  5.762262
