36
Energy: -246329.442997 eV PBE+vdW (tier 2 basis)
C    1.137364  -4.276278  1.916918
C    1.371629  -3.145437  2.869705
O    2.519694  -2.895265  3.321612
H    1.220980  -3.919484  0.878223
H    0.150836  -4.736958  2.041036
H    1.918366  -5.028323  2.067482
N    0.332587  -2.351923  3.248221
C    -0.723529  -1.928769  2.342427
C    -0.093323  -1.086355  1.192101
O    1.087160  -0.652544  1.280112
H    0.581616  -1.687494  3.989177
H    -1.161726  -2.821086  1.871614
C    -1.866488  -1.174260  3.083699
C    -1.508731  -0.462708  4.398175
C    -0.348210  0.559333  4.382974
N    0.719925  0.102786  5.313852
C    1.879424  0.855302  5.483097
N    2.170260  1.226460  6.747474
N    2.642349  1.102774  4.436057
H    -2.657632  -1.899472  3.312821
H    -2.311553  -0.451903  2.385538
H    -1.306635  -1.224090  5.167217
H    -2.423404  0.039825  4.737115
H    -0.710257  1.553291  4.684186
H    0.091659  0.677192  3.385949
H    0.323343  -0.192093  6.205589
H    3.073448  1.622928  6.981509
H    1.471289  1.229549  7.481523
H    3.330258  1.827134  4.661902
N    -0.860759  -0.870577  0.129177
C    -0.484493  -0.089305  -1.048555
H    -1.790087  -1.284508  0.126092
H    0.487571  0.375710  -0.871809
H    -1.234796  0.688873  -1.230373
H    -0.424715  -0.740783  -1.929031
Ba    3.303324  -0.593356  2.531154
