36
Energy: -246328.019363 eV PBE+vdW (tier 2 basis)
C    -0.982295  -0.436739  -0.479760
C    -0.863130  -0.704906  0.987465
O    0.183137  -1.244423  1.452740
H    -1.911029  0.070005  -0.761466
H    -0.922227  -1.394717  -1.015410
H    -0.127428  0.167344  -0.810278
N    -1.896725  -0.357158  1.771718
C    -2.118311  -0.634868  3.207358
C    -1.189713  0.193308  4.107134
O    0.046456  -0.086165  4.192450
H    -2.682719  0.065626  1.286946
H    -3.144644  -0.296590  3.387022
C    -2.056104  -2.129693  3.584036
C    -3.103233  -3.008817  2.895603
C    -4.568269  -2.704425  3.310146
N    -5.457152  -3.832801  3.201409
C    -5.306507  -4.933557  4.057309
N    -6.026741  -6.038730  3.644074
N    -4.572274  -4.999817  5.116233
H    -2.187532  -2.191412  4.676612
H    -1.052336  -2.531579  3.372668
H    -2.888885  -4.048813  3.179154
H    -2.998979  -2.959499  1.800952
H    -4.992226  -1.889932  2.704224
H    -4.588583  -2.353485  4.357260
H    -5.792949  -4.049885  2.268101
H    -6.030397  -6.780426  4.338043
H    -6.943728  -5.867015  3.242995
H    -4.032734  -4.147733  5.276621
N    -1.697599  1.176389  4.837958
C    -3.083859  1.657281  4.905111
H    -1.021955  1.639776  5.445869
H    -3.102530  2.529728  5.563929
H    -3.750070  0.895713  5.328956
H    -3.444212  1.971889  3.918867
Ba    1.821879  -1.441590  3.220146
