36
Energy: -246327.527279 eV PBE+vdW (tier 2 basis)
C    -3.743770  0.727743  -2.895545
C    -2.405993  0.879513  -2.247361
O    -1.378750  1.182109  -2.928469
H    -4.262607  1.699158  -2.931904
H    -4.388333  0.014853  -2.370392
H    -3.595750  0.400026  -3.930370
N    -2.278567  0.721241  -0.910813
C    -3.240617  1.234237  0.061234
C    -3.293340  2.776864  -0.100787
O    -2.395575  3.385700  -0.770469
H    -1.313602  0.691276  -0.579271
H    -4.235083  0.821201  -0.162946
C    -2.800917  0.786475  1.478179
C    -3.778882  1.036492  2.627887
C    -5.143958  0.334037  2.479248
N    -5.857293  0.313504  3.735549
C    -5.474447  -0.618075  4.730882
N    -6.264148  -0.521633  5.854445
N    -4.523947  -1.482906  4.665250
H    -1.832409  1.259264  1.709552
H    -2.615153  -0.296090  1.400498
H    -3.919784  2.109555  2.829113
H    -3.302927  0.641771  3.536757
H    -4.987019  -0.684540  2.065925
H    -5.792011  0.852638  1.751981
H    -6.863216  0.439683  3.666751
H    -5.979157  -1.137962  6.608476
H    -6.559468  0.402153  6.150482
H    -4.148223  -1.594630  3.721241
N    -4.292245  3.412071  0.487235
C    -4.497083  4.859791  0.526034
H    -4.961771  2.841919  1.000911
H    -5.427306  5.118960  0.005959
H    -3.654048  5.358174  0.043918
H    -4.567683  5.189783  1.569157
Ba    -0.576637  3.466179  -2.449203
