36
Energy: -246329.406941 eV PBE+vdW (tier 2 basis)
C    -0.602888  1.545203  0.828691
C    -0.934672  1.224291  2.260509
O    -0.718892  2.188136  3.127137
H    0.386032  2.016838  0.774379
H    -1.321303  2.275469  0.428600
H    -0.592750  0.649303  0.200260
N    -1.413183  0.044357  2.565494
C    -1.698734  -0.163131  3.991443
C    -0.441596  -0.056100  4.869940
O    -0.384180  0.835053  5.779455
H    -2.548538  -0.535444  1.067866
H    -2.342349  0.660130  4.354243
C    -2.455225  -1.476357  4.296709
C    -3.664162  -1.711728  3.377012
C    -3.307505  -2.648221  2.207725
N    -4.207114  -2.539806  1.061114
C    -4.070306  -1.611400  0.104668
N    -4.887627  -1.634898  -0.963068
N    -3.125328  -0.672879  0.211726
H    -2.781925  -1.425503  5.344029
H    -1.779953  -2.341604  4.240221
H    -4.032832  -0.751794  2.986309
H    -4.494646  -2.146897  3.947881
H    -3.324560  -3.695383  2.534381
H    -2.287984  -2.449696  1.851089
H    -5.028687  -3.133496  1.031738
H    -4.883703  -0.888957  -1.646337
H    -5.475630  -2.434784  -1.160483
H    -2.928242  -0.075858  -0.581135
N    0.595332  -0.875038  4.706207
C    0.796315  -1.932681  3.717177
H    1.340292  -0.739232  5.388336
H    0.150727  -1.758019  2.852879
H    1.839646  -1.904316  3.383538
H    0.597059  -2.920555  4.153010
Ba    -0.436192  3.217467  5.196580
