36
Energy: -246329.962873 eV PBE+vdW (tier 2 basis)
C    0.594635  0.173413  1.321968
C    -0.121665  -0.141775  2.600842
O    0.465667  -0.732484  3.540918
H    -0.013318  0.726762  0.598659
H    0.924304  -0.768357  0.862464
H    1.498635  0.752730  1.549711
N    -1.415676  0.236066  2.693015
C    -2.351565  -0.053318  3.797346
C    -1.866979  0.627219  5.100274
O    -1.150533  0.012399  5.932352
H    -1.812107  0.684957  1.873314
H    -3.291756  0.429532  3.499922
C    -2.615266  -1.552953  3.980150
C    -3.786659  -1.869362  4.931274
C    -3.682954  -3.245573  5.613754
N    -2.845002  -3.232876  6.820796
C    -1.498681  -3.296032  6.862962
N    -0.873228  -2.834694  8.036061
N    -0.669089  -3.634849  5.903843
H    -1.698247  -2.032579  4.330561
H    -2.820909  -1.976774  2.987387
H    -4.731896  -1.830139  4.371609
H    -3.870134  -1.109774  5.723791
H    -3.320945  -4.015092  4.916649
H    -4.675866  -3.579839  5.935695
H    -3.335272  -3.117570  7.701713
H    -0.240769  -3.524998  8.440222
H    -1.483272  -2.436139  8.746977
H    -1.125663  -4.112827  5.125348
N    -2.233086  1.891227  5.321009
C    -3.044763  2.768615  4.473149
H    -1.877965  2.285757  6.190414
H    -2.576681  2.924599  3.493441
H    -3.119575  3.740650  4.968272
H    -4.062086  2.377876  4.345088
Ba    0.900800  -1.510001  5.897577
