36
Energy: -246328.963657 eV PBE+vdW (tier 2 basis)
C    0.252154  0.586627  0.814479
C    -0.305529  0.686992  2.197636
O    0.504934  0.804635  3.189793
H    0.962069  -0.248814  0.756450
H    0.826038  1.502188  0.612797
H    -0.506694  0.468862  0.037131
N    -1.600425  0.656404  2.454743
C    -2.775295  0.412822  1.625278
C    -3.835302  1.369883  2.244020
O    -3.701288  1.666732  3.438070
H    -1.925674  0.914149  3.403290
H    -2.562650  0.638409  0.574450
C    -3.282539  -1.041101  1.806141
C    -2.266683  -2.175261  1.539834
C    -1.855368  -2.985257  2.775275
N    -0.991292  -2.221547  3.679570
C    -0.660028  -2.551963  4.951025
N    -1.245237  -3.636946  5.497063
N    0.211025  -1.782335  5.617635
H    -4.150653  -1.163010  1.145493
H    -3.672956  -1.124849  2.831519
H    -1.363949  -1.805753  1.028451
H    -2.707617  -2.893066  0.836352
H    -1.346906  -3.907668  2.449003
H    -2.765573  -3.278002  3.320928
H    -0.373701  -1.544070  3.250755
H    -1.101425  -3.869320  6.470980
H    -1.816977  -4.272498  4.956097
H    0.418187  -2.224459  6.518070
N    -4.860172  1.776734  1.479323
C    -5.076013  1.528395  0.055575
H    -5.537218  2.357067  1.969428
H    -5.985131  2.055710  -0.246383
H    -5.225185  0.462011  -0.159987
H    -4.250172  1.915839  -0.555778
Ba    1.406135  0.470507  5.389178
