36
Energy: -246329.110149 eV PBE+vdW (tier 2 basis)
C    -0.214291  0.086946  -0.409898
C    -0.024003  -0.326246  1.014116
O    1.097805  -0.782406  1.405087
H    0.397895  -0.555626  -1.051240
H    0.134576  1.122427  -0.538624
H    -1.258692  0.034567  -0.734958
N    -1.026907  -0.229085  1.893685
C    -2.192546  0.650320  1.790001
C    -1.705012  2.096735  1.536181
O    -0.597200  2.458975  1.978343
H    -0.803944  -0.545089  2.840483
H    -2.835868  0.302314  0.970424
C    -3.021324  0.602742  3.099622
C    -2.453840  1.368800  4.316059
C    -1.672380  0.580901  5.372686
N    -0.535842  -0.274851  4.922415
C    0.754443  0.122726  4.718949
N    1.008385  1.324054  4.040041
N    1.818322  -0.606868  4.958914
H    -3.216657  -0.453101  3.342966
H    -4.003793  1.026434  2.857097
H    -3.301611  1.795828  4.870633
H    -1.872542  2.239182  3.985890
H    -2.351207  -0.118607  5.875983
H    -1.310062  1.276997  6.142102
H    -0.595974  -1.225676  5.280733
H    0.260660  1.753118  3.461465
H    1.525533  2.005781  4.593259
H    1.649418  -1.400394  5.581213
N    -2.520404  2.933315  0.878233
C    -3.825722  2.654474  0.278107
H    -2.168511  3.886546  0.813841
H    -4.118959  3.524523  -0.315901
H    -4.600713  2.487248  1.037329
H    -3.782958  1.790987  -0.397365
Ba    3.087300  -0.247524  2.709798
