36
Energy: -246329.484649 eV PBE+vdW (tier 2 basis)
C    0.752093  0.576776  1.805699
C    0.307861  1.531234  2.886018
O    1.170357  2.383765  3.326019
H    0.181013  -0.357982  1.782990
H    1.813760  0.351685  1.952259
H    0.660882  1.055472  0.819612
N    -0.919543  1.611172  3.396506
C    -2.084091  1.018854  2.785533
C    -3.018138  2.193080  2.380851
O    -2.754389  3.368521  2.741932
H    -0.409083  -3.555304  7.697412
H    -1.845345  0.470296  1.854149
C    -2.790518  0.032920  3.749164
C    -1.958146  -1.233603  3.983340
C    -2.666967  -2.328468  4.792149
N    -2.859875  -2.033422  6.220449
C    -2.100864  -2.489372  7.225740
N    -2.556389  -2.420967  8.486912
N    -0.886357  -3.004362  6.993882
H    -3.772877  -0.250233  3.339015
H    -2.978292  0.560903  4.697547
H    -0.999047  -0.967038  4.454029
H    -1.709395  -1.685967  3.010307
H    -2.119803  -3.277983  4.717991
H    -3.664932  -2.526218  4.376471
H    -3.686235  -1.506612  6.482532
H    -3.544793  -2.323561  8.685570
H    -1.942520  -2.582857  9.276362
H    -0.429175  -2.900847  6.097630
N    -4.089043  1.908479  1.636136
C    -5.053005  2.899254  1.161102
H    -4.205866  0.952183  1.316243
H    -6.059774  2.469772  1.190978
H    -4.823784  3.204486  0.131655
H    -5.010672  3.776612  1.811532
Ba    -0.526372  4.120492  3.805137
