36
Energy: -246328.970987 eV PBE+vdW (tier 2 basis)
C    0.151490  1.497389  0.989123
C    -0.213977  0.510404  2.060537
O    0.585471  0.327359  3.048751
H    -0.611523  1.583193  0.209239
H    1.095372  1.186547  0.520911
H    0.308551  2.488873  1.435111
N    -1.359088  -0.128684  1.926967
C    -1.979604  -1.200024  2.705286
C    -3.053543  -1.738592  1.706802
O    -3.326787  -1.049786  0.718909
H    -1.959324  0.028399  1.086944
H    -1.231375  -1.978365  2.916798
C    -2.632834  -0.704180  4.024416
C    -1.708882  -0.874740  5.233248
C    -2.105979  -0.052300  6.469250
N    -0.985848  0.033519  7.415803
C    0.143985  0.713050  7.144239
N    1.321947  0.334009  7.797297
N    0.292045  1.635310  6.213390
H    -3.578244  -1.237106  4.191544
H    -2.907374  0.351451  3.883055
H    -0.698822  -0.568396  4.929391
H    -1.643367  -1.937189  5.512035
H    -2.951664  -0.497573  7.005637
H    -2.430521  0.961128  6.187849
H    -1.031778  -0.524271  8.262456
H    1.817647  1.115433  8.224893
H    1.257544  -0.456589  8.435740
H    -0.601272  1.994241  5.871104
N    -3.645990  -2.916760  1.969516
C    -3.411872  -3.835763  3.074635
H    -4.363748  -3.169143  1.293031
H    -2.378565  -3.765301  3.432863
H    -3.566193  -4.861110  2.722170
H    -4.097356  -3.653858  3.915279
Ba    2.243024  0.890824  4.709842
