36
Energy: -246329.92762 eV PBE+vdW (tier 2 basis)
C    0.592930  -0.546491  0.639091
C    0.062092  0.650834  1.370396
O    0.670140  1.749204  1.330765
H    -0.024328  -1.443895  0.751160
H    1.606378  -0.762048  1.002616
H    0.680365  -0.304398  -0.428145
N    -1.078148  0.488102  2.070697
C    -1.801317  1.468152  2.906121
C    -2.414321  2.587993  2.027007
O    -1.713123  3.554945  1.634630
H    -1.484577  -0.441446  2.040486
H    -2.621123  0.884112  3.344341
C    -1.000431  2.110017  4.055688
C    0.048986  1.259116  4.767475
C    0.916447  2.124126  5.705809
N    1.543698  3.252435  5.016340
C    2.618956  3.218411  4.176329
N    3.577865  2.295717  4.435888
N    2.639190  4.060798  3.151302
H    -1.740894  2.481703  4.781012
H    -0.507965  3.009041  3.663653
H    0.709942  0.768376  4.038885
H    -0.418485  0.460729  5.361221
H    1.675761  1.496677  6.188467
H    0.312110  2.545634  6.519437
H    1.041917  4.131617  5.001206
H    4.371642  2.216977  3.812485
H    3.721448  1.957948  5.381244
H    3.598401  4.192455  2.815252
N    -3.706185  2.475471  1.727970
C    -4.455007  3.432800  0.914386
H    -4.209229  1.665237  2.077347
H    -5.486788  3.475939  1.276560
H    -4.456978  3.127476  -0.140114
H    -3.994496  4.420460  1.004123
Ba    0.745702  4.235285  1.322662
