36
Energy: -246328.815185 eV PBE+vdW (tier 2 basis)
C    0.920181  2.112845  1.644178
C    0.440477  1.528182  2.930027
O    1.151476  1.612123  3.992179
H    0.445497  1.628211  0.776655
H    2.010450  2.029633  1.582003
H    0.677992  3.187034  1.635101
N    -0.751775  0.933877  2.941339
C    -1.452321  0.461982  4.138810
C    -0.905704  -0.914857  4.580127
O    0.190085  -0.967991  5.220416
H    -1.326033  0.948911  2.053997
H    -1.163425  1.126339  4.969339
C    -2.986160  0.589157  3.995605
C    -3.745558  -0.039146  2.799481
C    -3.858176  0.828380  1.535301
N    -2.587061  0.972828  0.818395
C    -2.042563  -0.031928  -0.036004
N    -2.827507  -1.151936  -0.218434
N    -0.842741  0.181235  -0.440034
H    -3.208078  1.666679  4.014028
H    -3.412796  0.197258  4.930524
H    -4.770492  -0.240151  3.141291
H    -3.344121  -1.018173  2.489747
H    -4.182430  1.840176  1.813571
H    -4.662505  0.428486  0.896395
H    -2.448515  1.887648  0.395474
H    -2.463336  -1.834815  -0.875489
H    -3.832055  -1.023786  -0.303476
H    -0.521385  -0.510245  -1.121160
N    -1.580553  -2.018082  4.304959
C    -1.148650  -3.363438  4.687265
H    -2.451784  -1.923052  3.791341
H    -1.955742  -4.064242  4.459318
H    -0.930692  -3.400049  5.760494
H    -0.250648  -3.653566  4.127976
Ba    2.130420  0.419546  5.794173
