36
Energy: -246328.931863 eV PBE+vdW (tier 2 basis)
C    -0.197647  -1.004192  1.873074
C    -1.131930  -1.287939  3.009330
O    -1.128777  -2.418151  3.583366
H    0.441733  -0.142668  2.103847
H    -0.752181  -0.756829  0.955829
H    0.432427  -1.878549  1.691634
N    -1.999860  -0.336367  3.425080
C    -2.762359  0.527304  2.497277
C    -3.411439  -0.371317  1.400028
O    -3.573447  -1.642086  1.718767
H    -2.503506  -0.607962  4.266886
H    -3.599328  0.889186  3.115009
C    -1.969668  1.758728  1.993526
C    -2.673175  3.116078  2.164990
C    -3.998474  3.275238  1.405937
N    -3.887558  2.929939  -0.007329
C    -3.707900  3.770377  -1.018142
N    -3.498100  5.085995  -0.831911
N    -3.734272  3.299520  -2.280642
H    -1.690169  1.610410  0.942190
H    -1.033922  1.808538  2.563750
H    -1.968093  3.896240  1.840821
H    -2.868209  3.308315  3.231222
H    -4.399930  4.290504  1.526034
H    -4.766461  2.606143  1.821021
H    -3.813658  1.883680  -0.135849
H    -3.378752  5.471107  0.094725
H    -3.608940  5.745234  -1.592116
H    -3.432212  3.864353  -3.063495
N    -3.778390  0.171158  0.289829
C    -4.468590  -0.670406  -0.682735
H    -4.047878  2.358198  -2.473369
H    -3.757486  -1.311586  -1.226686
H    -4.975100  -0.036677  -1.421422
H    -5.223122  -1.321896  -0.218836
Ba    -3.119818  -3.691526  2.755126
