36
Energy: -246328.987301 eV PBE+vdW (tier 2 basis)
C    -0.157713  -0.448921  0.488863
C    -0.605704  -0.747050  1.883941
O    -0.019742  -1.672727  2.542707
H    -0.101510  -1.381035  -0.086316
H    0.864899  -0.047261  0.536293
H    -0.790096  0.268506  -0.039503
N    -1.586610  -0.078298  2.474997
C    -2.386396  1.071446  2.062371
C    -2.498090  1.891376  3.386436
O    -2.418161  1.266542  4.452828
H    -1.700305  -0.188651  3.500365
H    -1.870124  1.637088  1.276404
C    -3.819524  0.690484  1.624187
C    -4.007249  -0.279294  0.437929
C    -4.316983  -1.750479  0.773335
N    -3.149328  -2.642493  0.879569
C    -2.722147  -3.363017  1.933448
N    -3.053198  -2.946593  3.239803
N    -1.896442  -4.387476  1.895229
H    -4.321804  1.636542  1.378960
H    -4.356751  0.308812  2.508059
H    -3.162609  -0.230814  -0.265158
H    -4.871642  0.079646  -0.136823
H    -4.951912  -2.170258  -0.019036
H    -4.905403  -1.826602  1.697571
H    -2.746902  -2.922370  -0.011545
H    -3.571895  -3.662320  3.749616
H    -3.528638  -2.048939  3.310660
H    -1.786460  -4.792865  0.963583
N    -2.724551  3.205556  3.269651
C    -2.928255  4.097082  4.410732
H    -2.737815  3.615417  2.341092
H    -2.148724  4.867881  4.432673
H    -2.876031  3.502258  5.326183
H    -3.910881  4.579153  4.343941
Ba    -0.176708  -3.760080  3.739820
