36
Energy: -246329.493471 eV PBE+vdW (tier 2 basis)
C    0.149704  0.921306  1.968091
C    -1.075316  0.665649  2.788323
O    -1.029073  0.594237  4.041668
H    0.409465  1.989971  2.001978
H    0.042728  0.614905  0.922702
H    0.985258  0.377589  2.424918
N    -2.281493  0.514380  2.169457
C    -2.737214  1.316801  1.038238
C    -2.482848  2.811302  1.341470
O    -2.384838  3.198341  2.541671
H    -3.009692  0.178640  2.794249
H    -2.184859  1.021439  0.135217
C    -4.246655  1.083004  0.779766
C    -5.231880  1.675610  1.808512
C    -5.458820  0.845244  3.084557
N    -6.389243  1.475019  4.004485
C    -6.089299  1.891479  5.262935
N    -7.150819  2.134800  6.068442
N    -4.829070  2.059595  5.660406
H    -4.399527  -0.001277  0.665563
H    -4.476376  1.513054  -0.203299
H    -6.204577  1.775024  1.305700
H    -4.941227  2.698980  2.088660
H    -4.542952  0.682307  3.667504
H    -5.836032  -0.154551  2.816597
H    -7.368782  1.472810  3.741001
H    -7.030788  2.596447  6.960158
H    -8.084661  1.813002  5.844990
H    -4.847810  2.167977  6.680163
N    -2.401307  3.682652  0.340842
C    -2.499660  3.453366  -1.101847
H    -2.288638  4.651204  0.639586
H    -1.837196  4.159775  -1.612274
H    -3.525870  3.615082  -1.456322
H    -2.181821  2.439924  -1.363339
Ba    -2.339860  2.593571  5.018492
