36
Energy: -246328.307685 eV PBE+vdW (tier 2 basis)
C    -0.313318  -2.654644  0.274814
C    -0.334669  -1.778373  1.485086
O    0.718927  -1.189401  1.878076
H    -0.017293  -2.047970  -0.592581
H    -1.277202  -3.129366  0.064622
H    0.452590  -3.431341  0.397833
N    -1.491611  -1.618431  2.141298
C    -1.719071  -0.684625  3.255154
C    -1.103482  -1.220547  4.568363
O    0.094927  -0.859820  4.840055
H    -2.310916  -2.098495  1.775727
H    -1.127541  0.218651  3.037630
C    -3.196108  -0.305405  3.355226
C    -3.717880  0.700420  2.327454
C    -5.216390  1.005172  2.570297
N    -5.500327  1.488203  3.907406
C    -5.741715  0.661289  4.999909
N    -5.727877  1.315113  6.214318
N    -5.863884  -0.630671  4.987554
H    -3.362216  0.113199  4.356377
H    -3.805482  -1.218380  3.315403
H    -3.603170  0.326958  1.297003
H    -3.144521  1.638189  2.397635
H    -5.819177  0.109537  2.346211
H    -5.543637  1.770194  1.856032
H    -5.744793  2.467415  3.994605
H    -6.231370  0.834655  6.951997
H    -5.808967  2.324489  6.234208
H    -5.989051  -0.982339  4.036256
N    -1.748122  -2.004375  5.418030
C    -3.089256  -2.609705  5.374265
H    -1.199040  -2.215590  6.251581
H    -3.133059  -3.349606  6.178121
H    -3.245791  -3.133177  4.424546
H    -3.894121  -1.869449  5.526190
Ba    2.160098  -0.399712  3.665785
