36
Energy: -246329.744507 eV PBE+vdW (tier 2 basis)
C    -2.185769  -0.228092  0.134597
C    -1.865179  -0.733369  1.511086
O    -1.109692  -1.721887  1.673016
H    -2.908024  0.594931  0.120782
H    -2.573758  -1.057391  -0.470424
H    -1.256613  0.108757  -0.344905
N    -2.425880  -0.075828  2.550485
C    -2.291731  -0.363633  3.991942
C    -0.826870  -0.135541  4.444609
O    0.024880  -1.055316  4.339810
H    -3.027855  0.704470  2.308372
H    -2.931348  0.380350  4.480980
C    -2.741997  -1.766430  4.425890
C    -4.105628  -2.261602  3.938504
C    -4.214763  -3.800072  3.994706
N    -3.319820  -4.462856  3.039124
C    -2.016069  -4.795461  3.195674
N    -1.446384  -4.782559  4.483172
N    -1.152176  -5.054453  2.243325
H    -2.703970  -1.786228  5.525961
H    -1.970807  -2.465065  4.094875
H    -4.288349  -1.944448  2.900504
H    -4.919677  -1.832699  4.540146
H    -5.238039  -4.112509  3.752560
H    -4.024235  -4.180913  5.008495
H    -3.619327  -4.409364  2.069387
H    -0.910695  -5.635046  4.645710
H    -2.082413  -4.613676  5.258858
H    -1.579370  -5.142380  1.318559
N    -0.491724  1.053896  4.944188
C    -1.335201  2.236916  5.137785
H    0.484674  1.129488  5.225856
H    -1.773276  2.577088  4.191475
H    -0.701626  3.042109  5.519783
H    -2.126468  2.052968  5.875365
Ba    0.586716  -3.122761  2.910544
