36
Energy: -246328.009746 eV PBE+vdW (tier 2 basis)
C    -0.548967  -0.836580  -0.018647
C    -1.092132  -1.266225  1.306130
O    -0.555276  -2.215853  1.955371
H    0.220502  -0.059884  0.118883
H    -1.323226  -0.434416  -0.680804
H    -0.064333  -1.695659  -0.494718
N    -2.153164  -0.625024  1.842627
C    -2.321282  0.826573  1.803958
C    -1.149549  1.457938  2.600805
O    -0.394344  0.711643  3.323573
H    -2.527069  -1.066686  2.683138
H    -2.250365  1.167276  0.760665
C    -3.702627  1.232005  2.356037
C    -3.971974  0.836799  3.814219
C    -5.164005  1.610947  4.423773
N    -4.923548  3.044062  4.498668
C    -5.278223  3.941556  3.492824
N    -6.580146  3.817606  3.059010
N    -4.373318  4.760115  3.053110
H    -4.462459  0.796693  1.691569
H    -3.793625  2.321039  2.255802
H    -3.085533  1.045022  4.440182
H    -4.184551  -0.242328  3.909619
H    -5.366524  1.216789  5.429602
H    -6.067679  1.438705  3.825547
H    -4.037270  3.315937  4.915946
H    -7.283547  3.591415  3.756060
H    -6.892419  4.485908  2.363626
H    -4.779197  5.511022  2.487760
N    -0.929610  2.756858  2.532044
C    -1.634574  3.781334  1.753175
H    -0.173576  3.088456  3.131198
H    -2.513673  4.176025  2.310235
H    -1.961843  3.372781  0.790719
H    -0.928589  4.594846  1.559875
Ba    0.621089  -1.412920  3.976619
