36
Energy: -246327.776398 eV PBE+vdW (tier 2 basis)
C    0.099094  1.884657  -0.816967
C    0.585098  1.673141  0.576931
O    1.881635  1.766420  0.802275
H    -0.973862  2.094518  -0.857759
H    0.294193  0.981425  -1.414050
H    0.650601  2.710154  -1.281922
N    -0.186605  1.399195  1.583999
C    -1.647978  1.342692  1.721897
C    -1.777100  1.443415  3.281334
O    -0.703943  1.545199  3.932003
H    0.153819  1.400808  2.607551
H    -2.080898  2.260737  1.294984
C    -2.307415  0.122931  1.049754
C    -2.129468  -1.243835  1.737943
C    -3.297531  -1.672856  2.650692
N    -4.590554  -1.699708  1.989613
C    -5.533122  -0.708767  2.072924
N    -6.751247  -1.043388  1.527810
N    -5.235758  0.461398  2.574136
H    -1.931833  0.072127  0.018283
H    -3.377892  0.350811  0.957083
H    -1.199549  -1.278964  2.328693
H    -2.013925  -2.009847  0.957771
H    -3.384467  -1.018974  3.524316
H    -3.088371  -2.681495  3.034016
H    -4.824459  -2.515863  1.438498
H    -7.498521  -0.365572  1.612640
H    -7.059758  -2.008404  1.573788
H    -6.064183  1.051118  2.658141
N    -2.987989  1.441514  3.800652
C    -3.191619  1.542848  5.242752
H    -3.837451  1.136233  3.221006
H    -2.631539  0.766578  5.780846
H    -4.260430  1.421011  5.441564
H    -2.864526  2.521540  5.615012
Ba    4.014926  2.049676  1.473694
