36
Energy: -246329.264794 eV PBE+vdW (tier 2 basis)
C    0.561360  0.538621  0.892307
C    -0.522330  -0.287594  1.506199
O    -0.272341  -1.195878  2.339574
H    0.298932  0.913959  -0.102569
H    1.473943  -0.064296  0.834851
H    0.784738  1.399475  1.542040
N    -1.825473  -0.055753  1.174773
C    -2.407789  1.274812  1.015490
C    -2.086701  2.092280  2.294848
O    -1.924022  1.494450  3.394404
H    -2.453923  -0.736635  1.606239
H    -1.970549  1.760370  0.130615
C    -3.954517  1.223791  0.860515
C    -4.561501  0.176678  -0.089482
C    -4.624460  -1.302300  0.338885
N    -5.433981  -1.645615  1.524387
C    -4.915569  -1.910666  2.759483
N    -5.451539  -2.936251  3.449416
N    -3.916998  -1.200638  3.292735
H    -4.255286  2.216246  0.497445
H    -4.427543  1.151477  1.853842
H    -4.031273  0.200889  -1.053953
H    -5.587311  0.507514  -0.306516
H    -3.626367  -1.741207  0.465350
H    -5.070873  -1.853337  -0.499270
H    -6.334910  -2.068520  1.321678
H    -5.346981  -2.977414  4.454821
H    -6.049551  -3.626854  3.011957
H    -3.970932  -0.269509  2.870692
N    -2.037729  3.414085  2.189143
C    -1.830162  4.322454  3.319760
H    -2.142416  3.824569  1.265570
H    -2.043036  5.342577  2.989809
H    -0.792926  4.269044  3.673532
H    -2.504512  4.059425  4.141691
Ba    -1.621499  -0.831265  4.497927
