36
Energy: -246327.781707 eV PBE+vdW (tier 2 basis)
C    -0.016438  0.162172  0.032561
C    -0.304570  0.309518  1.488058
O    0.697481  0.609732  2.291486
H    0.535036  1.041728  -0.324186
H    -0.923243  0.039398  -0.565825
H    0.629357  -0.713403  -0.125723
N    -1.481045  0.159677  2.013858
C    -2.796303  -0.123758  1.431695
C    -3.713399  0.368548  2.603187
O    -3.150598  0.536728  3.716596
H    -1.709313  0.339002  3.051245
H    -2.964203  0.490621  0.535617
C    -2.939919  -1.628923  1.080854
C    -4.058161  -1.948221  0.073849
C    -5.429287  -2.291728  0.696794
N    -6.544627  -2.065451  -0.204226
C    -6.938384  -0.798940  -0.550015
N    -7.889349  -0.740964  -1.540971
N    -6.386448  0.239701  0.022597
H    -3.059169  -2.206291  2.010773
H    -1.980689  -1.948937  0.649114
H    -3.734658  -2.792835  -0.549579
H    -4.189592  -1.094870  -0.606384
H    -5.605438  -1.710132  1.609207
H    -5.455534  -3.347272  0.996235
H    -6.788739  -2.813869  -0.841587
H    -8.327300  0.156060  -1.710590
H    -8.511970  -1.531974  -1.664716
H    -6.828336  1.108522  -0.279995
N    -4.990936  0.571892  2.356109
C    -5.909244  0.984661  3.412850
H    -5.426611  0.413103  1.386698
H    -6.918799  1.002052  2.991329
H    -5.656456  1.984939  3.787769
H    -5.879669  0.284490  4.257061
Ba    2.209125  1.189190  3.861036
