36
Energy: -246329.160011 eV PBE+vdW (tier 2 basis)
C    0.440014  0.902086  0.957394
C    -0.025931  -0.448708  1.401393
O    0.786798  -1.440872  1.401858
H    1.300928  1.215711  1.562778
H    -0.342761  1.663740  1.026926
H    0.779732  0.837242  -0.085377
N    -1.276283  -0.587754  1.797818
C    -2.000194  -1.824265  2.075764
C    -3.453904  -1.464320  1.614726
O    -3.750240  -0.270561  1.523411
H    -1.964294  0.183959  1.689900
H    -1.578871  -2.633339  1.459744
C    -2.026572  -2.231366  3.563988
C    -0.711512  -2.661104  4.237077
C    0.188413  -1.516983  4.740492
N    1.121169  -1.931142  5.781066
C    2.450430  -2.150101  5.643749
N    3.165493  -2.209861  6.791233
N    3.010505  -2.309918  4.442315
H    -2.732335  -3.069650  3.645920
H    -2.479844  -1.409234  4.139692
H    -0.155123  -3.355315  3.578595
H    -0.980517  -3.269020  5.113187
H    -0.449468  -0.730524  5.169128
H    0.764989  -1.037777  3.940557
H    0.748754  -1.979611  6.723290
H    4.120567  -2.542990  6.793294
H    2.789132  -1.900703  7.679263
H    4.027539  -2.259910  4.562069
N    -4.287791  -2.490188  1.383830
C    -5.688579  -2.313930  1.001316
H    -3.930825  -3.437311  1.449178
H    -6.345478  -2.804746  1.729257
H    -5.868279  -2.738712  0.006406
H    -5.905755  -1.242808  0.980996
Ba    2.495190  -2.974637  2.024389
