36
Energy: -246327.749789 eV PBE+vdW (tier 2 basis)
C    -1.474487  1.083959  -0.795779
C    -0.750737  0.966170  0.502717
O    0.352262  1.588817  0.668119
H    -2.572769  1.172595  -0.714547
H    -1.295048  0.188719  -1.414893
H    -1.071340  1.949284  -1.331083
N    -1.184353  0.204655  1.539302
C    -1.791507  -1.127908  1.448592
C    -0.701474  -2.098261  0.914238
O    0.448553  -1.673025  0.572549
H    -0.637596  0.361943  2.385037
H    -2.007702  -1.424093  2.487200
C    -3.114142  -1.115801  0.655113
C    -4.132812  -2.237010  0.870811
C    -5.447506  -1.910049  0.117402
N    -5.258572  -1.704040  -1.306753
C    -4.896379  -0.483972  -1.871561
N    -4.476673  -0.577822  -3.186300
N    -4.806594  0.662236  -1.273545
H    -2.899374  -1.050557  -0.416331
H    -3.593536  -0.169369  0.934810
H    -4.366142  -2.368035  1.939330
H    -3.766307  -3.203261  0.484521
H    -5.925186  -1.032104  0.582509
H    -6.150931  -2.740344  0.250451
H    -5.657940  -2.403384  -1.921754
H    -4.585534  0.282583  -3.713351
H    -4.701364  -1.416718  -3.708858
H    -5.260235  0.647001  -0.358102
N    -1.005482  -3.382968  0.845572
C    -0.093269  -4.430662  0.381922
H    -1.944097  -3.659546  1.123992
H    0.232074  -4.229272  -0.645315
H    -0.623504  -5.385945  0.408424
H    0.784259  -4.492532  1.036612
Ba    2.229135  0.055646  0.415936
