36
Energy: -246329.851317 eV PBE+vdW (tier 2 basis)
C    0.964211  2.247544  1.806090
C    0.551853  1.094458  2.673366
O    1.396322  0.244187  3.051805
H    0.153700  2.950184  1.586014
H    1.353574  1.848051  0.859376
H    1.788046  2.788651  2.288069
N    -0.754137  1.021248  3.009715
C    -1.476647  -0.061800  3.708103
C    -1.141671  -0.057756  5.211859
O    0.011035  -0.344642  5.626384
H    -1.339746  1.765048  2.643170
H    -2.532039  0.213679  3.599505
C    -1.303473  -1.431781  3.017650
C    -2.232741  -2.550692  3.531342
C    -1.601279  -3.532543  4.532689
N    -0.461531  -4.251422  3.965697
C    0.842020  -3.977936  4.220517
N    1.762303  -4.362058  3.278977
N    1.288273  -3.304495  5.268070
H    -0.255915  -1.753848  3.060327
H    -1.511556  -1.248325  1.955086
H    -2.591139  -3.127674  2.667337
H    -3.143054  -2.134186  3.989968
H    -2.351670  -4.265854  4.855777
H    -1.267866  -3.012565  5.438780
H    -0.669748  -4.941889  3.250519
H    2.655093  -4.687681  3.634939
H    1.449458  -4.829053  2.434312
H    0.587677  -3.295804  6.013321
N    -2.108865  0.249083  6.080217
C    -3.495672  0.654312  5.826228
H    -1.807796  0.233521  7.053740
H    -3.544213  1.573363  5.229453
H    -3.966140  0.857804  6.792246
H    -4.068207  -0.141637  5.335166
Ba    2.388539  -0.968492  5.004185
