36
Energy: -246329.142781 eV PBE+vdW (tier 2 basis)
C    -0.350348  1.073050  0.343947
C    -0.722526  0.292341  1.562472
O    -0.074692  0.390916  2.634162
H    -0.255400  2.139205  0.581683
H    -1.034727  0.931876  -0.497977
H    0.647602  0.729019  0.031981
N    -1.773361  -0.578708  1.512910
C    -3.083003  -0.269912  0.944906
C    -3.467808  1.183059  1.286631
O    -2.978311  1.753069  2.299508
H    -1.801123  -1.190076  2.326940
H    -3.062344  -0.386347  -0.147810
C    -4.121300  -1.281523  1.504007
C    -4.137098  -1.486645  3.038458
C    -5.365178  -0.993882  3.805603
N    -5.623349  0.454981  3.780730
C    -5.253123  1.280592  4.808355
N    -6.157669  2.234726  5.150823
N    -4.060362  1.158414  5.378182
H    -3.910428  -2.239423  1.011275
H    -5.116458  -0.979846  1.151188
H    -3.251140  -1.046511  3.523538
H    -4.058921  -2.562662  3.247947
H    -5.268105  -1.313648  4.852048
H    -6.264552  -1.481833  3.406285
H    -6.479438  0.728244  3.310355
H    -5.904528  2.962269  5.808298
H    -7.151412  2.091575  5.008149
H    -4.096870  1.600486  6.303541
N    -4.322836  1.822317  0.489942
C    -4.921743  1.351020  -0.763059
H    -4.536947  2.774595  0.779680
H    -4.152505  1.089114  -1.500407
H    -5.521610  2.165737  -1.177315
H    -5.581027  0.489877  -0.601539
Ba    -1.604247  1.498038  4.411939
