36
Energy: -246329.385545 eV PBE+vdW (tier 2 basis)
C    -0.060966  0.145451  1.194488
C    -0.572820  0.564531  2.537668
O    0.204893  0.736224  3.509678
H    0.876809  -0.402252  1.332528
H    0.166495  1.033896  0.584398
H    -0.774825  -0.476297  0.642854
N    -1.908820  0.773735  2.711227
C    -2.742888  1.438922  1.719980
C    -2.174466  2.868544  1.498228
O    -1.365631  3.357055  2.335482
H    -2.171553  0.987066  3.675127
H    -2.667351  0.883571  0.774253
C    -4.236614  1.443980  2.133929
C    -4.707136  2.473026  3.187276
C    -4.759943  2.029897  4.660502
N    -3.472550  1.643716  5.261615
C    -2.493118  2.480089  5.707462
N    -2.588611  3.841481  5.404093
N    -1.362346  2.124917  6.264274
H    -4.489509  0.419199  2.443920
H    -4.817879  1.616961  1.220211
H    -5.740955  2.752952  2.939517
H    -4.133179  3.407673  3.080642
H    -5.413310  1.153943  4.756294
H    -5.230073  2.820325  5.266235
H    -3.395213  0.684210  5.586666
H    -2.343086  4.423412  6.203597
H    -3.445522  4.162885  4.962888
H    -1.334180  1.150397  6.572219
N    -2.543606  3.564092  0.424141
C    -3.434943  3.174961  -0.670154
H    -2.143305  4.500292  0.374164
H    -3.398048  2.094911  -0.843889
H    -3.098517  3.674503  -1.584146
H    -4.470335  3.477942  -0.467662
Ba    0.225007  3.145590  4.383728
