36
Energy: -246327.932355 eV PBE+vdW (tier 2 basis)
C    -0.078559  -1.381848  0.268127
C    -0.371734  -0.706353  1.567049
O    0.471780  0.078610  2.099722
H    0.096047  -0.613514  -0.498074
H    -0.882547  -2.044596  -0.068055
H    0.851035  -1.959323  0.358083
N    -1.550924  -0.936419  2.163961
C    -2.011232  -0.228749  3.365797
C    -1.268666  -0.730335  4.624941
O    -0.297901  -0.019662  5.049288
H    -2.215494  -1.540113  1.685423
H    -1.654810  0.806524  3.268038
C    -3.545067  -0.181315  3.450403
C    -4.199756  0.714392  2.387918
C    -3.720434  2.187396  2.397624
N    -4.674545  3.141446  1.891206
C    -5.805388  3.475585  2.659475
N    -6.731935  4.207254  1.941675
N    -6.037140  3.163109  3.887543
H    -3.803808  0.197758  4.451568
H    -3.968451  -1.193241  3.390453
H    -5.280662  0.702620  2.584475
H    -4.072917  0.288727  1.380081
H    -2.796190  2.298166  1.807073
H    -3.472575  2.489286  3.431065
H    -4.838393  3.113441  0.888617
H    -7.496895  4.543234  2.518965
H    -6.373095  4.908352  1.301058
H    -5.346165  2.519578  4.276289
N    -1.585240  -1.844739  5.267108
C    -2.612338  -2.852120  4.983800
H    -1.022218  -2.006059  6.102819
H    -2.295802  -3.790977  5.448290
H    -2.711036  -3.023677  3.908301
H    -3.580501  -2.560155  5.408259
Ba    1.554438  1.167695  3.991443
