36
Energy: -246329.63349 eV PBE+vdW (tier 2 basis)
C    -1.200945  1.377909  -0.842317
C    -1.059756  0.202748  0.075917
O    0.070901  -0.185991  0.471233
H    -1.379514  2.296643  -0.261877
H    -2.025756  1.260908  -1.554711
H    -0.260014  1.510413  -1.385298
N    -2.169787  -0.444174  0.518083
C    -3.439739  0.207689  0.794639
C    -3.228046  1.247637  1.933219
O    -2.177663  1.239161  2.630261
H    -2.016447  -1.336463  1.002939
H    -3.761889  0.753959  -0.104644
C    -4.526223  -0.846492  1.122434
C    -4.609111  -1.413659  2.553806
C    -3.336044  -1.923514  3.235358
N    -2.568996  -2.867871  2.400660
C    -1.322882  -3.316446  2.809409
N    -1.050857  -4.615510  2.562530
N    -0.466304  -2.467023  3.347017
H    -4.396467  -1.654064  0.387512
H    -5.507671  -0.410590  0.892173
H    -5.356168  -2.221462  2.530380
H    -5.034286  -0.658089  3.231069
H    -3.612079  -2.392603  4.193082
H    -2.682239  -1.082149  3.484057
H    -3.147419  -3.595348  1.984682
H    -0.111892  -4.979888  2.669915
H    -1.774653  -5.289554  2.343095
H    0.335142  -2.987224  3.715866
N    -4.200535  2.129026  2.134933
C    -4.171451  3.157124  3.178401
H    -5.009212  2.102301  1.520371
H    -5.107782  3.719319  3.137257
H    -3.332386  3.844259  3.016450
H    -4.071291  2.695710  4.167702
Ba    0.116383  0.089490  2.998029
