36
Energy: -246327.405151 eV PBE+vdW (tier 2 basis)
C    0.573739  -0.335640  0.585561
C    0.209571  0.118874  1.958916
O    1.124562  0.729030  2.684918
H    1.316708  0.337162  0.145034
H    -0.301272  -0.397338  -0.069643
H    1.021610  -1.339388  0.641613
N    -0.960747  -0.069969  2.486851
C    -2.198303  -0.638981  1.953075
C    -3.216759  -0.136758  3.039934
O    -2.725888  0.443705  4.042591
H    -1.271259  0.321745  3.446903
H    -2.447451  -0.144554  1.001930
C    -2.164432  -2.179916  1.752010
C    -2.394378  -2.606535  0.289627
C    -3.173879  -3.926426  0.088344
N    -4.292369  -4.142137  0.997762
C    -5.226961  -3.204348  1.353213
N    -5.958652  -3.501000  2.478629
N    -5.392567  -2.027369  0.807207
H    -2.934987  -2.629049  2.391010
H    -1.208584  -2.568001  2.130032
H    -1.437391  -2.729421  -0.238136
H    -2.917902  -1.797065  -0.235239
H    -2.499602  -4.779057  0.240908
H    -3.495706  -3.972095  -0.965682
H    -4.430630  -5.093905  1.316094
H    -6.875566  -3.073028  2.528326
H    -5.875122  -4.410407  2.915098
H    -4.957905  -1.971742  -0.112974
N    -4.501124  -0.330109  2.817680
C    -5.521067  0.098178  3.768575
H    -4.836561  -0.888101  1.975969
H    -6.487118  0.090153  3.255148
H    -5.307955  1.109801  4.131485
H    -5.566357  -0.580361  4.631454
Ba    2.430753  1.918414  4.091290
