36
Energy: -246329.299422 eV PBE+vdW (tier 2 basis)
C    0.089663  0.619758  1.529516
C    -0.528581  0.711173  2.888946
O    0.165206  0.931329  3.913639
H    0.142487  1.621351  1.074419
H    -0.465011  -0.038376  0.851925
H    1.118601  0.260530  1.636742
N    -1.878129  0.567028  3.025777
C    -2.845504  1.131300  2.092373
C    -2.562764  2.651559  1.971694
O    -1.954634  3.241256  2.910406
H    -2.187689  0.547981  3.997653
H    -2.730116  0.638594  1.117423
C    -4.303850  0.954413  2.598213
C    -4.663639  -0.408130  3.240065
C    -4.900596  -0.372467  4.761902
N    -3.704397  -0.029807  5.542572
C    -3.300260  1.184513  6.003291
N    -4.132435  2.267296  5.846223
N    -2.096295  1.425156  6.499214
H    -4.959695  1.133206  1.737647
H    -4.516727  1.771422  3.301916
H    -3.899763  -1.165064  3.009190
H    -5.591451  -0.782732  2.787137
H    -5.240404  -1.359046  5.102179
H    -5.716308  0.319938  5.013292
H    -3.058558  -0.794268  5.717350
H    -5.106857  2.094394  5.621999
H    -4.018645  2.970253  6.570459
H    -1.600958  0.558001  6.726458
N    -2.983989  3.323827  0.904695
C    -3.709887  2.837730  -0.269685
H    -2.804447  4.327031  0.944100
H    -3.517894  1.774210  -0.438493
H    -3.362250  3.389477  -1.149188
H    -4.789862  2.998855  -0.157637
Ba    -0.594041  3.088348  5.092522
