36
Energy: -246329.398045 eV PBE+vdW (tier 2 basis)
C    -0.791339  -0.393272  0.974076
C    -0.490339  -0.052079  2.406238
O    0.758801  -0.197862  2.780885
H    -0.480688  -1.425294  0.761945
H    -0.204814  0.256316  0.310060
H    -1.851876  -0.276213  0.734689
N    -1.468207  0.349646  3.175513
C    -1.215481  0.642505  4.597396
C    -0.044353  1.605615  4.831639
O    1.066263  1.225779  5.321970
H    -3.142648  -0.076363  2.884257
H    -2.107214  1.193546  4.941048
C    -1.143452  -0.620929  5.478389
C    -2.500239  -1.341747  5.572520
C    -2.859556  -2.230036  4.355449
N    -4.279545  -2.212347  4.010292
C    -4.865351  -1.294575  3.222093
N    -6.184274  -1.408871  2.972636
N    -4.167167  -0.287294  2.695509
H    -0.831762  -0.324918  6.489445
H    -0.373469  -1.314619  5.101539
H    -3.289178  -0.586259  5.706705
H    -2.520529  -1.955599  6.482281
H    -2.595230  -3.276529  4.549032
H    -2.298502  -1.927720  3.464637
H    -4.889536  -2.863027  4.492692
H    -6.678679  -0.711483  2.431934
H    -6.701365  -2.241675  3.224097
H    -4.627183  0.306552  2.015564
N    -0.217907  2.889960  4.525403
C    -1.419080  3.529747  3.987978
H    0.567408  3.495140  4.759126
H    -1.117687  4.437644  3.456403
H    -2.111580  3.811375  4.792807
H    -1.916171  2.862334  3.277564
Ba    2.635297  -0.224624  4.143762
