36
Energy: -246327.994953 eV PBE+vdW (tier 2 basis)
C    1.631331  2.904691  1.180670
C    1.468108  1.447064  1.451975
O    2.455823  0.654789  1.287451
H    1.039386  3.557571  1.841399
H    1.311365  3.129497  0.149546
H    2.697490  3.143602  1.253647
N    0.296874  0.901083  1.856067
C    -1.042004  1.243791  1.361816
C    -1.128810  0.757213  -0.110037
O    -0.131060  0.214989  -0.687895
H    0.401336  -0.070897  2.145045
H    -1.735283  0.621114  1.949000
C    -1.424337  2.720874  1.571907
C    -2.912761  3.042325  1.732290
C    -3.088639  4.419470  2.410212
N    -2.485821  5.534580  1.698637
C    -1.274240  6.091990  2.076586
N    -1.139812  7.414940  1.702231
N    -0.369806  5.357963  2.654152
H    -1.007748  3.346455  0.772985
H    -0.923787  3.053728  2.491156
H    -3.412513  2.293359  2.368359
H    -3.443759  3.060662  0.764129
H    -2.643740  4.372293  3.414507
H    -4.161783  4.619080  2.529861
H    -3.112524  6.138722  1.181873
H    -0.273629  7.872809  1.960002
H    -1.952370  8.020645  1.760471
H    0.392810  5.941212  3.004836
N    -2.281279  0.917690  -0.736207
C    -2.544621  0.507133  -2.116673
H    -3.028639  1.384728  -0.226150
H    -3.592910  0.716168  -2.344409
H    -2.361085  -0.566819  -2.237322
H    -1.908373  1.065742  -2.813726
Ba    2.172733  -0.690976  -0.731757
