36
Energy: -246329.572503 eV PBE+vdW (tier 2 basis)
C    0.667126  2.125446  1.173185
C    0.213881  1.473417  2.447416
O    1.051442  1.527246  3.454345
H    0.944741  3.169054  1.371834
H    -0.101925  2.103323  0.396031
H    1.568367  1.622658  0.796773
N    -0.965564  0.905117  2.500369
C    -1.376708  0.350661  3.794302
C    -0.570344  -0.907786  4.160829
O    0.249011  -0.854733  5.134349
H    -2.470014  0.912658  -0.528448
H    -1.107286  1.059637  4.599143
C    -2.901121  0.137776  3.885074
C    -3.704676  1.435538  4.059434
C    -3.831978  2.349779  2.832892
N    -4.606180  1.760246  1.735441
C    -4.120544  1.303432  0.570341
N    -4.985569  1.064638  -0.435866
N    -2.817134  1.074598  0.409282
H    -3.105628  -0.502630  4.755737
H    -3.267741  -0.418379  3.011200
H    -3.267076  2.037778  4.871274
H    -4.716173  1.172908  4.403667
H    -2.852689  2.641784  2.438109
H    -4.345439  3.275253  3.127151
H    -5.615110  1.743076  1.844478
H    -4.692859  0.576081  -1.272048
H    -5.913062  1.470436  -0.442205
H    -2.120016  1.029155  1.214471
N    -0.684015  -2.046776  3.481717
C    -1.499326  -2.351138  2.308134
H    -0.117875  -2.807508  3.855017
H    -0.960021  -3.080581  1.694694
H    -1.653462  -1.446614  1.714334
H    -2.465532  -2.784348  2.597273
Ba    2.039536  0.810549  5.434951
