36
Energy: -246329.720679 eV PBE+vdW (tier 2 basis)
C    0.069293  -0.250930  2.396216
C    -1.245166  -0.370459  3.103279
O    -1.316483  -0.843162  4.269184
H    0.529971  0.724958  2.615869
H    -0.019997  -0.352656  1.309069
H    0.743805  -1.021375  2.783978
N    -2.387016  0.040833  2.492538
C    -2.475089  1.240343  1.674925
C    -2.373060  2.477819  2.620504
O    -2.404316  2.335122  3.873976
H    -3.238608  -0.126436  3.041169
H    -1.600489  1.263847  1.008887
C    -3.734463  1.243231  0.773318
C    -5.115771  1.544618  1.384284
C    -5.752144  0.504284  2.314076
N    -5.114863  0.532741  3.638476
C    -5.425290  -0.299698  4.698867
N    -6.340788  -1.264627  4.493456
N    -4.740118  -0.117253  5.815416
H    -3.752020  0.270976  0.259125
H    -3.567410  1.983955  -0.021844
H    -5.806806  1.670683  0.539588
H    -5.111799  2.525151  1.890960
H    -5.644284  -0.504431  1.887589
H    -6.829908  0.725459  2.391377
H    -4.884069  1.471738  3.953415
H    -6.521164  -1.962550  5.204965
H    -6.973671  -1.247640  3.703031
H    -5.138927  -0.661254  6.584017
N    -2.261380  3.667665  2.038694
C    -2.156192  4.945451  2.743938
H    -2.206704  3.695896  1.023853
H    -2.721491  5.705818  2.195301
H    -1.107476  5.261886  2.814285
H    -2.570240  4.837870  3.749446
Ba    -2.272826  0.781556  5.967050
