36
Energy: -246329.605992 eV PBE+vdW (tier 2 basis)
C    -0.565746  -1.814431  0.149314
C    -0.367133  -0.900915  1.317218
O    0.752446  -0.368718  1.551903
H    -0.890133  -1.235465  -0.729586
H    -1.312914  -2.592402  0.341486
H    0.393930  -2.277429  -0.102071
N    -1.400536  -0.621523  2.151154
C    -2.773909  -0.406974  1.730905
C    -2.837036  0.971192  1.003439
O    -1.828688  1.725321  0.963188
H    -1.137292  -0.012055  2.935577
H    -3.043742  -1.180931  0.997472
C    -3.752160  -0.528077  2.920186
C    -3.696417  0.526332  4.043250
C    -2.522152  0.458357  5.038450
N    -1.295326  1.136941  4.571186
C    -1.152944  2.525798  4.563677
N    -2.109326  3.260373  5.167005
N    -0.116171  3.017341  3.915292
H    -3.616380  -1.534670  3.342555
H    -4.773710  -0.522711  2.513675
H    -3.773826  1.543133  3.626863
H    -4.612331  0.388667  4.634848
H    -2.243330  -0.586610  5.228016
H    -2.843519  0.847774  6.018179
H    -0.429184  0.691711  4.868515
H    -2.066586  4.272294  5.136127
H    -2.721022  2.858989  5.868464
H    0.036569  3.999638  4.161221
N    -3.987502  1.305841  0.428572
C    -4.202978  2.555370  -0.303869
H    -4.756644  0.643726  0.466243
H    -5.258624  2.618485  -0.580111
H    -3.592318  2.580084  -1.214849
H    -3.943696  3.414240  0.325263
Ba    0.648107  2.172550  1.534909
