36
Energy: -246328.610781 eV PBE+vdW (tier 2 basis)
C    1.169998  1.989886  2.325558
C    0.424079  0.866483  2.972291
O    0.858488  0.333025  4.039800
H    1.184609  2.841251  3.021258
H    0.730534  2.316014  1.377234
H    2.213925  1.695790  2.159452
N    -0.715259  0.453708  2.404102
C    -1.696794  -0.498764  2.958831
C    -1.225089  -1.938582  2.654567
O    -0.214614  -2.390355  3.295421
H    -0.992974  0.916229  1.540608
H    -1.667847  -0.393752  4.055078
C    -3.074384  -0.101759  2.418852
C    -4.278759  -0.902549  2.961639
C    -5.255139  -1.307854  1.847257
N    -4.604098  -2.173121  0.850617
C    -4.322547  -1.709107  -0.466095
N    -3.923046  -2.744300  -1.305064
N    -4.248623  -0.495118  -0.866421
H    -3.035135  -0.173501  1.318912
H    -3.212884  0.965286  2.641395
H    -4.816483  -0.310280  3.713698
H    -3.946323  -1.815364  3.480345
H    -5.672585  -0.418213  1.353084
H    -6.108111  -1.844776  2.280424
H    -4.963566  -3.125730  0.866429
H    -3.812176  -2.421502  -2.263785
H    -4.467771  -3.602224  -1.260546
H    -4.542513  0.188242  -0.166809
N    -1.842205  -2.644778  1.735132
C    -1.430823  -3.982904  1.317303
H    -2.760967  -2.320518  1.355563
H    -0.339770  -4.042711  1.260973
H    -1.860910  -4.167313  0.327869
H    -1.793672  -4.743568  2.022084
Ba    1.459614  -1.827049  4.946199
