36
Energy: -246328.692187 eV PBE+vdW (tier 2 basis)
C    -0.878364  -0.315896  0.575748
C    -0.454161  -0.355286  2.011559
O    0.640826  -0.907194  2.333889
H    -1.809371  0.234826  0.406120
H    -1.008309  -1.349400  0.224217
H    -0.080759  0.129149  -0.032390
N    -1.271916  0.201003  2.917220
C    -1.217776  0.174314  4.391829
C    -0.091603  1.008525  5.017054
O    1.134573  0.824064  4.711694
H    -2.106329  0.631189  2.529796
H    -2.151180  0.664325  4.695988
C    -1.222624  -1.250340  4.996205
C    -2.596055  -1.935683  4.983137
C    -3.684421  -1.246232  5.837541
N    -3.276379  -0.955423  7.206060
C    -2.778890  0.239738  7.689256
N    -3.182963  1.405967  6.975024
N    -1.986185  0.428515  8.681465
H    -0.874989  -1.166740  6.036773
H    -0.492710  -1.879569  4.468074
H    -2.455837  -2.962307  5.352474
H    -2.974549  -2.041379  3.954095
H    -4.571388  -1.894905  5.856155
H    -4.017326  -0.313917  5.363209
H    -3.046419  -1.760608  7.780180
H    -4.138871  1.359542  6.621101
H    -3.120650  2.189103  7.628753
H    -1.678315  -0.441906  9.121957
N    -0.482420  1.841805  5.955872
C    0.386655  2.598384  6.849427
H    -1.501178  1.844491  6.176148
H    0.121736  2.342179  7.883268
H    0.233263  3.673638  6.694428
H    1.432258  2.350099  6.653404
Ba    2.709884  -0.542002  3.534181
