36
Energy: -246327.760373 eV PBE+vdW (tier 2 basis)
C    0.608514  1.277809  1.073444
C    -0.158065  0.202721  1.767989
O    0.206688  -0.235837  2.904003
H    0.617137  2.175164  1.707949
H    0.196198  1.539001  0.093476
H    1.653349  0.961473  0.954095
N    -1.253711  -0.302281  1.182059
C    -2.124976  -1.266799  1.859732
C    -1.416613  -2.626879  2.060783
O    -1.173993  -2.962259  3.270201
H    -1.561841  0.094921  0.297326
H    -2.221439  -0.908168  2.895289
C    -3.567411  -1.272426  1.311422
C    -3.830933  -1.584343  -0.162820
C    -5.262454  -1.206954  -0.562675
N    -5.482636  -1.535103  -1.967119
C    -6.787307  -1.371905  -2.500308
N    -7.761541  -2.077385  -1.803566
N    -6.914865  -0.595150  -3.510269
H    -3.965270  -0.270834  1.543412
H    -4.139126  -1.966862  1.945126
H    -3.684244  -2.650027  -0.381092
H    -3.139771  -1.027263  -0.821955
H    -5.434178  -0.132476  -0.346556
H    -5.981307  -1.766434  0.051089
H    -4.876474  -0.990435  -2.582940
H    -8.688228  -2.042947  -2.215336
H    -7.502199  -3.015116  -1.509378
H    -7.848606  -0.636635  -3.927922
N    -1.024146  -3.430561  1.082666
C    -1.036269  -3.278413  -0.372510
H    -0.610622  -4.299220  1.424893
H    -1.775592  -3.951232  -0.822627
H    -0.042574  -3.540339  -0.754673
H    -1.265243  -2.252122  -0.658247
Ba    0.218024  -1.716244  4.850460
