36
Energy: -246329.571534 eV PBE+vdW (tier 2 basis)
C    0.115177  -0.018561  0.892860
C    -0.738179  -0.408178  2.058435
O    -0.230877  -0.880439  3.111857
H    0.369062  1.051603  0.951076
H    -0.375744  -0.201996  -0.069828
H    1.053736  -0.579313  0.943407
N    -2.086727  -0.232271  2.010338
C    -2.741916  0.871546  1.324929
C    -2.308192  2.192827  2.008416
O    -1.838794  2.168014  3.182558
H    -2.589237  -0.646842  2.813662
H    -2.392414  0.887504  0.283470
C    -4.288872  0.687231  1.307617
C    -5.127117  1.388901  2.388116
C    -4.956800  0.953315  3.851522
N    -5.323093  -0.429065  4.118815
C    -4.485286  -1.415200  4.522893
N    -5.047112  -2.629369  4.728960
N    -3.176851  -1.194322  4.669300
H    -4.478766  -0.395971  1.311795
H    -4.654413  1.039230  0.334923
H    -6.183972  1.257356  2.111677
H    -4.961617  2.477104  2.356147
H    -5.573350  1.607449  4.485008
H    -3.923698  1.096736  4.182280
H    -6.315794  -0.637997  4.117961
H    -4.508398  -3.388842  5.123631
H    -6.038311  -2.796705  4.605777
H    -2.725901  -2.096831  4.851027
N    -2.439657  3.342097  1.352556
C    -2.985844  3.569152  0.013387
H    -2.162457  4.166714  1.884267
H    -2.557872  4.495157  -0.381797
H    -4.078585  3.671803  0.041335
H    -2.714767  2.754440  -0.666162
Ba    -1.149695  0.518074  5.029706
