36
Energy: -246328.658132 eV PBE+vdW (tier 2 basis)
C    -1.758300  1.562710  0.633105
C    -1.442045  1.413375  2.083161
O    -0.432456  2.017283  2.583415
H    -2.313456  2.505963  0.506302
H    -2.393356  0.759304  0.245377
H    -0.834033  1.634012  0.050868
N    -2.248569  0.670303  2.842404
C    -2.211139  0.634438  4.308649
C    -1.135785  -0.359178  4.807708
O    0.085521  -0.013370  4.757207
H    -3.103120  0.246578  2.394755
H    -1.827045  1.611434  4.643626
C    -3.625003  0.484928  4.905164
C    -4.562402  -0.647786  4.416006
C    -5.496646  -0.292303  3.249582
N    -4.813637  -0.197145  1.945654
C    -5.052686  0.936010  1.106074
N    -4.999748  0.621498  -0.239513
N    -5.133709  2.156213  1.487009
H    -4.133871  1.447471  4.748661
H    -3.499088  0.411234  5.995250
H    -5.206440  -0.929371  5.261053
H    -4.015933  -1.566955  4.142623
H    -5.996861  0.664529  3.451087
H    -6.290611  -1.049725  3.189582
H    -4.859846  -1.074447  1.428543
H    -5.207499  1.420489  -0.833541
H    -5.473256  -0.224407  -0.544440
H    -5.060306  2.270530  2.499958
N    -1.501747  -1.531916  5.298181
C    -0.592282  -2.551528  5.820520
H    -2.495920  -1.743525  5.307706
H    -1.051997  -3.023725  6.694700
H    0.350814  -2.082499  6.111008
H    -0.398612  -3.318145  5.059053
Ba    1.534976  1.772757  3.902772
