36
Energy: -246328.322678 eV PBE+vdW (tier 2 basis)
C    0.028284  -1.612366  0.132528
C    -0.135711  -0.861358  1.412786
O    0.876698  -0.483849  2.081362
H    0.583363  -0.982416  -0.576825
H    -0.923037  -1.906894  -0.322176
H    0.637885  -2.508085  0.309594
N    -1.372987  -0.581624  1.842133
C    -1.685479  0.264112  3.005430
C    -1.376305  -0.494701  4.316654
O    -0.271027  -0.223723  4.899184
H    -2.157544  -0.878067  1.264406
H    -0.956551  1.089461  3.007092
C    -3.093116  0.844737  2.849493
C    -3.551646  1.760747  3.994011
C    -5.071341  2.026909  3.969822
N    -5.859723  0.870237  4.368093
C    -6.306213  -0.104597  3.474230
N    -6.926018  -1.178912  4.095964
N    -6.084046  -0.165164  2.203089
H    -3.819897  0.033079  2.707755
H    -3.094002  1.414847  1.907052
H    -3.019303  2.723426  3.940397
H    -3.309299  1.317720  4.973089
H    -5.381179  2.395994  2.977435
H    -5.295448  2.837576  4.673378
H    -6.399700  0.985907  5.218802
H    -7.496429  -1.726021  3.457990
H    -7.371427  -1.017686  4.993227
H    -5.704384  0.710357  1.839118
N    -2.172590  -1.416458  4.833226
C    -3.472595  -1.934607  4.387504
H    -1.822282  -1.800793  5.711175
H    -3.590688  -2.936852  4.809826
H    -3.525011  -2.014491  3.298932
H    -4.294365  -1.300721  4.743160
Ba    2.022605  0.080202  4.142808
