36
Energy: -246329.193665 eV PBE+vdW (tier 2 basis)
C    1.468339  2.041744  0.535908
C    0.812238  1.007760  1.404557
O    1.513147  0.315959  2.201944
H    0.762573  2.631548  -0.058339
H    2.162088  1.529550  -0.145658
H    2.071928  2.718885  1.152825
N    -0.513661  0.855341  1.284268
C    -1.412707  -0.173747  1.838729
C    -1.669181  -0.132746  3.361685
O    -0.716141  0.269352  4.165610
H    -0.955114  1.496641  0.633103
H    -2.380876  0.095498  1.403997
C    -1.054525  -1.619803  1.380723
C    -1.966332  -2.181385  0.273775
C    -3.478734  -2.054955  0.537198
N    -3.890146  -2.437757  1.885526
C    -4.527396  -3.549499  2.230705
N    -4.676497  -4.590203  1.391274
N    -5.030855  -3.652736  3.477177
H    -1.108025  -2.282634  2.255053
H    -0.013679  -1.655168  1.035168
H    -1.698971  -3.238100  0.125985
H    -1.762194  -1.680340  -0.684656
H    -4.042978  -2.627541  -0.210675
H    -3.807791  -1.014422  0.398907
H    -3.621204  -1.738762  2.643439
H    -4.209822  -4.612371  0.495158
H    -5.364606  -5.311033  1.569177
H    -5.391891  -4.528833  3.831107
N    -2.827353  -0.588431  3.712212
C    -3.145861  -0.662170  5.132882
H    -5.150370  -2.827902  4.050336
H    -2.662553  0.129902  5.720874
H    -2.837023  -1.632305  5.557041
H    -4.231640  -0.568278  5.263422
Ba    1.544915  0.222734  4.651901
