36
Energy: -246328.189595 eV PBE+vdW (tier 2 basis)
C    -1.108482  0.280942  -0.385730
C    -0.694440  -0.082929  0.999303
O    0.511252  -0.387461  1.274339
H    -2.069592  -0.183557  -0.662079
H    -0.322891  -0.020491  -1.084558
H    -1.249247  1.370171  -0.477116
N    -1.597923  -0.066086  2.004352
C    -2.617793  0.969103  2.136653
C    -1.883812  2.313495  2.330843
O    -0.645763  2.323014  2.664735
H    -1.241302  -0.439487  2.884874
H    -3.235086  1.020380  1.215001
C    -3.548350  0.662922  3.332454
C    -4.229505  -0.720534  3.351416
C    -5.394543  -0.995429  2.379098
N    -5.013959  -1.302103  1.008586
C    -4.838773  -0.357044  0.028979
N    -4.275629  -0.824580  -1.151477
N    -5.028824  0.924753  0.155320
H    -4.312470  1.451103  3.379690
H    -2.961337  0.765815  4.260749
H    -4.632735  -0.840380  4.368091
H    -3.482459  -1.520363  3.233735
H    -6.120472  -0.166768  2.399024
H    -5.942954  -1.866909  2.757851
H    -5.052777  -2.277341  0.735770
H    -4.515473  -0.246454  -1.952609
H    -4.356144  -1.817839  -1.347369
H    -5.561070  1.116275  1.008119
N    -2.521113  3.458263  2.152469
C    -3.889960  3.685465  1.675387
H    -1.971428  4.287379  2.376788
H    -3.903349  4.635797  1.132564
H    -4.588010  3.758127  2.519429
H    -4.198179  2.887852  0.987870
Ba    1.609337  1.362177  2.615804
