36
Energy: -246329.42997 eV PBE+vdW (tier 2 basis)
C    0.103714  0.403543  1.240595
C    -0.944480  -0.286546  2.054311
O    -0.650954  -1.179425  2.893745
H    0.427305  1.324300  1.751193
H    -0.250337  0.675851  0.239841
H    0.977422  -0.250860  1.160707
N    -2.249387  0.058836  1.913863
C    -2.749290  1.399531  1.664578
C    -2.319330  2.292367  2.856066
O    -2.014793  1.746006  3.955002
H    -2.911414  -0.518379  2.445383
H    -2.327542  1.778472  0.723955
C    -4.303220  1.380826  1.580892
C    -4.918909  0.124837  0.920668
C    -5.612455  -0.820346  1.917596
N    -4.700303  -1.334624  2.958946
C    -4.988261  -1.361712  4.317298
N    -6.271530  -1.178434  4.694620
N    -3.978489  -1.511231  5.157172
H    -4.615459  2.279916  1.037240
H    -4.706046  1.492030  2.599549
H    -4.168621  -0.423094  0.333006
H    -5.685698  0.433919  0.198134
H    -6.084136  -1.652894  1.376586
H    -6.410716  -0.258735  2.417957
H    -4.122221  -2.124857  2.679814
H    -6.503377  -1.082340  5.676375
H    -7.041779  -1.392400  4.071409
H    -4.332575  -1.780377  6.080620
N    -2.306535  3.615095  2.723851
C    -2.644673  4.427900  1.554617
H    -2.070221  4.120463  3.577494
H    -1.997494  5.310819  1.543296
H    -3.690692  4.757974  1.595117
H    -2.476018  3.871928  0.627688
Ba    -1.535068  -0.472927  5.182172
