36
Energy: -246328.053318 eV PBE+vdW (tier 2 basis)
C    -0.015634  1.109552  0.684490
C    -0.221463  0.095033  1.762482
O    0.769744  -0.490851  2.295684
H    -0.874829  1.775121  0.546722
H    0.146680  0.566153  -0.261238
H    0.883300  1.700925  0.886453
N    -1.485915  -0.192261  2.106388
C    -2.005319  -1.331493  2.896669
C    -1.712730  -1.166824  4.397018
O    -0.541526  -1.326385  4.857528
H    -2.195277  0.332277  1.601729
H    -3.094664  -1.270641  2.764503
C    -1.564415  -2.722437  2.387969
C    -2.213038  -3.175245  1.071597
C    -1.877203  -2.329933  -0.159503
N    -2.323406  -2.995887  -1.375930
C    -2.093542  -2.324238  -2.601450
N    -0.736581  -2.065134  -2.830675
N    -3.106912  -2.008697  -3.314088
H    -1.823200  -3.448392  3.173569
H    -0.468057  -2.749541  2.282629
H    -3.305995  -3.227938  1.205125
H    -1.885632  -4.206785  0.876118
H    -0.789030  -2.175937  -0.225199
H    -2.335939  -1.321186  -0.074942
H    -3.322294  -3.207776  -1.349941
H    -0.127474  -2.856018  -2.628704
H    -0.547823  -1.683439  -3.753382
H    -2.851698  -1.660972  -4.243026
N    -2.744117  -0.899553  5.185397
C    -2.689461  -0.760441  6.640560
H    -3.653470  -0.777235  4.746837
H    -3.520676  -1.318422  7.085262
H    -2.776514  0.296656  6.922292
H    -1.741336  -1.160878  7.006183
Ba    1.804137  -1.490070  4.223752
