36
Energy: -246328.287269 eV PBE+vdW (tier 2 basis)
C    -0.012024  0.111132  0.621316
C    -0.287604  -0.025891  2.076478
O    0.635800  -0.329552  2.900162
H    0.884508  0.722373  0.456379
H    -0.862518  0.487611  0.032015
H    0.241523  -0.897016  0.253515
N    -1.539140  0.155494  2.560143
C    -2.410909  1.259764  2.158123
C    -1.745068  2.568523  2.630250
O    -0.762769  2.535392  3.451440
H    -1.636965  -0.123870  3.537777
H    -2.468269  1.289008  1.047661
C    -3.813387  1.083355  2.790488
C    -4.545922  -0.233191  2.470950
C    -5.177477  -0.352039  1.075811
N    -4.192026  -0.309304  -0.003418
C    -3.979727  0.773045  -0.832169
N    -5.117895  1.341806  -1.351958
N    -2.753015  1.190439  -0.997680
H    -4.441292  1.933095  2.490818
H    -3.704570  1.167745  3.884971
H    -5.352986  -0.345101  3.209894
H    -3.876911  -1.092837  2.639124
H    -5.894871  0.462887  0.912265
H    -5.746801  -1.291715  1.030142
H    -3.342817  -0.842683  0.152253
H    -4.996029  2.099217  -2.014228
H    -5.900047  0.728948  -1.562049
H    -2.663670  1.825316  -1.795411
N    -2.183199  3.734101  2.182222
C    -3.232309  3.997632  1.193913
H    -1.721508  4.547413  2.588264
H    -2.945776  4.887054  0.623306
H    -4.193002  4.192254  1.687236
H    -3.321208  3.154028  0.500901
Ba    1.207512  1.473638  4.460053
