36
Energy: -246329.195339 eV PBE+vdW (tier 2 basis)
C    0.006644  0.447507  0.358264
C    -0.055188  0.288615  1.844497
O    0.970087  0.496882  2.562939
H    -0.367943  1.443732  0.077146
H    -0.601122  -0.297891  -0.167959
H    1.045898  0.365113  0.028305
N    -1.203018  -0.073665  2.435711
C    -2.545205  0.009656  1.864285
C    -2.863099  1.475745  1.465096
O    -2.356901  2.435979  2.072431
H    -1.144705  -0.163076  3.449376
H    -2.579765  -0.610446  0.956114
C    -3.620845  -0.540773  2.845065
C    -3.398683  -0.421882  4.367047
C    -3.024111  0.950068  4.983357
N    -1.637773  0.935616  5.490761
C    -0.639291  1.832867  5.330422
N    -0.670049  2.739746  4.257001
N    0.482990  1.852766  6.020924
H    -3.761730  -1.608455  2.630966
H    -4.570598  -0.056202  2.580744
H    -2.651523  -1.165128  4.689186
H    -4.333518  -0.766345  4.828126
H    -3.687734  1.174376  5.829017
H    -3.129245  1.772558  4.269252
H    -1.470830  0.256505  6.230972
H    -1.372704  2.580250  3.503330
H    -0.688265  3.707098  4.580963
H    0.459195  1.299624  6.880213
N    -3.729697  1.611136  0.452417
C    -4.255092  2.891503  -0.016891
H    -4.073960  0.770249  -0.001938
H    -5.341768  2.931566  0.126938
H    -4.030737  3.022836  -1.082051
H    -3.782549  3.692652  0.556720
Ba    2.129919  2.095013  4.033400
