36
Energy: -246328.910452 eV PBE+vdW (tier 2 basis)
C    0.105886  1.626328  0.556205
C    -0.061245  0.781744  1.777527
O    0.970536  0.274927  2.341623
H    0.824764  1.160019  -0.127503
H    0.543388  2.587198  0.867158
H    -0.829515  1.827961  0.027921
N    -1.253258  0.520354  2.303494
C    -2.617621  0.900342  1.931527
C    -3.275430  1.137320  3.328132
O    -2.762217  0.575500  4.305895
H    -1.303432  0.173974  3.287090
H    -2.618136  1.817797  1.328428
C    -3.375932  -0.246161  1.219297
C    -2.951787  -0.625352  -0.208610
C    -1.726970  -1.534739  -0.400527
N    -1.838137  -2.867568  0.202962
C    -1.037524  -3.350178  1.185344
N    -0.923217  -4.694758  1.299282
N    -0.349117  -2.562526  2.013326
H    -4.431207  0.058941  1.180064
H    -3.357833  -1.130867  1.876113
H    -2.784141  0.279173  -0.814203
H    -3.810310  -1.124899  -0.681824
H    -0.805126  -1.081495  -0.019355
H    -1.571904  -1.672491  -1.480721
H    -2.427884  -3.534474  -0.286305
H    -0.691784  -5.090288  2.201180
H    -1.346127  -5.321650  0.625400
H    -0.775908  -1.630714  1.970173
N    -4.375101  1.899463  3.360232
C    -5.144162  2.161587  4.575945
H    -4.687504  2.337734  2.499584
H    -5.176288  3.238903  4.776907
H    -4.655095  1.651420  5.409670
H    -6.167908  1.783695  4.467161
Ba    1.863904  -1.863217  3.053282
