36
Energy: -246328.753626 eV PBE+vdW (tier 2 basis)
C    -1.144613  0.158329  0.338356
C    -0.789495  -0.027810  1.780474
O    0.214551  -0.738344  2.100126
H    -1.349265  -0.827044  -0.102629
H    -0.283785  0.576365  -0.199359
H    -2.013400  0.806095  0.183885
N    -1.557494  0.562927  2.699395
C    -1.550913  0.425317  4.167447
C    -0.378493  1.175386  4.803591
O    0.820063  0.763551  4.636818
H    -2.359283  1.083117  2.348540
H    -2.502103  0.917022  4.446677
C    -1.646121  -1.025908  4.697364
C    -2.637223  -1.104383  5.872794
C    -4.085256  -1.465355  5.469405
N    -4.552119  -0.991698  4.160675
C    -5.040332  0.286412  3.951653
N    -6.068082  0.355786  3.037666
N    -4.458116  1.299893  4.527806
H    -0.658682  -1.390880  5.023739
H    -1.976275  -1.678577  3.878301
H    -2.635431  -0.150710  6.418523
H    -2.305548  -1.862976  6.594452
H    -4.763266  -1.121700  6.264342
H    -4.168423  -2.558512  5.425483
H    -5.001739  -1.707031  3.601111
H    -6.459777  1.271386  2.848711
H    -6.749185  -0.396176  3.006558
H    -4.993239  2.159271  4.384333
N    -0.589852  2.236382  5.566388
C    -1.833415  2.911467  5.944337
H    0.267398  2.636485  5.951874
H    -1.874386  2.984096  7.037667
H    -2.711217  2.361052  5.589073
H    -1.837746  3.925469  5.525058
Ba    2.131611  -0.935436  3.531414
