36
Energy: -246330.025491 eV PBE+vdW (tier 2 basis)
C    -0.774386  0.725113  0.513967
C    -1.465371  0.015728  1.639738
O    -1.892515  -1.157211  1.497711
H    0.071757  0.116454  0.170160
H    -0.413637  1.725203  0.775968
H    -1.473199  0.809188  -0.329472
N    -1.604354  0.690305  2.801730
C    -2.345593  0.258010  4.002900
C    -1.691617  -0.999298  4.622977
O    -2.069848  -2.160102  4.308030
H    -1.248612  1.641092  2.812969
H    -2.215155  1.079533  4.719245
C    -3.849126  0.084257  3.750900
C    -4.658819  -0.202406  5.026401
C    -5.924404  -1.023957  4.744631
N    -5.557811  -2.337839  4.217510
C    -5.991891  -2.928698  3.071486
N    -7.226418  -2.591724  2.628218
N    -5.167120  -3.758662  2.439941
H    -4.004167  -0.719913  3.021030
H    -4.212093  1.003382  3.270878
H    -4.948671  0.735049  5.520211
H    -4.052826  -0.753878  5.764045
H    -6.551011  -0.516190  3.999170
H    -6.518136  -1.124635  5.664502
H    -4.797700  -2.818058  4.686175
H    -7.552474  -2.940081  1.735314
H    -7.939445  -2.269190  3.272354
H    -5.685513  -4.357634  1.791904
N    -0.716734  -0.825629  5.515177
C    -0.135458  0.428343  6.003646
H    -0.333181  -1.691031  5.892380
H    -0.875390  1.031253  6.545025
H    0.299892  1.013393  5.184535
H    0.667989  0.177319  6.701539
Ba    -2.577962  -3.473487  2.197101
