36
Energy: -246329.241341 eV PBE+vdW (tier 2 basis)
C    -1.164229  0.755098  -0.633541
C    -1.131325  0.942779  0.856426
O    -0.281759  0.193472  1.517838
H    -1.906732  1.399588  -1.112208
H    -1.382687  -0.295027  -0.870948
H    -0.175488  0.975568  -1.058372
N    -1.942749  1.815656  1.390914
C    -2.020787  2.000345  2.849410
C    -0.678585  2.465301  3.439430
O    0.120253  1.677920  4.033804
H    -3.408939  2.523649  0.850330
H    -2.698893  2.857124  2.976674
C    -2.648097  0.833020  3.654013
C    -3.537661  -0.176683  2.905460
C    -4.592146  0.322795  1.901255
N    -5.347207  1.518283  2.294331
C    -5.375526  2.666561  1.589270
N    -6.428779  3.491860  1.742945
N    -4.367371  2.990759  0.779560
H    -3.219960  1.283701  4.477492
H    -1.857650  0.254215  4.153397
H    -4.036940  -0.781858  3.676130
H    -2.910971  -0.881057  2.338604
H    -5.314987  -0.486581  1.724708
H    -4.128296  0.543925  0.936751
H    -6.069553  1.404399  2.998619
H    -6.408755  4.436410  1.379385
H    -7.317432  3.153606  2.091708
H    -4.498742  3.740996  0.111447
N    -0.341603  3.746448  3.297656
C    -1.101924  4.809961  2.641637
H    0.548288  4.002516  3.721424
H    -1.528702  4.449359  1.700096
H    -0.414344  5.630220  2.415014
H    -1.895127  5.196131  3.295856
Ba    1.138112  -0.409956  3.241740
