36
Energy: -246327.297592 eV PBE+vdW (tier 2 basis)
C    0.039533  -0.303968  0.133750
C    -0.033931  -0.209907  1.609352
O    1.030609  0.173101  2.278668
H    -0.932349  -0.115952  -0.336186
H    0.354637  -1.328592  -0.191399
H    0.775577  0.406614  -0.255495
N    -1.109839  -0.509176  2.292642
C    -2.399429  -1.024025  1.828004
C    -3.302636  -0.811742  3.077047
O    -2.752784  -0.580212  4.163394
H    -1.165625  -0.406661  3.331822
H    -2.758283  -0.419067  0.980908
C    -2.277118  -2.511198  1.421143
C    -3.360770  -3.036566  0.473299
C    -2.889953  -4.277002  -0.321727
N    -1.800186  -3.994433  -1.252757
C    -0.466757  -3.864633  -0.904225
N    -0.043038  -4.669550  0.146305
N    0.391480  -3.049865  -1.443798
H    -2.223810  -3.128782  2.329577
H    -1.303501  -2.622036  0.931845
H    -3.642830  -2.255231  -0.253189
H    -4.276758  -3.303972  1.021664
H    -3.732486  -4.676619  -0.900751
H    -2.588804  -5.075197  0.368560
H    -2.063524  -3.424453  -2.050668
H    0.970815  -4.726680  0.171374
H    -0.475254  -5.587650  0.198997
H    -0.046743  -2.486857  -2.178669
N    -4.623129  -0.931685  2.890569
C    -5.606428  -0.822385  3.966354
H    -4.965995  -1.091825  1.949046
H    -6.287890  0.015084  3.774371
H    -5.073244  -0.647941  4.904340
H    -6.187250  -1.749228  4.045554
Ba    2.962899  0.782393  3.275054
