36
Energy: -246328.133873 eV PBE+vdW (tier 2 basis)
C    -1.024080  1.494042  0.460289
C    -0.374467  0.523042  1.368275
O    0.841589  0.175892  1.185209
H    -1.264327  2.408964  1.025537
H    -0.343979  1.745914  -0.356967
H    -2.006160  1.178977  0.054744
N    -1.007016  -0.002062  2.452906
C    -2.348092  -0.603856  2.502320
C    -2.315597  -1.892507  1.630353
O    -1.230731  -2.302491  1.103695
H    -0.347166  -0.458926  3.080389
H    -2.458293  -0.939313  3.546924
C    -3.527454  0.319022  2.162133
C    -3.557478  1.636269  2.948500
C    -4.490620  2.677062  2.300129
N    -3.900957  3.450715  1.206818
C    -4.041712  3.123949  -0.129680
N    -4.026969  4.214456  -0.972237
N    -4.077594  1.873816  -0.493600
H    -4.454528  -0.228761  2.396983
H    -3.581482  0.533316  1.082309
H    -2.552130  2.072599  3.032654
H    -3.896340  1.449723  3.978782
H    -4.793034  3.398124  3.069617
H    -5.408974  2.188037  1.941290
H    -3.765581  4.436060  1.399430
H    -4.106777  4.033532  -1.965573
H    -4.469711  5.076554  -0.671340
H    -4.313730  1.788632  -1.484249
N    -3.443082  -2.563233  1.475176
C    -3.574133  -3.811164  0.721646
H    -4.285626  -2.165164  1.881037
H    -4.573323  -4.217663  0.897886
H    -2.827411  -4.538279  1.059265
H    -3.447215  -3.628605  -0.352749
Ba    1.145147  -2.136218  0.483826
