36
Energy: -246328.921944 eV PBE+vdW (tier 2 basis)
C    0.990901  -3.132925  0.345848
C    0.094273  -3.168981  1.550435
O    -0.594211  -4.160117  1.827557
H    1.873913  -3.753423  0.557905
H    1.333737  -2.126660  0.078594
H    0.474693  -3.589003  -0.505609
N    0.067299  -2.033756  2.331119
C    -0.327653  -1.983361  3.748696
C    -1.830054  -2.193136  4.022805
O    -2.394001  -1.591484  5.001307
H    0.746645  -1.326206  2.069125
H    0.147467  -2.837912  4.269347
C    0.237571  -0.703331  4.391608
C    -0.008131  0.655286  3.709071
C    -1.429832  1.215798  3.671780
N    -2.284535  0.537280  2.689167
C    -3.640295  0.665847  2.629172
N    -4.193107  0.603430  1.394380
N    -4.360473  0.779671  3.743514
H    1.326100  -0.840577  4.462196
H    -0.116413  -0.665817  5.430168
H    0.402037  0.673798  2.685177
H    0.601889  1.392730  4.249863
H    -1.387749  2.293088  3.444309
H    -1.883907  1.130182  4.667489
H    -1.825698  0.325266  1.807808
H    -3.658889  0.821187  0.561109
H    -5.198380  0.554174  1.282746
H    -5.304167  1.098840  3.507699
N    -2.471040  -3.078190  3.293560
C    -3.863322  -3.436102  3.508187
H    -1.853929  -3.645451  2.638551
H    -4.517258  -2.565017  3.352022
H    -4.019973  -3.840851  4.518786
H    -4.143119  -4.205163  2.782813
Ba    -4.070801  -0.286780  6.065768
