36
Energy: -246328.672878 eV PBE+vdW (tier 2 basis)
C    -1.033490  0.780977  1.512815
C    -1.135694  0.099864  2.721795
O    -0.261314  0.308037  3.670689
H    -1.642487  0.577687  0.638973
H    -0.387008  1.658848  1.478460
H    -2.646936  2.155176  2.030569
N    -2.061052  -0.914087  3.011628
C    -2.525224  -1.947526  2.095794
C    -1.344430  -2.795960  1.543332
O    -0.151161  -2.397571  1.632866
H    -1.861836  -1.268806  3.944640
H    -3.103426  -2.639213  2.730369
C    -3.506682  -1.464367  1.000436
C    -4.860575  -0.997616  1.560629
C    -4.929341  0.407772  2.166288
N    -4.997740  1.462013  1.136134
C    -4.470686  2.695773  1.232598
N    -5.079498  3.719638  0.612613
N    -3.345269  2.904861  1.924037
H    -3.694804  -2.300555  0.315747
H    -3.048331  -0.686250  0.378297
H    -5.192282  -1.699008  2.341376
H    -5.619066  -1.078586  0.766545
H    -4.070429  0.600348  2.815125
H    -5.832774  0.486218  2.790054
H    -5.757645  1.367961  0.466731
H    -6.055592  3.672110  0.345389
H    -4.596172  4.593449  0.441605
H    -3.048790  3.850924  2.131824
N    -1.592807  -3.994877  1.009997
C    -2.852789  -4.725767  0.889091
H    -0.758838  -4.474226  0.673595
H    -2.643826  -5.794779  1.001044
H    -3.319393  -4.564174  -0.091610
H    -3.554954  -4.436494  1.677404
Ba    1.500888  -0.621304  2.307618
