36
Energy: -246329.813341 eV PBE+vdW (tier 2 basis)
C    0.458064  0.050639  0.165845
C    0.232478  0.055744  1.644827
O    1.128485  0.434091  2.442746
H    -0.410694  -0.288102  -0.408190
H    1.315091  -0.595790  -0.065217
H    0.727993  1.065607  -0.154971
N    -0.969826  -0.354236  2.105431
C    -1.338693  -0.303756  3.521623
C    -0.758244  -1.529597  4.270444
O    0.321011  -1.360729  4.903943
H    -1.674821  -0.623564  1.424944
H    -0.758027  0.525658  3.941070
C    -2.820776  0.064291  3.695041
C    -3.335641  0.147321  5.142381
C    -2.454343  0.897067  6.160365
N    -1.968962  2.196427  5.700658
C    -0.659021  2.522950  5.536157
N    -0.384888  3.612151  4.761437
N    0.360908  1.814530  6.003477
H    -3.471486  -0.621245  3.135462
H    -2.934050  1.045227  3.209893
H    -3.496305  -0.859767  5.556200
H    -4.332291  0.609367  5.106820
H    -1.578262  0.287362  6.411022
H    -3.016616  1.022773  7.095918
H    -2.663328  2.918503  5.533172
H    0.447988  4.141156  4.993576
H    -1.139849  4.150259  4.351420
H    0.041665  1.232278  6.782958
N    -1.333115  -2.730993  4.237509
C    -2.535759  -3.178281  3.533968
H    -0.827095  -3.438115  4.769798
H    -2.493176  -4.268476  3.454127
H    -2.577342  -2.774644  2.517171
H    -3.449606  -2.910503  4.079072
Ba    2.169563  0.414776  4.731604
