36
Energy: -246329.17266 eV PBE+vdW (tier 2 basis)
C    0.405380  0.965128  0.625711
C    0.464463  0.438683  2.022128
O    1.593080  0.408136  2.637420
H    0.980096  0.304898  -0.039178
H    0.897789  1.945692  0.597095
H    -0.611509  1.060929  0.235742
N    -0.603897  -0.011433  2.653198
C    -1.980123  -0.218845  2.219919
C    -2.744065  -0.360955  3.569143
O    -2.098990  -0.660138  4.584930
H    -0.521439  -0.320143  3.638991
H    -2.338930  0.663436  1.671258
C    -2.165231  -1.478589  1.337087
C    -1.964850  -2.854516  2.004810
C    -0.553288  -3.465844  1.975215
N    0.464179  -2.843284  2.825282
C    0.629006  -2.996873  4.159150
N    -0.172301  -3.867788  4.802892
N    1.574840  -2.281819  4.784759
H    -1.519388  -1.383714  0.450056
H    -3.193268  -1.434825  0.950393
H    -2.599271  -3.572350  1.465307
H    -2.349926  -2.839303  3.035106
H    -0.155345  -3.434373  0.952295
H    -0.619000  -4.538352  2.217986
H    1.181440  -2.298292  2.367627
H    -0.151760  -3.942411  5.810925
H    -0.827509  -4.462455  4.313497
H    1.663900  -2.629518  5.744447
N    -4.071925  -0.192950  3.519476
C    -4.953736  -0.334590  4.676047
H    -4.491390  0.090101  2.639312
H    -5.703278  -1.113207  4.490030
H    -5.464831  0.613671  4.881187
H    -4.346089  -0.611543  5.541288
Ba    3.048876  -0.220637  4.437566
