36
Energy: -246329.175794 eV PBE+vdW (tier 2 basis)
C    -0.269126  0.629418  0.003343
C    -0.089910  0.546709  1.491654
O    0.935721  0.940357  2.063544
H    -0.332649  1.690042  -0.277074
H    -1.163566  0.114222  -0.364574
H    0.620336  0.220697  -0.489708
N    -1.125548  0.007067  2.215897
C    -1.215759  0.143371  3.670479
C    -0.277970  -0.829918  4.427934
O    -0.722937  -1.604567  5.347397
H    -1.951533  -0.294896  1.712325
H    -0.830796  1.148481  3.918791
C    -2.667774  0.065628  4.153951
C    -3.447437  -1.209261  3.791358
C    -4.717479  -1.354023  4.645058
N    -5.450792  -2.584926  4.419876
C    -5.252832  -3.748420  5.086215
N    -6.125346  -4.746925  4.820172
N    -4.247320  -3.879876  5.954668
H    -3.199794  0.947189  3.768422
H    -2.651445  0.199012  5.247943
H    -2.821037  -2.108168  3.897903
H    -3.752379  -1.195998  2.734277
H    -5.400695  -0.516794  4.446501
H    -4.488558  -1.283104  5.723210
H    -6.189270  -2.561929  3.726340
H    -6.000986  -5.667400  5.220103
H    -6.966061  -4.601361  4.274560
H    -4.368864  -4.778598  6.433272
N    0.993816  -0.770810  4.111916
C    2.043539  -1.576324  4.722944
H    1.219117  -0.064389  3.363089
H    1.850105  -2.646614  4.575921
H    2.118917  -1.367860  5.798097
H    2.993709  -1.320705  4.247018
Ba    -2.067398  -2.849167  6.876904
