36
Energy: -246328.327456 eV PBE+vdW (tier 2 basis)
C    -0.520869  -2.022710  0.601677
C    -0.621289  -1.122926  1.788797
O    0.421652  -0.699028  2.378496
H    0.034087  -1.502865  -0.191736
H    -1.494890  -2.333309  0.210034
H    0.062220  -2.914028  0.868582
N    -1.832928  -0.756057  2.226450
C    -2.036693  0.217605  3.307572
C    -1.581317  -0.358110  4.664653
O    -0.517464  0.131264  5.186777
H    -2.650346  -1.081677  1.715751
H    -1.336978  1.047852  3.119988
C    -3.464283  0.779881  3.304589
C    -3.602733  2.032893  4.190746
C    -5.060959  2.392542  4.571565
N    -5.524011  1.778226  5.804161
C    -5.793955  0.433672  5.946455
N    -5.681303  -0.055550  7.235206
N    -6.060417  -0.407623  4.991418
H    -4.173026  0.009222  3.630436
H    -3.719498  1.039638  2.265473
H    -3.146578  2.888903  3.670077
H    -3.043075  1.905496  5.131134
H    -5.747599  2.158679  3.742561
H    -5.135624  3.476703  4.714852
H    -5.467599  2.347057  6.640296
H    -6.261677  -0.869776  7.411734
H    -5.664721  0.606221  8.003203
H    -6.262771  0.077021  4.114650
N    -2.231381  -1.330181  5.281956
C    -3.392306  -2.126829  4.862417
H    -1.842216  -1.558728  6.196623
H    -3.405557  -3.029732  5.479688
H    -3.287409  -2.434363  3.816627
H    -4.351314  -1.583744  4.999102
Ba    1.703440  0.253420  4.219164
