36
Energy: -246327.560431 eV PBE+vdW (tier 2 basis)
C    0.423373  0.901519  0.832320
C    0.144970  -0.081223  1.923468
O    1.008744  -0.318874  2.823561
H    -0.141671  0.692726  -0.082162
H    1.497338  0.882417  0.614642
H    0.178501  1.922920  1.164198
N    -1.044810  -0.719348  1.974986
C    -2.320510  -0.058917  1.720061
C    -2.553412  0.970045  2.864072
O    -1.732219  1.064683  3.832886
H    -1.086423  -1.475054  2.660192
H    -2.245096  0.502148  0.776699
C    -3.456025  -1.097384  1.614970
C    -3.301636  -2.088749  0.457330
C    -3.297550  -1.433199  -0.946357
N    -3.712483  -2.304003  -2.016270
C    -5.057191  -2.688958  -2.133274
N    -5.241595  -3.701582  -3.056403
N    -6.064165  -2.219634  -1.479030
H    -4.408758  -0.558743  1.495808
H    -3.536425  -1.632150  2.576378
H    -4.153868  -2.780710  0.512086
H    -2.398266  -2.704389  0.585887
H    -2.294753  -1.053857  -1.197683
H    -3.970600  -0.557136  -0.949106
H    -3.036936  -3.001703  -2.313337
H    -6.223720  -3.896479  -3.226826
H    -4.690924  -3.653291  -3.908203
H    -5.792350  -1.555463  -0.752490
N    -3.625817  1.738122  2.792545
C    -4.002415  2.743055  3.791139
H    -4.247542  1.613294  1.997350
H    -4.921646  3.231472  3.458252
H    -3.212926  3.497041  3.891045
H    -4.180929  2.268086  4.763064
Ba    0.380896  0.577184  5.031785
