36
Energy: -246329.471773 eV PBE+vdW (tier 2 basis)
C    -2.291843  -0.292853  1.227996
C    -1.402159  -0.261711  2.440118
O    -0.113082  -0.275318  2.193643
H    -2.086267  0.583734  0.598832
H    -3.353042  -0.294877  1.490252
H    -2.062977  -1.179581  0.621738
N    -1.955233  -0.224048  3.622359
C    -1.157461  -0.253701  4.859496
C    -0.130636  0.884373  4.983045
O    1.085045  0.770561  4.644442
H    -3.563567  -0.878276  3.871812
H    -1.885926  -0.045399  5.659758
C    -0.544824  -1.638590  5.164485
C    -1.523405  -2.792989  4.903215
C    -2.812021  -2.726084  5.750816
N    -4.000178  -3.243456  5.073511
C    -4.862302  -2.498357  4.359732
N    -6.060986  -3.028119  4.048229
N    -4.553148  -1.257204  3.979515
H    -0.195340  -1.646865  6.208170
H    0.347718  -1.805417  4.544296
H    -1.010789  -3.746414  5.087443
H    -1.800390  -2.792850  3.840708
H    -3.045070  -1.696209  6.049527
H    -2.696537  -3.294449  6.681769
H    -4.201569  -4.234266  5.152896
H    -6.656677  -2.600900  3.350677
H    -6.434716  -3.823595  4.550983
H    -5.301153  -0.670887  3.627022
N    -0.590380  2.028648  5.484376
C    0.207672  3.236914  5.671171
H    -1.575748  2.069645  5.726429
H    -0.227266  3.826143  6.483828
H    0.218834  3.847581  4.758119
H    1.232615  2.960282  5.935531
Ba    2.142265  0.030946  2.564855
