36
Energy: -246328.123705 eV PBE+vdW (tier 2 basis)
C    -1.821499  1.617011  -1.604126
C    -0.953823  0.818220  -0.685148
O    0.309984  0.946530  -0.705753
H    -2.100079  2.572145  -1.130584
H    -2.743097  1.091149  -1.875671
H    -1.250400  1.854230  -2.508009
N    -1.510944  -0.033704  0.200806
C    -2.722366  0.267038  0.965195
C    -2.411756  1.486834  1.871910
O    -1.205208  1.907856  1.991932
H    -0.840231  -0.624268  0.693559
H    -3.522360  0.554888  0.266688
C    -3.185487  -0.966222  1.758709
C    -2.201013  -1.462332  2.842526
C    -2.895305  -1.759948  4.188986
N    -4.019308  -2.664087  4.091638
C    -5.329735  -2.234041  4.155894
N    -6.236765  -3.245244  4.375663
N    -5.609402  -0.979938  3.947885
H    -3.390662  -1.755655  1.023975
H    -4.153064  -0.741604  2.230949
H    -1.418405  -0.710261  3.056949
H    -1.673897  -2.363499  2.495850
H    -3.276755  -0.823585  4.618636
H    -2.155554  -2.173149  4.890181
H    -3.846308  -3.659305  4.150277
H    -7.211582  -2.983528  4.455177
H    -5.968953  -4.033133  4.955638
H    -6.596375  -0.795629  4.136864
N    -3.391437  2.092396  2.514721
C    -4.830155  1.797770  2.488574
H    -3.091634  2.853225  3.123568
H    -5.353892  2.677215  2.873371
H    -5.065055  0.913260  3.111994
H    -5.165477  1.620026  1.459826
Ba    1.136194  2.093832  1.317892
