36
Energy: -246328.277801 eV PBE+vdW (tier 2 basis)
C    -1.507268  -2.600303  0.768275
C    -1.056993  -1.807374  1.948941
O    0.156856  -1.874881  2.346185
H    -0.895013  -2.337568  -0.104532
H    -2.563129  -2.441992  0.535305
H    -1.342478  -3.667565  0.969528
N    -1.932342  -1.033643  2.590735
C    -1.487865  -0.192824  3.700805
C    -0.898665  -1.021812  4.862849
O    0.313541  -0.768148  5.185081
H    -2.880617  -0.883636  2.172711
H    -0.595698  0.339841  3.333562
C    -2.442085  0.956015  4.109641
C    -3.734138  0.771203  4.929191
C    -5.057248  0.503258  4.182696
N    -5.337162  -0.874593  3.823792
C    -5.054599  -1.555820  2.669585
N    -4.657759  -0.741702  1.571231
N    -5.050072  -2.842987  2.687281
H    -2.666589  1.507084  3.181958
H    -1.794090  1.632093  4.686273
H    -3.603942  0.035582  5.734819
H    -3.878898  1.729493  5.449803
H    -5.116795  1.151241  3.295726
H    -5.878728  0.835608  4.831502
H    -5.714627  -1.480198  4.544995
H    -4.804501  -1.227222  0.687393
H    -5.125366  0.165140  1.524551
H    -4.973507  -3.261545  1.758115
N    -1.545611  -1.977264  5.515499
C    -2.857763  -2.592121  5.305873
H    -0.999510  -2.364217  6.286359
H    -2.740322  -3.679179  5.382098
H    -3.265107  -2.366905  4.319241
H    -3.559281  -2.267163  6.083268
Ba    2.127914  -1.403910  3.677091
