36
Energy: -246329.451621 eV PBE+vdW (tier 2 basis)
C    -0.461627  0.940123  -0.168880
C    -0.068233  0.719843  1.257578
O    0.858183  1.383709  1.793431
H    0.400629  1.340337  -0.711748
H    -1.263851  1.692385  -0.225516
H    -0.813713  0.024970  -0.657974
N    -0.720092  -0.209191  2.006501
C    -2.148461  -0.462322  1.940659
C    -2.892648  0.788841  2.511551
O    -2.248044  1.761822  2.988054
H    -0.317952  -0.321163  2.938826
H    -2.440077  -0.525696  0.881685
C    -2.502046  -1.830207  2.587706
C    -1.830602  -2.174244  3.926181
C    -2.386228  -1.474808  5.188957
N    -1.374678  -1.267890  6.220107
C    -0.444753  -0.276534  6.170806
N    0.645018  -0.400954  6.958532
N    -0.572795  0.775961  5.365911
H    -2.207579  -2.596824  1.858873
H    -3.595058  -1.916863  2.678425
H    -0.746520  -1.996034  3.866566
H    -1.914883  -3.260576  4.063400
H    -3.186976  -2.073977  5.638302
H    -2.861827  -0.511125  4.948142
H    -1.285602  -1.979337  6.937264
H    1.202585  0.415791  7.167702
H    0.803967  -1.222740  7.527773
H    -1.536767  0.773094  5.018077
N    -4.220057  0.781712  2.422417
C    -5.104952  1.865515  2.848478
H    -4.661489  -0.032904  2.003604
H    -5.715319  1.545310  3.702071
H    -5.767830  2.144546  2.021412
H    -4.498946  2.727459  3.135648
Ba    0.050715  2.727746  3.793197
