36
Energy: -246328.313171 eV PBE+vdW (tier 2 basis)
C    -0.906028  0.634657  -0.803706
C    -0.414425  0.236647  0.545911
O    0.828577  0.080421  0.777153
H    -0.608179  1.669747  -1.028697
H    -1.991710  0.532653  -0.897978
H    -0.401152  -0.001430  -1.543308
N    -1.288430  0.050506  1.554950
C    -2.443833  0.912766  1.801339
C    -1.905052  2.291394  2.214759
O    -0.655750  2.450239  2.463605
H    -0.880014  -0.370579  2.391078
H    -3.036114  0.989017  0.855196
C    -3.347758  0.236808  2.852834
C    -4.058905  -0.993638  2.257527
C    -5.538727  -0.787119  1.905235
N    -5.891488  0.465012  1.212722
C    -5.582937  0.702096  -0.122089
N    -6.595348  1.302611  -0.832159
N    -4.380663  0.462549  -0.561741
H    -4.080006  0.960450  3.231524
H    -2.728581  -0.045088  3.720050
H    -4.022305  -1.824477  2.975166
H    -3.517303  -1.335195  1.366129
H    -6.124834  -0.773066  2.833575
H    -5.877010  -1.660138  1.324899
H    -6.811732  0.803860  1.474996
H    -6.416659  1.544186  -1.799996
H    -7.559086  1.055561  -0.632715
H    -4.341266  0.587163  -1.576271
N    -2.715426  3.334213  2.300598
C    -4.146428  3.422180  2.008748
H    -2.262695  4.194631  2.608523
H    -4.517411  2.489347  1.576502
H    -4.314499  4.241463  1.300009
H    -4.700093  3.633747  2.932257
Ba    1.698622  1.797142  2.304774
