36
Energy: -246329.606762 eV PBE+vdW (tier 2 basis)
C    0.798255  -0.543683  2.833686
C    0.127385  -1.263736  1.705331
O    0.247488  -2.507051  1.561708
H    0.142093  -0.529669  3.717902
H    1.065605  0.489025  2.584392
H    1.699958  -1.100299  3.110063
N    -0.634269  -0.568869  0.814744
C    -1.523153  0.515668  1.192008
C    -2.754494  -0.093180  1.937774
O    -2.869847  -1.341818  2.086303
H    -0.963481  -1.137864  0.034628
H    -1.003231  1.127479  1.944538
C    -1.839487  1.456736  0.001316
C    -2.190317  0.854841  -1.370108
C    -3.491172  0.046471  -1.491871
N    -3.408011  -1.318466  -0.972713
C    -2.834976  -2.399247  -1.569709
N    -2.527680  -2.305273  -2.883829
N    -2.564402  -3.462934  -0.818028
H    -0.946821  2.081603  -0.137605
H    -2.637168  2.152021  0.303929
H    -1.350344  0.258205  -1.759562
H    -2.268637  1.707483  -2.060317
H    -3.815257  0.029813  -2.542620
H    -4.312173  0.538861  -0.953693
H    -3.804063  -1.503308  -0.060471
H    -2.968266  -1.616223  -3.481364
H    -2.086024  -3.085430  -3.353980
H    -2.336418  -4.262546  -1.415118
N    -3.640449  0.768160  2.428735
C    -4.826597  0.417412  3.209969
H    -3.458680  1.759740  2.294612
H    -5.706545  0.916141  2.787979
H    -4.700893  0.738186  4.251684
H    -4.968319  -0.664991  3.179174
Ba    -1.969780  -3.752968  1.704900
