36
Energy: -246328.020111 eV PBE+vdW (tier 2 basis)
C    -0.765122  1.389220  0.352517
C    -0.439071  0.892134  1.724877
O    0.528040  0.094245  1.901493
H    -1.589896  2.108779  0.328889
H    -1.026657  0.527779  -0.278256
H    0.128646  1.848942  -0.089023
N    -1.203459  1.318204  2.744132
C    -1.189798  0.882941  4.159707
C    0.098040  1.339759  4.869199
O    1.173583  0.678414  4.743234
H    -1.960491  1.945856  2.488345
H    -2.029968  1.422643  4.611188
C    -1.454192  -0.620006  4.350376
C    -1.627949  -1.051100  5.810811
C    -2.939319  -0.565085  6.467723
N    -3.272956  -1.381366  7.611368
C    -3.788645  -2.679474  7.410356
N    -4.060393  -3.321207  8.595913
N    -4.004617  -3.263499  6.281253
H    -0.655037  -1.211523  3.876854
H    -2.363859  -0.864179  3.780816
H    -0.769015  -0.747542  6.429642
H    -1.647183  -2.149401  5.828636
H    -3.748046  -0.559765  5.706943
H    -2.843538  0.470026  6.825756
H    -3.677302  -0.888404  8.401946
H    -4.385293  -4.275783  8.487005
H    -3.444240  -3.162086  9.384779
H    -3.971051  -2.615262  5.491407
N    0.071264  2.423079  5.633853
C    -1.051467  3.328094  5.908057
H    0.958797  2.641195  6.086917
H    -1.450405  3.760445  4.983071
H    -0.677168  4.147043  6.528353
H    -1.848751  2.818370  6.462822
Ba    2.270659  -0.904014  3.244896
