36
Energy: -246328.947786 eV PBE+vdW (tier 2 basis)
C    -0.548603  0.089058  2.501719
C    -1.237074  -0.245653  3.788449
O    -0.610828  -0.220565  4.889520
H    -1.092759  0.874884  1.963493
H    -0.511651  -0.791060  1.841300
H    0.470254  0.425884  2.708926
N    -2.544336  -0.597640  3.777614
C    -3.136583  -1.522319  2.783787
C    -2.189501  -2.741416  2.609538
O    -1.489202  -3.068920  3.680805
H    -2.940941  -0.668912  4.712242
H    -4.029688  -1.910708  3.298920
C    -3.615142  -0.854153  1.485193
C    -4.828590  -1.579934  0.853971
C    -4.706701  -1.799979  -0.651357
N    -3.580588  -2.697214  -0.918772
C    -3.225538  -3.111563  -2.128890
N    -3.925076  -2.757248  -3.219028
N    -2.130499  -3.885481  -2.280392
H    -2.783324  -0.802444  0.769999
H    -3.889356  0.181235  1.722572
H    -5.745548  -1.006518  1.038431
H    -4.981093  -2.560219  1.328921
H    -4.556435  -0.836931  -1.169016
H    -5.642766  -2.245098  -1.025442
H    -3.015247  -2.979042  -0.073389
H    -3.643291  -3.045164  -4.147165
H    -4.755301  -2.185122  -3.146249
H    -1.931048  -4.341217  -3.161446
N    -2.167191  -3.353603  1.474088
C    -1.356544  -4.560823  1.359138
H    -1.636994  -4.227196  -1.466955
H    -1.852965  -5.267829  0.679314
H    -1.198023  -5.072660  2.317797
H    -0.365946  -4.322906  0.938083
Ba    -0.242789  -2.600455  5.607552
