36
Energy: -246329.083483 eV PBE+vdW (tier 2 basis)
C    0.239346  -0.043041  0.775237
C    -0.108024  0.137075  2.217695
O    0.824585  0.336028  3.073971
H    -0.625791  0.017049  0.108772
H    0.724472  -1.019458  0.632447
H    0.972018  0.722004  0.490843
N    -1.359216  0.080306  2.648022
C    -2.623659  -0.207086  1.972763
C    -3.669259  0.287965  3.020830
O    -3.292320  0.464403  4.189866
H    -1.583009  0.326860  3.635042
H    -2.710014  0.385195  1.050218
C    -2.819519  -1.710059  1.651860
C    -2.645908  -2.658847  2.858707
C    -1.272676  -3.357834  2.864292
N    -0.903350  -3.984487  4.132559
C    -0.203205  -3.352839  5.101499
N    0.389519  -4.112817  6.061261
N    -0.015606  -2.032857  5.117516
H    -2.131132  -1.990711  0.839806
H    -3.825474  -1.824177  1.227297
H    -3.430292  -3.426170  2.841348
H    -2.794813  -2.112489  3.802371
H    -0.472367  -2.647826  2.610407
H    -1.247468  -4.139847  2.093735
H    -1.158810  -4.956437  4.274059
H    0.480798  -3.715479  6.988352
H    0.334971  -5.124370  6.022587
H    -0.733036  -1.598941  4.528765
N    -4.922389  0.455043  2.583510
C    -6.031333  0.876623  3.437798
H    -5.112026  0.328076  1.594211
H    -6.834431  0.130618  3.410758
H    -6.424944  1.842214  3.098239
H    -5.660418  0.977049  4.460886
Ba    1.866506  -0.311398  5.146832
