36
Energy: -246328.737912 eV PBE+vdW (tier 2 basis)
C    1.049432  -1.542793  1.227414
C    0.453220  -0.408167  2.000292
O    1.199617  0.472127  2.527579
H    1.571446  -1.128509  0.352918
H    0.309588  -2.272975  0.883280
H    1.805155  -2.052901  1.837513
N    -0.880612  -0.347688  2.101509
C    -1.687950  0.767423  2.625823
C    -1.781777  0.715615  4.168308
O    -0.695701  0.864265  4.832912
H    -1.404315  -1.099049  1.659496
H    -1.114115  1.687067  2.426452
C    -3.011010  0.852399  1.849056
C    -3.831631  -0.454890  1.715117
C    -5.324230  -0.223368  2.002217
N    -5.505515  0.127598  3.412513
C    -6.219760  1.255663  3.902056
N    -6.866949  2.017242  2.953136
N    -6.084374  1.488444  5.159078
H    -2.775408  1.238659  0.848570
H    -3.618298  1.635046  2.326059
H    -3.477911  -1.233890  2.412181
H    -3.725038  -0.872677  0.703926
H    -5.904725  -1.118383  1.737728
H    -5.683677  0.596933  1.369416
H    -5.665370  -0.669194  4.024908
H    -7.365799  1.540438  2.207560
H    -7.368236  2.824143  3.310300
H    -6.697317  2.237033  5.489038
N    -2.940789  0.584640  4.764498
C    -3.116610  0.595712  6.217853
H    -3.819875  0.483809  4.203045
H    -4.185540  0.751392  6.401921
H    -2.536060  1.411847  6.661912
H    -2.782559  -0.356038  6.651747
Ba    1.629059  1.437465  4.712928
