36
Energy: -246328.533546 eV PBE+vdW (tier 2 basis)
C    -2.290651  2.117269  0.597082
C    -1.574430  1.418543  1.701249
O    -0.301225  1.271631  1.667786
H    -1.978045  3.171438  0.579780
H    -3.380610  2.058449  0.714149
H    -1.987646  1.680192  -0.363317
N    -2.278895  0.945809  2.726665
C    -1.654466  0.321015  3.896040
C    -0.914300  -0.969672  3.492583
O    0.358618  -0.981878  3.561904
H    -3.295587  1.208087  2.855645
H    -0.853563  0.984015  4.264258
C    -2.667413  0.097766  5.036293
C    -3.172149  1.347933  5.784728
C    -3.839108  2.462019  4.956271
N    -4.626617  1.913362  3.849072
C    -5.229013  2.739281  2.848171
N    -5.326586  4.072667  3.155899
N    -5.507410  2.140271  1.744988
H    -2.183640  -0.555398  5.776957
H    -3.522514  -0.472860  4.653279
H    -2.351573  1.802004  6.358447
H    -3.885790  0.979981  6.536212
H    -3.077247  3.121449  4.515121
H    -4.427236  3.085803  5.651053
H    -5.267322  1.164462  4.107252
H    -5.475301  4.355685  4.119000
H    -5.772969  4.673920  2.471830
H    -6.047309  2.727559  1.103188
N    -1.553190  -2.052854  3.066344
C    -2.982761  -2.292210  2.845892
H    -0.935836  -2.844515  2.886651
H    -3.456369  -2.701192  3.746972
H    -3.080449  -3.025669  2.039067
H    -3.490391  -1.375220  2.535081
Ba    1.865278  0.445822  2.264032
