36
Energy: -246329.842128 eV PBE+vdW (tier 2 basis)
C    -2.256228  -1.147283  0.701515
C    -2.031286  -1.097031  2.184812
O    -1.797404  -2.145791  2.833704
H    -2.508617  -0.178704  0.257396
H    -3.060916  -1.861848  0.485983
H    -1.349130  -1.533193  0.217185
N    -2.096336  0.117769  2.771726
C    -1.931360  0.466298  4.197024
C    -0.470537  0.220020  4.653306
O    -0.072067  -0.935282  4.944382
H    -2.288288  0.896573  2.149871
H    -2.134315  1.544920  4.239507
C    -2.881218  -0.256456  5.165369
C    -4.371745  -0.292980  4.819002
C    -5.105173  -1.442364  5.541921
N    -4.690648  -2.765524  5.061647
C    -3.640601  -3.520227  5.463755
N    -2.960539  -3.186777  6.650645
N    -3.093498  -4.516220  4.808689
H    -2.735156  0.205002  6.154238
H    -2.511912  -1.279924  5.262853
H    -4.518564  -0.421966  3.736010
H    -4.860942  0.654630  5.085810
H    -6.186277  -1.360271  5.374931
H    -4.971978  -1.383550  6.631882
H    -5.055720  -3.019068  4.147678
H    -2.810877  -4.018117  7.222115
H    -3.367453  -2.442592  7.212246
H    -3.631563  -4.808837  3.989925
N    0.318979  1.289486  4.730750
C    1.721905  1.253815  5.142608
H    -0.069858  2.191907  4.474214
H    1.965297  2.189682  5.654817
H    2.379682  1.139969  4.271039
H    1.876956  0.413152  5.824523
Ba    -0.643039  -3.436469  4.660033
