36
Energy: -246328.507903 eV PBE+vdW (tier 2 basis)
C    1.085534  -0.635915  0.551782
C    -0.060617  0.278186  0.860006
O    -0.362046  1.217699  0.064793
H    0.811693  -1.346430  -0.242353
H    1.439720  -1.197437  1.421147
H    1.905235  -0.022157  0.157732
N    -0.775101  0.106068  1.996514
C    -1.260745  -1.223977  2.405525
C    -2.632459  -1.458461  1.695413
O    -2.752474  -0.864222  0.519557
H    -1.448299  0.858132  2.145395
H    -0.580222  -1.955677  1.944997
C    -1.194099  -1.454876  3.917380
C    -2.023384  -0.504210  4.797607
C    -2.284887  -1.036964  6.232409
N    -3.698645  -1.381646  6.483107
C    -4.423524  -2.153806  5.661430
N    -5.750521  -1.988823  5.563170
N    -3.842464  -3.100825  4.895392
H    -0.136294  -1.395419  4.211561
H    -1.487558  -2.498133  4.079452
H    -2.993946  -0.293541  4.325375
H    -1.504011  0.460584  4.877645
H    -2.035849  -0.278736  6.981872
H    -1.640407  -1.900423  6.457598
H    -4.176982  -0.880468  7.225676
H    -6.228716  -1.203269  5.988586
H    -6.314026  -2.755135  5.211906
H    -2.931373  -3.399678  5.230667
N    -3.517008  -2.228023  2.230083
C    -4.723720  -2.498532  1.448936
H    -3.829183  -2.928749  3.849780
H    -4.487277  -2.861425  0.437938
H    -5.348600  -1.597219  1.343417
H    -5.318381  -3.267568  1.954842
Ba    -2.461498  0.686828  -1.199204
