36
Energy: -246329.816422 eV PBE+vdW (tier 2 basis)
C    0.206527  -0.518287  0.565576
C    -0.567031  -0.029819  1.749281
O    -0.156993  0.927811  2.451873
H    0.362026  0.318545  -0.128034
H    -0.281692  -1.341076  0.032959
H    1.200621  -0.845786  0.898103
N    -1.733640  -0.648514  2.047050
C    -2.589699  -0.207256  3.147618
C    -2.060134  -0.691169  4.513661
O    -1.468796  0.161616  5.232325
H    -2.043984  -1.407222  1.446982
H    -2.423083  0.873445  3.205660
C    -4.089090  -0.392551  2.848193
C    -4.647339  0.831831  2.096884
C    -5.303086  1.921717  2.972780
N    -4.642182  2.262657  4.246066
C    -3.456588  2.893362  4.398260
N    -2.984305  3.062943  5.724140
N    -2.609877  3.270030  3.475991
H    -4.633118  -0.545661  3.791164
H    -4.252168  -1.304937  2.258253
H    -5.428444  0.515756  1.392693
H    -3.853520  1.261616  1.467125
H    -6.305206  1.584920  3.263010
H    -5.447378  2.833322  2.372980
H    -5.247420  2.244258  5.060492
H    -2.900478  4.050322  5.969640
H    -3.508138  2.566711  6.443542
H    -2.998312  3.272377  2.531696
N    -2.196646  -1.950975  4.923611
C    -2.846691  -3.074370  4.248741
H    -1.797512  -2.134066  5.843418
H    -3.935148  -3.054636  4.385947
H    -2.460796  -4.001860  4.681855
H    -2.610193  -3.086646  3.179906
Ba    -0.311151  2.362385  4.537499
