36
Energy: -246329.072404 eV PBE+vdW (tier 2 basis)
C    -0.048038  2.635662  0.805106
C    -0.065165  1.367251  1.600357
O    1.003164  0.974270  2.184105
H    0.913377  2.741124  0.291172
H    -0.131646  3.481342  1.504889
H    -0.863868  2.713813  0.080590
N    -1.163417  0.637868  1.731195
C    -2.536264  0.843422  1.267250
C    -3.378463  0.470401  2.527267
O    -2.899137  -0.363054  3.305446
H    -1.174240  -0.092480  2.464046
H    -2.686977  1.887367  0.965311
C    -2.935140  -0.139928  0.142607
C    -2.229239  -0.072804  -1.221641
C    -0.734482  -0.425570  -1.303869
N    -0.383284  -1.615671  -0.524270
C    0.819564  -1.807887  0.042579
N    0.915893  -2.756482  1.088834
N    1.921448  -1.126803  -0.170795
H    -4.007272  0.015916  -0.045188
H    -2.869244  -1.156192  0.562336
H    -2.343209  0.926607  -1.667130
H    -2.780427  -0.748138  -1.893053
H    -0.111718  0.394734  -0.924214
H    -0.463648  -0.567764  -2.361259
H    -1.074620  -2.356634  -0.452250
H    1.565212  -3.513261  0.869443
H    0.029789  -3.140045  1.416465
H    1.893247  -0.562520  -1.021219
N    -4.583712  1.044848  2.642985
C    -5.523475  0.741266  3.721166
H    -4.859297  1.739345  1.956036
H    -6.458619  0.343237  3.309235
H    -5.740690  1.646663  4.300232
H    -5.066598  -0.006207  4.374869
Ba    2.793288  -0.635475  2.231051
