36
Energy: -246329.97214 eV PBE+vdW (tier 2 basis)
C    0.787116  -0.949138  0.485743
C    0.309147  0.081532  1.465706
O    0.936154  1.163209  1.614681
H    0.812968  -0.506244  -0.518587
H    0.172595  -1.855040  0.458734
H    1.819747  -1.224997  0.738305
N    -0.797450  -0.214817  2.175172
C    -1.457490  0.550843  3.253325
C    -2.212020  1.760619  2.660811
O    -1.569604  2.748226  2.214623
H    -1.211507  -1.119884  1.975297
H    -2.182944  -0.157489  3.668260
C    -0.545594  1.033988  4.400089
C    0.534657  0.055687  4.877906
C    1.718749  0.791568  5.527473
N    2.312993  1.733938  4.576856
C    2.486528  3.071646  4.753772
N    2.739512  3.499467  6.014126
N    2.362644  3.876722  3.702023
H    -1.208356  1.303459  5.235754
H    -0.064788  1.970260  4.094236
H    0.919735  -0.542775  4.038841
H    0.128674  -0.666159  5.599315
H    2.464613  0.060606  5.870315
H    1.382753  1.358264  6.406162
H    2.376693  1.424021  3.611998
H    2.797869  4.491481  6.207232
H    3.173022  2.883445  6.692303
H    2.801059  4.781704  3.894259
N    -3.543455  1.749360  2.642299
C    -4.463380  0.707739  3.111938
H    -3.961975  2.592819  2.252009
H    -4.302856  -0.238917  2.582012
H    -5.482736  1.040832  2.898354
H    -4.378714  0.553564  4.194657
Ba    0.742084  3.666948  1.657602
