36
Energy: -246329.0967 eV PBE+vdW (tier 2 basis)
C    -1.243955  1.938123  -0.219877
C    -1.209216  0.732634  0.668170
O    -0.356606  -0.201281  0.444879
H    -0.253986  2.412509  -0.241475
H    -1.987066  2.676568  0.096706
H    -1.477947  1.620354  -1.245198
N    -2.068715  0.665308  1.663926
C    -2.274413  -0.385928  2.655562
C    -3.427173  0.209019  3.532110
O    -3.734889  1.393624  3.370713
H    -2.711049  1.455237  1.880630
H    -2.637965  -1.294147  2.148669
C    -1.017416  -0.739268  3.480192
C    -0.271613  0.469159  4.078476
C    1.227427  0.482442  3.774806
N    1.931048  -0.661619  4.354762
C    2.864342  -1.435518  3.749763
N    3.716672  -2.089911  4.573570
N    2.917821  -1.572770  2.420200
H    -0.335681  -1.321104  2.841433
H    -1.322515  -1.437286  4.270585
H    -0.423156  0.509603  5.166225
H    -0.685960  1.413730  3.698840
H    1.676233  1.412845  4.155929
H    1.405627  0.471584  2.692504
H    1.908177  -0.711091  5.369037
H    4.310662  -2.832124  4.227538
H    3.824705  -1.838504  5.548853
H    3.811797  -2.025200  2.199592
N    -3.996224  -0.619533  4.421065
C    -5.090974  -0.214514  5.302713
H    -3.731927  -1.598990  4.417003
H    -4.886504  -0.546321  6.326741
H    -6.041090  -0.647078  4.964594
H    -5.167448  0.875692  5.279537
Ba    1.591581  -1.545768  0.218059
