36
Energy: -246327.897628 eV PBE+vdW (tier 2 basis)
C    0.149881  -1.828776  0.600444
C    -0.028661  -1.143399  1.914928
O    0.828461  -1.279012  2.840610
H    -0.375918  -1.327904  -0.220630
H    -0.271635  -2.848289  0.693803
H    1.212904  -1.922697  0.359016
N    -1.152371  -0.424825  2.086907
C    -1.791193  0.038574  3.339902
C    -1.068092  1.256831  3.929425
O    0.092982  1.140035  4.433489
H    -1.759579  -0.395305  1.272683
H    -2.789973  0.360025  3.022115
C    -1.985971  -1.050450  4.421163
C    -2.994433  -2.159917  4.079699
C    -2.624930  -2.993931  2.851599
N    -3.345268  -4.258463  2.798831
C    -3.112556  -5.087901  1.675553
N    -1.742563  -5.222578  1.373845
N    -3.981720  -5.676872  0.950277
H    -2.322800  -0.534938  5.333556
H    -1.014193  -1.507034  4.664936
H    -3.999597  -1.724470  3.962002
H    -3.051604  -2.827838  4.952068
H    -1.549848  -3.223577  2.879467
H    -2.798293  -2.407015  1.925943
H    -4.344117  -4.161463  2.972554
H    -1.642948  -5.892654  0.611804
H    -1.192800  -5.528299  2.177000
H    -4.944622  -5.412411  1.176264
N    -1.681664  2.432108  3.952432
C    -3.009506  2.794169  3.438918
H    -1.149633  3.174115  4.407372
H    -3.102549  2.554467  2.373446
H    -3.126948  3.875390  3.551835
H    -3.805907  2.302338  4.010712
Ba    2.044842  -0.291520  4.666811
