36
Energy: -246328.460552 eV PBE+vdW (tier 2 basis)
C    2.654367  -0.938680  3.044209
C    1.366147  -0.952444  3.798993
O    1.167401  -1.784943  4.738008
H    3.475875  -0.744067  3.747673
H    2.681736  -0.187823  2.247973
H    2.832908  -1.931574  2.610648
N    0.415304  -0.064779  3.478112
C    -0.834943  0.084032  4.235166
C    -1.749877  -1.143664  4.040660
O    -1.883522  -1.942316  5.034043
H    0.615288  0.614394  2.747702
H    -0.562512  0.042063  5.301490
C    -1.504965  1.439652  3.974548
C    -2.673549  1.697588  4.937543
C    -3.554954  2.890780  4.520733
N    -4.253164  2.662285  3.261418
C    -3.725572  2.999314  2.019336
N    -3.263335  4.296634  1.933186
N    -3.687897  2.087233  1.097180
H    -1.851856  1.504122  2.934119
H    -0.739197  2.219507  4.106992
H    -2.292456  1.869387  5.957118
H    -3.320759  0.805235  4.997311
H    -2.946454  3.798969  4.423723
H    -4.289330  3.083108  5.315136
H    -4.756083  1.780505  3.204146
H    -2.941126  4.599515  1.020887
H    -3.790127  5.006207  2.434555
H    -3.496862  2.481682  0.172034
N    -2.370838  -1.399848  2.901971
C    -2.311896  -0.715257  1.604219
H    -2.976379  -2.219583  2.947315
H    -2.651105  -1.428190  0.846483
H    -1.279870  -0.436845  1.366673
H    -2.958946  0.187937  1.553932
Ba    -0.169082  -3.104462  6.294395
