36
Energy: -246327.936593 eV PBE+vdW (tier 2 basis)
C    -1.403506  -0.581755  0.227381
C    -1.301634  -0.773080  1.691364
O    -0.332555  -1.416199  2.218810
H    -1.612197  0.458244  -0.056378
H    -2.297388  -1.167095  -0.117336
H    -0.498823  -0.936460  -0.271666
N    -2.259515  -0.290294  2.519544
C    -2.889831  1.014583  2.365316
C    -1.773429  2.078968  2.501783
O    -0.624282  1.755940  2.953357
H    -2.175127  -0.616790  3.481640
H    -3.330255  1.080587  1.355729
C    -4.028999  1.226646  3.413198
C    -5.449191  1.360672  2.836193
C    -6.201890  0.050107  2.527790
N    -5.432810  -0.990513  1.852778
C    -4.890073  -0.955033  0.586052
N    -5.002063  0.272219  -0.085876
N    -4.196606  -1.889717  0.023210
H    -3.807099  2.128566  4.000048
H    -3.992321  0.393470  4.131817
H    -5.418436  1.999279  1.944085
H    -6.064530  1.907653  3.564712
H    -7.127383  0.299937  1.980228
H    -6.532798  -0.396449  3.474021
H    -5.493851  -1.917472  2.254880
H    -4.766801  0.139356  -1.068252
H    -5.911968  0.721915  -0.001159
H    -4.127523  -2.730591  0.602295
N    -2.010125  3.332124  2.141568
C    -3.233193  3.898666  1.569447
H    -1.240553  3.978871  2.310647
H    -2.957845  4.770503  0.968480
H    -3.927634  4.217598  2.356989
H    -3.726618  3.170596  0.917084
Ba    1.177595  0.110938  3.378799
