36
Energy: -246328.528659 eV PBE+vdW (tier 2 basis)
C    0.755845  2.572263  1.089648
C    0.438880  1.339139  1.874708
O    1.248245  0.360895  1.893181
H    1.666327  3.024660  1.508191
H    -0.047305  3.316240  1.103313
H    0.982296  2.302855  0.050368
N    -0.708278  1.305151  2.563417
C    -1.135728  0.286013  3.541839
C    -1.763377  -0.904480  2.780906
O    -0.983789  -1.658109  2.102065
H    -1.313550  2.120268  2.489684
H    -0.223573  -0.108269  4.017707
C    -2.016030  0.991417  4.579054
C    -2.489352  0.132220  5.772096
C    -3.979954  0.340741  6.079763
N    -4.828480  -0.090171  4.949955
C    -5.593586  0.763707  4.105823
N    -5.205060  2.101991  4.106449
N    -6.465221  0.354644  3.262232
H    -2.886372  1.427320  4.058310
H    -1.439105  1.848082  4.954542
H    -1.899667  0.371762  6.666907
H    -2.324470  -0.940168  5.583590
H    -4.169924  1.390165  6.340998
H    -4.258378  -0.241424  6.967266
H    -5.357609  -0.932047  5.162862
H    -5.828155  2.638354  3.504730
H    -5.119777  2.541172  5.020185
H    -6.620770  -0.656567  3.296953
N    -3.062925  -1.090996  2.826490
C    -3.778297  -2.131496  2.093229
H    -3.636287  -0.562931  3.522781
H    -3.165928  -2.495949  1.265432
H    -4.708957  -1.701361  1.706727
H    -4.021016  -2.970559  2.759145
Ba    1.313266  -2.015713  1.444953
