36
Energy: -246329.208583 eV PBE+vdW (tier 2 basis)
C    0.666188  3.130245  2.064126
C    0.530204  1.641045  2.048153
O    1.452847  0.896792  2.472056
H    0.604249  3.504347  3.096486
H    -0.076727  3.644384  1.446879
H    1.672477  3.380078  1.703809
N    -0.614963  1.064860  1.579050
C    -1.951493  1.573374  1.882007
C    -1.990759  1.941379  3.389967
O    -1.318953  1.259977  4.213341
H    -0.502939  0.061660  1.421352
H    -2.170099  2.458850  1.264736
C    -3.063683  0.513363  1.680845
C    -3.279942  -0.158677  0.311272
C    -2.356142  -1.339593  -0.072110
N    -2.058229  -2.227171  1.066008
C    -0.878678  -2.216108  1.742769
N    0.239683  -1.884458  1.004482
N    -0.722435  -2.391150  3.043853
H    -4.001521  1.024565  1.938166
H    -2.934468  -0.256566  2.457716
H    -3.244642  0.578545  -0.503907
H    -4.314123  -0.532382  0.322714
H    -1.409934  -0.967880  -0.478705
H    -2.831133  -1.920382  -0.872901
H    -2.863818  -2.533940  1.604528
H    1.118031  -2.163513  1.429780
H    0.217111  -2.103550  0.012303
H    -1.608045  -2.658775  3.483836
N    -2.775386  2.950235  3.747679
C    -3.022470  3.390550  5.120339
H    -3.257220  3.454127  3.006830
H    -2.430302  2.776791  5.802413
H    -4.086972  3.282445  5.360915
H    -2.736779  4.443418  5.229448
Ba    0.554860  -0.487169  4.442309
