36
Energy: -246327.998549 eV PBE+vdW (tier 2 basis)
C    -1.595650  -0.418380  4.955984
C    -2.406624  -1.471489  5.645455
O    -2.222087  -1.668330  6.889719
H    -2.136521  0.078762  4.147682
H    -0.677232  -0.852330  4.532070
H    -1.298320  0.320289  5.708222
N    -3.359930  -2.201734  5.015306
C    -3.210342  -2.965217  3.755876
C    -2.366129  -4.213594  4.129843
O    -1.453195  -4.111058  5.031820
H    -3.928494  -2.708909  5.695604
H    -4.226148  -3.303875  3.494033
C    -2.646338  -2.147094  2.571546
C    -2.882276  -2.699067  1.154603
C    -4.336965  -2.619502  0.601622
N    -4.955458  -3.934277  0.347884
C    -5.142442  -4.767638  1.442002
N    -5.949106  -4.241207  2.438218
N    -4.578082  -5.922475  1.650015
H    -1.565912  -1.999421  2.702807
H    -3.113299  -1.153341  2.628806
H    -2.516306  -3.733966  1.076824
H    -2.227122  -2.116811  0.492723
H    -4.344295  -2.082207  -0.353070
H    -4.984520  -2.043211  1.275731
H    -4.488554  -4.423650  -0.413777
H    -6.304555  -4.956701  3.067135
H    -6.679026  -3.613817  2.110204
H    -3.979636  -6.185066  0.861736
N    -2.629146  -5.362002  3.551359
C    -1.878863  -6.585872  3.820992
H    -3.439234  -5.482892  2.867002
H    -2.269241  -7.368736  3.164555
H    -2.013775  -6.908199  4.862351
H    -0.809514  -6.443081  3.624811
Ba    -0.765397  -3.606826  7.304718
