36
Energy: -246327.75313 eV PBE+vdW (tier 2 basis)
C    -0.810608  -1.283703  0.947541
C    -0.619512  -0.374987  2.115519
O    0.429355  0.334232  2.231224
H    -0.789933  -0.686709  0.025070
H    -1.749434  -1.845369  0.987454
H    0.030488  -1.987529  0.891104
N    -1.577566  -0.305724  3.051326
C    -1.523401  0.668615  4.146751
C    -0.381762  0.350617  5.140120
O    0.582356  1.187833  5.180569
H    -2.446325  -0.816866  2.900208
H    -1.165174  1.605094  3.693484
C    -2.902867  1.040727  4.736091
C    -3.866297  0.005758  5.328086
C    -4.453014  -1.031069  4.342446
N    -5.754345  -1.483846  4.763000
C    -6.884035  -0.665416  4.530517
N    -8.046831  -1.254507  4.972357
N    -6.901966  0.493722  3.971156
H    -3.424369  1.574745  3.925084
H    -2.699085  1.806657  5.499217
H    -3.448340  -0.497836  6.208298
H    -4.714723  0.591016  5.709201
H    -3.814703  -1.926834  4.272049
H    -4.495071  -0.585635  3.320150
H    -5.934070  -2.478515  4.664043
H    -8.865658  -0.662669  4.877082
H    -8.011059  -1.788919  5.833617
H    -6.015708  0.738225  3.524981
N    -0.330125  -0.721831  5.916908
C    -1.194846  -1.896690  6.005204
H    0.482816  -0.729258  6.534722
H    -1.902416  -1.921274  5.176796
H    -1.742892  -1.898875  6.954732
H    -0.567329  -2.794788  5.959153
Ba    2.020363  1.841940  3.311009
