36
Energy: -246329.213989 eV PBE+vdW (tier 2 basis)
C    0.346035  1.063980  0.759203
C    -0.122600  0.668438  2.135960
O    -0.297442  1.662570  2.981029
H    -0.335089  1.824833  0.355968
H    0.379430  0.219691  0.065021
H    1.343274  1.527430  0.800954
N    -0.311321  -0.594181  2.401664
C    -0.950213  -1.008983  3.643832
C    -0.286308  -0.567815  4.956093
O    0.886408  -0.085265  5.015881
H    0.226042  -1.794221  1.271766
H    -1.962820  -0.562505  3.677079
C    -1.113318  -2.555005  3.640792
C    -2.295712  -3.066234  2.803310
C    -2.158854  -3.009285  1.275669
N    -1.183556  -3.963655  0.739834
C    0.061570  -3.684200  0.325613
N    0.745004  -4.635295  -0.342624
N    0.615990  -2.497858  0.570912
H    -1.256139  -2.918508  4.665776
H    -0.161977  -2.996640  3.310051
H    -3.203946  -2.503151  3.071181
H    -2.501041  -4.108188  3.091739
H    -1.887182  -2.006516  0.926475
H    -3.126867  -3.253570  0.818506
H    -1.481878  -4.930656  0.666274
H    1.729439  -4.526084  -0.547309
H    0.276175  -5.432282  -0.754369
H    1.497322  -2.279660  0.122766
N    -0.979298  -0.693261  6.097203
C    -2.342500  -1.174120  6.317778
H    -0.435283  -0.486020  6.933181
H    -2.977445  -0.955822  5.453788
H    -2.756848  -0.652979  7.187073
H    -2.362766  -2.253670  6.517032
Ba    1.315010  2.294424  4.538967
