36
Energy: -246329.879573 eV PBE+vdW (tier 2 basis)
C    -1.463315  1.747880  1.189871
C    -1.296995  0.619175  2.163750
O    -0.274445  -0.109395  2.130457
H    -2.396176  2.307685  1.313583
H    -1.418547  1.346210  0.168922
H    -0.615903  2.437809  1.298992
N    -2.287212  0.427110  3.057222
C    -2.408685  -0.566218  4.146075
C    -1.097777  -0.747663  4.934548
O    -0.256935  -1.638400  4.643337
H    -3.073028  1.066499  2.981019
H    -3.104698  -0.080291  4.842462
C    -3.129577  -1.886985  3.780441
C    -2.514593  -2.980410  2.895649
C    -2.371907  -2.665931  1.397135
N    -2.095545  -3.844693  0.593240
C    -0.865364  -4.349589  0.320187
N    -0.840043  -5.419693  -0.511953
N    0.232542  -3.815553  0.846333
H    -4.099768  -1.589087  3.351176
H    -3.377788  -2.352377  4.746382
H    -3.195354  -3.841312  2.976277
H    -1.567773  -3.342732  3.319570
H    -1.592488  -1.921993  1.186452
H    -3.310197  -2.232161  1.022197
H    -2.895051  -4.391017  0.294588
H    0.027441  -5.898736  -0.711859
H    -1.649536  -5.705332  -1.048559
H    1.041367  -4.262506  0.403211
N    -0.895226  0.050464  5.985711
C    -1.745141  1.126565  6.502740
H    -0.042908  -0.154393  6.504933
H    -2.673669  0.733672  6.937664
H    -1.193389  1.639985  7.295237
H    -1.975649  1.862402  5.723554
Ba    1.147338  -2.112991  2.599458
