36
Energy: -246329.550026 eV PBE+vdW (tier 2 basis)
C    -0.664540  -0.550867  0.565406
C    -0.949223  -0.159915  1.981558
O    -0.154171  0.551510  2.643003
H    -0.457139  0.351943  -0.023212
H    -1.478998  -1.110931  0.093976
H    0.247921  -1.162369  0.541519
N    -2.104026  -0.596434  2.544232
C    -2.453094  -0.236218  3.914192
C    -1.610692  -1.012244  4.957670
O    -0.719820  -0.364655  5.573657
H    -2.735786  -1.163808  1.987142
H    -2.073077  0.781081  4.039724
C    -3.955830  -0.173808  4.217384
C    -4.728163  0.986531  3.549927
C    -4.032528  2.359781  3.469848
N    -3.358808  2.748152  4.717691
C    -2.066996  3.141236  4.845580
N    -1.363912  3.541973  3.692091
N    -1.322178  3.099382  5.922561
H    -4.040319  -0.090312  5.311348
H    -4.460031  -1.115907  3.963629
H    -5.682901  1.091630  4.084121
H    -5.002360  0.723140  2.518499
H    -4.773181  3.118118  3.179434
H    -3.281208  2.325311  2.670071
H    -3.821604  2.487343  5.583661
H    -1.911211  3.645507  2.841546
H    -0.855721  4.407004  3.876477
H    -1.835128  2.855382  6.772275
N    -1.793615  -2.308100  5.201826
C    -2.764214  -3.242259  4.632161
H    -1.175209  -2.678981  5.922927
H    -2.345233  -4.251388  4.694467
H    -2.949675  -3.026226  3.576006
H    -3.711246  -3.224402  5.186497
Ba    0.675820  1.639800  4.827479
