36
Energy: -246329.586189 eV PBE+vdW (tier 2 basis)
C    0.889424  1.015192  0.489478
C    0.399753  0.938615  1.903802
O    1.206785  0.677988  2.845666
H    0.095277  1.216351  -0.237077
H    1.392434  0.077086  0.222904
H    1.642347  1.812570  0.423601
N    -0.899039  1.165924  2.133882
C    -1.561793  1.259599  3.451581
C    -1.865539  -0.153425  3.988763
O    -0.853092  -0.736340  4.592292
H    -1.484578  1.339545  1.321250
H    -0.818743  1.699068  4.135405
C    -2.738682  2.235764  3.323484
C    -3.423117  2.618852  4.651364
C    -4.686240  1.836909  5.037095
N    -5.800876  2.029238  4.104848
C    -6.251892  1.137675  3.206156
N    -7.432751  1.379899  2.601890
N    -5.546689  0.050959  2.899037
H    -3.472802  1.843216  2.603691
H    -2.333255  3.150852  2.868494
H    -3.682389  3.686405  4.612468
H    -2.712376  2.526473  5.487208
H    -5.028607  2.173188  6.025190
H    -4.487450  0.763272  5.114865
H    -6.305483  2.907534  4.165583
H    -7.748460  0.810828  1.827291
H    -8.096618  2.040704  2.985442
H    -5.994016  -0.676051  2.353597
N    -3.028625  -0.678676  3.798368
C    -3.237213  -2.040410  4.289123
H    -4.542421  -0.118502  3.215737
H    -4.309897  -2.268120  4.286169
H    -2.852528  -2.180488  5.309298
H    -2.736016  -2.775006  3.640449
Ba    1.464683  -0.807916  4.777631
