36
Energy: -246327.700162 eV PBE+vdW (tier 2 basis)
C    -0.603917  -0.841131  -0.746438
C    -0.321587  -0.116686  0.516234
O    0.847541  0.352348  0.730197
H    -0.868096  -1.899606  -0.599153
H    0.274085  -0.788486  -1.396185
H    -1.470353  -0.409955  -1.279834
N    -1.263986  0.115188  1.469202
C    -2.203131  -0.859335  2.040597
C    -1.366881  -1.905941  2.825603
O    -0.119448  -2.037160  2.595426
H    -0.922551  0.782408  2.161119
H    -2.788729  -0.284096  2.774043
C    -3.202199  -1.520880  1.069081
C    -4.059074  -0.515415  0.293267
C    -5.045511  -1.198746  -0.683271
N    -4.471643  -2.253075  -1.513016
C    -3.341164  -2.117383  -2.306114
N    -3.125120  -0.827024  -2.800843
N    -2.469384  -3.030261  -2.576978
H    -3.855197  -2.172682  1.667138
H    -2.674061  -2.190117  0.378574
H    -3.413167  0.171791  -0.268474
H    -4.641861  0.107838  0.989395
H    -5.514222  -0.419483  -1.303316
H    -5.869288  -1.661876  -0.124474
H    -4.644021  -3.202473  -1.205853
H    -2.475013  -0.855466  -3.583623
H    -3.965990  -0.306202  -3.039822
H    -2.693357  -3.921111  -2.124970
N    -1.945308  -2.660832  3.749690
C    -3.326708  -2.649697  4.237879
H    -1.325913  -3.348514  4.178304
H    -3.311945  -2.843296  5.315637
H    -3.919807  -3.432249  3.748011
H    -3.795843  -1.676001  4.070948
Ba    2.158952  -1.232317  2.023935
