36
Energy: -246328.613767 eV PBE+vdW (tier 2 basis)
C    0.187234  -0.927456  0.984843
C    -0.281295  -0.402972  2.309642
O    0.563648  -0.180266  3.228280
H    -0.187285  -1.945511  0.806385
H    1.280695  -0.943872  0.977778
H    -0.162629  -0.294131  0.160873
N    -1.590991  -0.133579  2.543185
C    -2.711407  -1.034121  2.204202
C    -2.483580  -2.436692  2.866612
O    -1.345542  -2.620948  3.505156
H    -1.707001  0.324305  3.446390
H    -3.566573  -0.595925  2.738636
C    -3.077061  -1.092651  0.708399
C    -3.858361  0.119793  0.174963
C    -5.336701  0.223381  0.593494
N    -6.153273  -0.917359  0.151733
C    -6.160736  -2.118474  0.756696
N    -6.412054  -3.228073  0.046281
N    -5.916730  -2.254192  2.073077
H    -3.636014  -2.022739  0.548929
H    -2.171153  -1.213480  0.105423
H    -3.813598  0.101369  -0.923874
H    -3.363676  1.056350  0.476352
H    -5.782650  1.121813  0.151056
H    -5.447495  0.349948  1.678831
H    -6.566793  -0.852968  -0.774225
H    -6.723123  -4.063826  0.528120
H    -6.434462  -3.227460  -0.966499
H    -6.004862  -1.401559  2.616622
N    -3.445320  -3.290108  2.784563
C    -3.273247  -4.590119  3.427127
H    -5.066566  -2.837166  2.359283
H    -4.159777  -5.205703  3.243293
H    -3.148486  -4.492066  4.517043
H    -2.395316  -5.124681  3.034810
Ba    0.594985  -2.177019  4.733401
