36
Energy: -246330.103542 eV PBE+vdW (tier 2 basis)
C    -1.558999  -0.068557  -0.079814
C    -1.637860  -0.254248  1.405716
O    -1.370633  -1.364599  1.929724
H    -1.783767  0.950550  -0.411171
H    -2.264240  -0.762060  -0.557652
H    -0.554171  -0.345134  -0.424022
N    -2.006992  0.815230  2.142628
C    -2.262748  0.871189  3.595810
C    -0.956623  0.690141  4.401518
O    -0.503517  -0.451319  4.671631
H    -2.204930  1.664721  1.623245
H    -2.611070  1.898685  3.773007
C    -3.387497  -0.077620  4.045356
C    -3.671513  -0.029622  5.561873
C    -3.444843  -1.357220  6.293973
N    -4.311026  -2.426693  5.810004
C    -3.916105  -3.664584  5.408589
N    -4.873016  -4.624902  5.449109
N    -2.681492  -3.898019  4.971995
H    -3.171179  -1.106672  3.730726
H    -4.281209  0.206182  3.475032
H    -4.706457  0.297625  5.731917
H    -3.049750  0.729317  6.061747
H    -3.620882  -1.211294  7.370788
H    -2.406997  -1.694262  6.195025
H    -5.298622  -2.322429  6.019620
H    -4.720034  -5.526416  5.017082
H    -5.719661  -4.519548  5.994507
H    -2.560880  -4.914270  4.914036
N    -0.348884  1.803950  4.805696
C    0.902320  1.837633  5.561690
H    -0.766292  2.694889  4.553508
H    0.896832  2.712827  6.218519
H    1.763776  1.903415  4.884218
H    0.985189  0.928924  6.164358
Ba    -0.599945  -2.818368  3.810470
