36
Energy: -246328.714471 eV PBE+vdW (tier 2 basis)
C    -0.501524  0.074500  -0.738299
C    -0.417426  0.073755  0.644686
O    0.687838  0.411875  1.251213
H    -1.356809  -0.279936  -1.303204
H    0.267594  0.614671  -1.292268
H    -1.896095  2.271264  -1.166804
N    -1.448675  -0.340508  1.535008
C    -2.247523  -1.565816  1.410972
C    -1.360098  -2.832748  1.308264
O    -0.137639  -2.761485  1.007849
H    -1.067822  -0.241849  2.475953
H    -2.767034  -1.654467  2.379240
C    -3.339440  -1.510881  0.313041
C    -4.637126  -0.775260  0.694135
C    -4.495283  0.642361  1.275161
N    -3.570228  1.497533  0.532174
C    -3.829821  2.303346  -0.499803
N    -5.077531  2.707974  -0.779686
N    -2.810971  2.701194  -1.279611
H    -3.616950  -2.532277  0.023085
H    -2.911552  -1.072204  -0.594661
H    -5.200779  -1.366487  1.432431
H    -5.268435  -0.737270  -0.205514
H    -4.112133  0.611697  2.303001
H    -5.483942  1.112834  1.346246
H    -2.589219  1.299928  0.740151
H    -5.274617  3.247499  -1.613390
H    -5.821587  2.625304  -0.099221
H    -2.885209  3.520606  -1.870004
N    -1.899292  -4.022800  1.584720
C    -3.257200  -4.355205  2.010603
H    -1.251098  -4.802777  1.485365
H    -3.709649  -3.528791  2.567981
H    -3.209259  -5.223556  2.675581
H    -3.896837  -4.606807  1.154172
Ba    1.887236  -1.448197  0.306454
