36
Energy: -246329.367341 eV PBE+vdW (tier 2 basis)
C    -0.193709  -0.148352  1.820808
C    -0.960113  -0.130685  3.117980
O    -0.497087  0.601645  4.080531
H    -0.716679  0.462518  1.070405
H    -0.091413  -1.157499  1.402326
H    0.799644  0.282494  1.974547
N    -2.068098  -0.819851  3.401634
C    -2.531210  -1.937069  2.571979
C    -1.488431  -3.074299  2.727612
O    -0.852335  -3.142327  3.819323
H    -1.577196  2.338407  3.653938
H    -3.403238  -2.345150  3.117243
C    -3.070987  -1.610360  1.163229
C    -4.317574  -0.689727  1.155668
C    -4.110074  0.820507  0.996338
N    -3.449252  1.423996  2.158714
C    -3.048659  2.695961  2.252094
N    -3.514933  3.620336  1.399303
N    -2.165279  3.042201  3.203166
H    -3.396792  -2.558189  0.708054
H    -2.289014  -1.206981  0.505876
H    -4.933113  -0.881502  2.048739
H    -4.945229  -0.981964  0.303444
H    -5.104653  1.273063  0.858017
H    -3.520283  1.031551  0.089011
H    -3.125058  0.772130  2.882818
H    -4.330818  3.442715  0.827241
H    -3.148831  4.564348  1.396329
H    -1.966163  4.015920  3.395963
N    -1.326142  -3.964379  1.755207
C    -0.459004  -5.140277  1.830982
H    -1.868808  -3.839608  0.906025
H    0.231099  -5.145877  0.979497
H    -1.064155  -6.054891  1.808283
H    0.108140  -5.101790  2.763570
Ba    -0.861228  -1.368824  5.663152
