36
Energy: -246329.120055 eV PBE+vdW (tier 2 basis)
C    -0.031199  0.330665  -0.063138
C    -0.175434  0.336463  1.429089
O    0.821992  0.595106  2.165461
H    0.285454  1.331866  -0.386246
H    -0.952557  0.062502  -0.590661
H    0.765308  -0.365873  -0.353765
N    -1.384916  0.076416  1.942704
C    -1.783735  0.147029  3.363401
C    -1.390708  -1.169433  4.077841
O    -0.114243  -1.236242  4.394738
H    -2.118338  -0.162521  1.280824
H    -1.170890  0.943516  3.813700
C    -3.263718  0.548396  3.418232
C    -3.736457  0.936989  4.825045
C    -5.259121  1.111130  4.994767
N    -6.109338  0.055620  4.404387
C    -5.792144  -1.241611  4.300206
N    -6.337335  -1.994895  3.331205
N    -4.902375  -1.829992  5.125218
H    -3.852958  -0.289339  3.018362
H    -3.415872  1.397612  2.734522
H    -3.299649  1.907019  5.105870
H    -3.345187  0.219049  5.556631
H    -5.580669  2.038534  4.503780
H    -5.494997  1.228287  6.062860
H    -6.964619  0.369808  3.955459
H    -6.346245  -3.002553  3.442117
H    -6.886979  -1.594794  2.580230
H    -4.735904  -1.328000  5.991816
N    -2.258662  -2.103622  4.277093
C    -1.765155  -3.342261  4.883142
H    -3.988931  -2.134551  4.680199
H    -2.613638  -3.987257  5.137958
H    -1.177371  -3.155864  5.794053
H    -1.122513  -3.894977  4.181314
Ba    2.029403  -0.421738  4.049001
