36
Energy: -246328.262746 eV PBE+vdW (tier 2 basis)
C    -2.702436  1.618427  -0.731167
C    -1.814192  1.284732  0.416158
O    -1.007969  2.146015  0.899052
H    -3.613992  1.010332  -0.765996
H    -2.143660  1.384248  -1.653009
H    -2.931849  2.687815  -0.746978
N    -1.828711  0.046118  0.953311
C    -3.035880  -0.723134  1.234208
C    -3.805178  0.015208  2.340310
O    -3.259289  0.977034  2.989493
H    -1.050985  -0.133229  1.589982
H    -3.681689  -0.763964  0.323355
C    -2.679449  -2.187997  1.620383
C    -3.077769  -3.250604  0.588376
C    -2.307173  -3.282228  -0.733032
N    -2.307228  -2.055545  -1.555416
C    -3.450227  -1.500544  -2.107350
N    -3.285275  -1.032728  -3.394383
N    -4.513110  -1.333650  -1.370394
H    -3.161523  -2.440564  2.575063
H    -1.596376  -2.238256  1.819206
H    -4.151217  -3.182929  0.378240
H    -2.919438  -4.235358  1.053008
H    -2.695009  -4.131950  -1.318761
H    -1.248076  -3.493883  -0.530399
H    -1.501559  -2.009553  -2.171329
H    -2.706081  -1.566225  -4.035870
H    -4.092420  -0.605836  -3.835908
H    -5.303862  -1.001533  -1.927034
N    -5.051277  -0.336571  2.612899
C    -5.867781  -1.355909  1.945907
H    -5.478304  0.159945  3.393966
H    -6.908948  -1.018074  1.954816
H    -5.804094  -2.313338  2.478700
H    -5.547411  -1.483735  0.905187
Ba    -1.604188  2.762525  3.208393
