36
Energy: -246329.144501 eV PBE+vdW (tier 2 basis)
C    -1.176731  1.305491  -2.431216
C    -1.334092  0.276698  -1.349518
O    -1.684370  -0.902277  -1.649216
H    -0.480713  0.934129  -3.193800
H    -0.825476  2.277465  -2.069330
H    -2.148631  1.440908  -2.925695
N    -1.100438  0.670292  -0.088376
C    -1.291679  -0.043284  1.196673
C    -0.274039  -1.157655  1.480475
O    -0.152098  -2.125784  0.601949
H    -0.782190  1.629733  0.001057
H    -1.048995  0.723121  1.937408
C    -2.758002  -0.499335  1.411203
C    -3.684517  0.607409  1.954367
C    -3.782440  0.674814  3.487588
N    -2.463345  0.792630  4.118536
C    -1.954091  0.020154  5.098944
N    -2.769998  -0.499473  6.030948
N    -0.639501  -0.206445  5.090306
H    -2.750738  -1.351982  2.106461
H    -3.157257  -0.880728  0.462812
H    -4.708253  0.454394  1.586344
H    -3.379382  1.588630  1.555911
H    -4.246995  -0.244089  3.870172
H    -4.424938  1.517452  3.781271
H    -1.797056  1.433044  3.701631
H    -2.436613  -1.211410  6.669782
H    -3.652740  -0.054635  6.255152
H    -0.186654  -0.566719  5.923415
N    0.344916  -1.080173  2.612145
C    1.277854  -2.157731  2.937548
H    -0.171482  -0.351528  4.147957
H    1.750710  -1.949473  3.903878
H    2.074580  -2.243014  2.184491
H    0.774448  -3.135359  2.999031
Ba    -0.785104  -3.166809  -1.358459
