36
Energy: -246329.143305 eV PBE+vdW (tier 2 basis)
C    -0.663794  -1.351632  0.504777
C    -0.734532  -0.905222  1.936771
O    -0.202391  -1.619793  2.855938
H    0.382690  -1.520892  0.214137
H    -1.109627  -0.634206  -0.191510
H    -1.193747  -2.308783  0.403153
N    -1.352448  0.231496  2.195305
C    -1.687911  0.826722  3.485662
C    -2.753378  1.897975  3.089157
O    -2.843680  2.219178  1.898825
H    -1.800447  0.794687  1.444303
H    -2.142517  0.056412  4.127133
C    -0.494673  1.456716  4.239009
C    0.287260  2.558304  3.498229
C    1.507547  2.076059  2.700227
N    2.489427  1.421592  3.574300
C    2.935398  0.161196  3.449333
N    3.460785  -0.464619  4.605400
N    2.841322  -0.636869  2.410072
H    0.183449  0.647996  4.552188
H    -0.897424  1.871004  5.173200
H    0.627529  3.307642  4.228121
H    -0.366291  3.107647  2.804926
H    1.213711  1.354829  1.928881
H    1.984166  2.922062  2.186861
H    2.816159  1.964474  4.369708
H    4.417168  -0.794473  4.466515
H    3.398673  0.076046  5.467420
H    2.611269  -0.147390  1.544243
N    -3.479430  2.423629  4.086447
C    -4.501429  3.449583  3.880997
H    -3.376876  2.040335  5.020327
H    -4.330202  4.291174  4.561922
H    -5.501811  3.036696  4.060554
H    -4.437594  3.797101  2.846598
Ba    1.830346  -2.766010  3.495414
