36
Energy: -246329.306686 eV PBE+vdW (tier 2 basis)
C    0.766044  -1.553446  1.374958
C    0.218323  -0.457017  2.236405
O    0.398305  -0.491807  3.492099
H    0.598101  -1.396756  0.304503
H    0.293202  -2.499509  1.673928
H    1.842394  -1.662073  1.558832
N    -0.455851  0.530814  1.634983
C    -1.235969  1.647916  2.210682
C    -0.367053  2.723602  2.875039
O    0.344865  2.472809  3.912578
H    -0.519071  0.453286  0.623999
H    -1.670602  2.138328  1.329687
C    -2.403638  1.163671  3.091620
C    -3.261453  2.260877  3.747009
C    -3.775739  3.423864  2.867111
N    -4.205125  3.065455  1.522477
C    -3.633241  3.596541  0.391516
N    -4.406860  3.526685  -0.733036
N    -2.401163  4.049417  0.418279
H    -2.033832  0.495885  3.884051
H    -3.035274  0.538351  2.445333
H    -2.717029  2.722764  4.586472
H    -4.119705  1.747464  4.203407
H    -3.008559  4.195548  2.754171
H    -4.611893  3.901601  3.398151
H    -5.142161  2.692932  1.419618
H    -4.036596  3.899243  -1.598380
H    -5.417688  3.540337  -0.658539
H    -2.146888  4.498797  -0.461505
N    -0.466357  3.913436  2.334710
C    0.195858  5.104360  2.848552
H    -1.196623  4.018121  1.530178
H    1.193878  5.212872  2.402760
H    -0.402432  5.979438  2.574894
H    0.299556  5.054675  3.937877
Ba    1.091154  0.783843  5.418700
