36
Energy: -246329.859788 eV PBE+vdW (tier 2 basis)
C    -0.209502  -0.129591  -0.033232
C    -0.253817  -0.234752  1.458646
O    0.790035  -0.146531  2.154514
H    0.428527  -0.930910  -0.429660
H    0.264408  0.821043  -0.310995
H    -1.195420  -0.191730  -0.505682
N    -1.456055  -0.426777  2.049253
C    -1.600047  -0.488871  3.503216
C    -1.102571  -1.835616  4.078715
O    -0.002618  -1.825963  4.700425
H    -2.280834  -0.480945  1.458743
H    -0.854813  0.213702  3.893319
C    -2.964855  -0.016723  4.021013
C    -3.231053  1.489889  3.844150
C    -2.099336  2.442547  4.271106
N    -1.575528  2.188702  5.612477
C    -0.313706  1.781958  5.905401
N    -0.105497  1.253505  7.151705
N    0.707576  1.775859  5.060132
H    -2.997471  -0.273189  5.090144
H    -3.789188  -0.574780  3.556802
H    -4.147528  1.731622  4.401198
H    -3.459860  1.724371  2.793732
H    -2.459997  3.478491  4.212504
H    -1.262515  2.375795  3.564719
H    -2.205258  2.364507  6.389833
H    0.787572  1.462525  7.584588
H    -0.880914  1.176075  7.801077
H    0.543614  2.427462  4.288972
N    -1.776838  -2.973841  3.929881
C    -3.052654  -3.230420  3.262128
H    -1.329813  -3.773677  4.377324
H    -3.900587  -3.063055  3.938311
H    -3.065807  -4.276955  2.942239
H    -3.164182  -2.610041  2.368152
Ba    2.048684  -0.365993  4.353772
