36
Energy: -246329.072689 eV PBE+vdW (tier 2 basis)
C    0.857110  -0.380567  0.874629
C    0.324427  0.336255  2.072902
O    1.137560  0.981717  2.823395
H    1.404504  0.347182  0.259984
H    0.088428  -0.855312  0.260113
H    1.583538  -1.140880  1.191076
N    -0.960250  0.329217  2.404724
C    -2.124942  -0.333703  1.820477
C    -3.250008  0.725315  2.029670
O    -3.087483  1.560454  2.929312
H    -1.316106  1.039758  3.080098
H    -1.957088  -0.545302  0.757065
C    -2.499902  -1.620754  2.597925
C    -1.393998  -2.693284  2.747943
C    -0.848135  -2.890240  4.166741
N    -0.067603  -1.742355  4.637590
C    0.666909  -1.695508  5.773426
N    0.676592  -2.788815  6.563366
N    1.372827  -0.590525  6.053115
H    -3.365620  -2.059549  2.084676
H    -2.872278  -1.317547  3.589084
H    -0.557469  -2.514374  2.057592
H    -1.806962  -3.665152  2.448645
H    -0.196715  -3.776917  4.167833
H    -1.691454  -3.090453  4.851335
H    -0.270838  -0.844824  4.213536
H    1.292208  -2.845009  7.364133
H    0.038704  -3.561834  6.422605
H    1.712521  -0.653289  7.017644
N    -4.333909  0.620798  1.250944
C    -5.503556  1.489946  1.371437
H    -4.342931  -0.086733  0.523167
H    -5.658159  2.048012  0.440338
H    -5.327667  2.192262  2.190241
H    -6.397891  0.893533  1.587916
Ba    2.370165  1.422995  4.833321
