36
Energy: -246329.183646 eV PBE+vdW (tier 2 basis)
C    0.213175  0.548993  1.146684
C    1.111426  -0.152317  2.140572
O    2.305720  0.311449  2.283099
H    -0.683139  0.952253  1.634685
H    -0.116383  -0.134914  0.351020
H    0.762739  1.376720  0.690201
N    0.810784  -1.245099  2.846088
C    -0.258159  -2.170196  2.486228
C    0.258681  -2.980749  1.266300
O    1.487577  -3.242786  1.207738
H    -7.258997  0.229503  3.279424
H    -0.255084  -2.927697  3.292664
C    -1.709536  -1.622099  2.447423
C    -2.754528  -2.633362  2.946440
C    -4.197431  -2.119874  2.974332
N    -4.388841  -1.095793  4.012679
C    -5.464819  -0.302583  4.126286
N    -5.485897  0.664687  5.055277
N    -6.508458  -0.450930  3.301266
H    -1.983234  -1.253226  1.446520
H    -1.719169  -0.735609  3.097530
H    -2.479539  -2.990305  3.953216
H    -2.760277  -3.539259  2.321394
H    -4.875605  -2.968449  3.160092
H    -4.460740  -1.675090  2.002401
H    -3.757950  -1.124471  4.807961
H    -6.344953  1.142931  5.299492
H    -4.649558  0.935666  5.557205
H    -6.636767  -1.294470  2.757030
N    -0.597212  -3.402913  0.332254
C    -0.224358  -4.215108  -0.824906
H    -1.565071  -3.112746  0.409132
H    -0.259824  -3.617395  -1.744598
H    -0.912818  -5.062359  -0.919639
H    0.792221  -4.587125  -0.676601
Ba    3.284698  -1.926810  2.578194
