36
Energy: -246329.880521 eV PBE+vdW (tier 2 basis)
C    -1.633475  0.643694  0.228184
C    -1.682251  0.650333  1.722588
O    -1.128357  1.557147  2.395632
H    -2.053080  1.586800  -0.146088
H    -2.174542  -0.194828  -0.222439
H    -0.584679  0.609984  -0.095775
N    -2.345110  -0.350533  2.346889
C    -2.503483  -0.365625  3.797745
C    -1.212150  -0.840038  4.507456
O    -0.529001  0.032035  5.115951
H    -2.827791  -1.041722  1.780117
H    -2.578133  0.691266  4.084291
C    -3.813304  -1.003195  4.268855
C    -3.999002  -0.913828  5.793896
C    -3.750091  0.461729  6.432603
N    -4.514964  1.534640  5.794692
C    -4.100939  2.829866  5.675714
N    -5.092966  3.754374  5.634675
N    -2.815439  3.151431  5.556861
H    -3.899727  -2.051976  3.956155
H    -4.622437  -0.458988  3.759870
H    -3.337701  -1.629236  6.306273
H    -5.020077  -1.248117  6.027955
H    -2.692453  0.739412  6.389342
H    -4.007628  0.400754  7.501829
H    -5.522605  1.405269  5.797515
H    -4.897100  4.713249  5.378388
H    -6.023966  3.560035  5.983005
H    -2.749538  4.167559  5.681750
N    -0.807238  -2.107147  4.481521
C    -1.427237  -3.278003  3.861484
H    0.058403  -2.268818  4.995868
H    -0.644293  -4.019427  3.675272
H    -1.879738  -3.025085  2.898281
H    -2.181227  -3.728525  4.519737
Ba    -0.423075  2.518872  4.629990
