36
Energy: -246328.085444 eV PBE+vdW (tier 2 basis)
C    -1.451153  0.282049  -1.007614
C    -0.441108  0.167576  0.089658
O    0.794602  0.055221  -0.171074
H    -2.125997  1.129205  -0.836303
H    -2.076602  -0.623029  -1.063037
H    -0.935931  0.409923  -1.963271
N    -0.838521  0.159716  1.384737
C    -2.001523  -0.603201  1.880727
C    -1.860595  -2.053237  1.340191
O    -0.682468  -2.492450  1.066861
H    -0.061333  0.223143  2.039478
H    -1.820406  -0.683552  2.964432
C    -3.371607  0.081746  1.700448
C    -4.356391  -0.146892  2.876686
C    -5.734541  -0.622008  2.408611
N    -5.623393  -1.977493  1.851393
C    -6.366599  -2.442366  0.724926
N    -7.270171  -1.553904  0.191035
N    -6.028017  -3.601308  0.283141
H    -3.832180  -0.240490  0.755722
H    -3.178100  1.156236  1.596803
H    -4.470945  0.782612  3.449433
H    -3.952108  -0.884924  3.588280
H    -6.099212  0.052110  1.623404
H    -6.454360  -0.579104  3.240059
H    -5.633208  -2.702588  2.567995
H    -7.807503  -0.961987  0.816935
H    -7.803785  -1.887442  -0.604828
H    -6.650619  -3.938703  -0.454207
N    -2.926513  -2.798532  1.191755
C    -2.885858  -4.200911  0.770948
H    -3.885589  -2.405494  1.391852
H    -3.927333  -4.513620  0.630436
H    -2.390699  -4.815739  1.533502
H    -2.342045  -4.298707  -0.176686
Ba    1.590726  -2.259941  0.268301
