36
Energy: -246328.262199 eV PBE+vdW (tier 2 basis)
C    -3.477741  1.531112  1.108586
C    -2.410631  0.486499  1.137411
O    -1.438963  0.527234  0.320366
H    -3.023975  2.493064  1.389753
H    -4.307664  1.322434  1.791589
H    -3.863186  1.643701  0.087848
N    -2.491207  -0.483490  2.056996
C    -1.433344  -1.456272  2.379484
C    -1.462711  -2.624611  1.370842
O    -0.914597  -2.468520  0.234286
H    -3.279287  -0.444708  2.699886
H    -0.471901  -0.949882  2.198443
C    -1.507450  -1.833402  3.865389
C    -1.266690  -0.630270  4.783862
C    -1.296285  -0.980835  6.285940
N    -1.228906  0.204134  7.129904
C    -2.280394  1.137218  7.079517
N    -3.525022  0.571009  7.357955
N    -2.012119  2.352757  6.759236
H    -0.752146  -2.610471  4.058781
H    -2.491693  -2.279864  4.099595
H    -2.025348  0.149324  4.611625
H    -0.295349  -0.170024  4.540355
H    -2.215849  -1.535733  6.518849
H    -0.453999  -1.638333  6.544856
H    -0.349947  0.711939  7.039549
H    -4.274779  1.246516  7.468914
H    -3.522033  -0.116723  8.108503
H    -2.802481  2.981905  6.931094
N    -2.053253  -3.753483  1.722354
C    -2.171886  -4.953467  0.894874
H    -2.443182  -3.797499  2.661442
H    -1.775804  -5.814845  1.445026
H    -1.602815  -4.813611  -0.026426
H    -3.226352  -5.137379  0.654361
Ba    -0.045894  -0.701988  -1.220302
