36
Energy: -246328.31829 eV PBE+vdW (tier 2 basis)
C    -0.735298  1.255583  0.130453
C    -0.636623  1.383450  1.615559
O    0.135614  2.244161  2.143171
H    -1.119017  2.202744  -0.275351
H    -1.392130  0.441538  -0.192697
H    0.265296  1.106939  -0.295140
N    -1.390108  0.582096  2.377709
C    -1.581514  0.695006  3.837152
C    -0.367954  0.090634  4.577571
O    0.667645  0.805218  4.758963
H    -2.016707  -0.061010  1.896891
H    -1.564626  1.768410  4.084905
C    -2.952598  0.117155  4.193524
C    -3.442113  0.423700  5.614089
C    -4.839626  -0.180118  5.898836
N    -5.882896  0.230687  4.971331
C    -5.979387  -0.251806  3.661446
N    -5.667534  -1.610560  3.533461
N    -6.285721  0.421793  2.608804
H    -2.990238  -0.968895  3.993076
H    -3.667696  0.547562  3.475765
H    -3.490107  1.516600  5.750534
H    -2.741619  0.044781  6.377100
H    -5.147144  0.109631  6.912231
H    -4.770949  -1.275648  5.900500
H    -6.184899  1.195776  5.063552
H    -5.928301  -1.933047  2.603692
H    -6.084981  -2.201783  4.249989
H    -6.399452  1.419753  2.808111
N    -0.443956  -1.161207  4.991891
C    0.605302  -1.896958  5.694984
H    -1.321342  -1.647817  4.818488
H    0.176197  -2.380075  6.579908
H    1.389697  -1.201825  6.002017
H    1.029625  -2.667435  5.038843
Ba    1.766388  2.782376  3.834230
