36
Energy: -246328.595748 eV PBE+vdW (tier 2 basis)
C    -2.113214  -3.149970  1.658058
C    -1.562861  -1.916401  2.294581
O    -0.343643  -1.577819  2.115470
H    -2.162016  -3.003462  0.569343
H    -3.106525  -3.407380  2.042860
H    -1.426877  -3.987162  1.836769
N    -2.371855  -1.176411  3.050774
C    -1.961763  0.101379  3.637508
C    -0.804005  -0.082128  4.640368
O    0.342367  0.376498  4.312139
H    -3.404631  -1.364853  3.027104
H    -1.512576  0.710838  2.835856
C    -3.152000  0.896798  4.206605
C    -4.302273  1.147867  3.203411
C    -5.517745  0.214352  3.323818
N    -5.229521  -1.206151  3.055434
C    -5.325157  -2.181536  4.083450
N    -5.322193  -3.477528  3.581889
N    -5.236542  -1.981310  5.346971
H    -2.741288  1.859952  4.539282
H    -3.540959  0.410345  5.109417
H    -3.922855  1.131915  2.169297
H    -4.675840  2.169193  3.359692
H    -6.287033  0.549219  2.616138
H    -5.967398  0.308393  4.322672
H    -5.609494  -1.521819  2.164955
H    -5.478937  -4.162958  4.317616
H    -5.915070  -3.654173  2.774260
H    -5.223945  -0.989477  5.592094
N    -0.946383  -0.691508  5.808595
C    -2.104089  -1.351663  6.419207
H    -0.098134  -0.673793  6.375639
H    -1.743714  -2.229161  6.966711
H    -2.827568  -1.690123  5.673142
H    -2.598800  -0.679498  7.132099
Ba    1.699464  -0.335948  2.418861
