36
Energy: -246329.519327 eV PBE+vdW (tier 2 basis)
C    -0.772664  0.922589  0.067820
C    -1.486624  0.289006  1.227911
O    -1.989159  -0.854753  1.105404
H    -0.401063  1.932872  0.268336
H    -1.456366  0.956363  -0.790368
H    0.073044  0.284296  -0.220602
N    -1.543035  1.019514  2.364026
C    -2.151262  0.785836  3.694116
C    -1.558193  -0.441221  4.413892
O    -1.603505  -1.597813  3.916143
H    -1.090414  1.924881  2.287891
H    -1.836069  1.671173  4.256639
C    -3.706136  0.807943  3.738012
C    -4.381768  -0.466937  3.245764
C    -5.912500  -0.582702  3.271235
N    -6.260730  -1.955118  2.859627
C    -6.041369  -2.367384  1.552628
N    -6.828766  -1.772224  0.629488
N    -5.103184  -3.263515  1.298443
H    -4.032659  1.679886  3.152819
H    -3.996049  1.010141  4.780978
H    -4.013336  -1.300517  3.868025
H    -4.069743  -0.641367  2.205423
H    -6.387072  0.136898  2.593332
H    -6.327022  -0.410271  4.272424
H    -5.925654  -2.656254  3.517184
H    -7.718708  -1.377741  0.914250
H    -6.703279  -1.956958  -0.358339
H    -5.251201  -3.690101  0.376511
N    -1.024990  -0.253512  5.623007
C    -0.858461  0.989849  6.382868
H    -0.681266  -1.108413  6.058399
H    -0.389202  0.737843  7.337921
H    -1.823729  1.464436  6.597854
H    -0.199274  1.694799  5.860931
Ba    -2.525692  -3.095342  2.057682
