36
Energy: -246329.765235 eV PBE+vdW (tier 2 basis)
C    0.210693  -0.823093  -0.457051
C    -0.300839  -0.144950  0.772856
O    0.239877  0.896609  1.226495
H    0.203298  -0.105670  -1.288368
H    -0.369117  -1.707842  -0.739917
H    1.257022  -1.115418  -0.296834
N    -1.378882  -0.677273  1.399165
C    -1.964655  0.001076  2.548117
C    -1.187903  -0.278276  3.855123
O    -0.504132  0.670303  4.335361
H    -1.835446  -1.485021  0.986203
H    -1.739431  1.057595  2.361093
C    -3.492144  -0.056511  2.674369
C    -3.962827  1.110661  3.563704
C    -3.828734  2.479304  2.867374
N    -3.711582  3.594434  3.796800
C    -2.733304  4.537838  3.772471
N    -3.055444  5.726556  4.340534
N    -1.531392  4.297858  3.245892
H    -3.842979  -1.011205  3.083959
H    -3.926982  0.033146  1.666826
H    -3.386547  1.126285  4.501536
H    -5.008231  0.943429  3.853539
H    -4.694408  2.645241  2.207573
H    -2.942098  2.530296  2.223124
H    -4.536813  3.818917  4.343229
H    -2.341103  6.409000  4.556854
H    -4.015852  6.001530  4.507494
H    -1.091214  5.211086  3.086540
N    -1.216036  -1.460675  4.463235
C    -1.917753  -2.690528  4.101126
H    -0.664487  -1.491792  5.320998
H    -1.261024  -3.542820  4.306780
H    -2.165552  -2.706560  3.037582
H    -2.836964  -2.805935  4.690063
Ba    0.507158  2.631022  3.092783
