36
Energy: -246329.403236 eV PBE+vdW (tier 2 basis)
C    -0.158044  -0.092883  0.065553
C    -0.147446  0.015555  1.556553
O    0.950405  -0.043119  2.200471
H    -0.116348  -1.152098  -0.228820
H    0.740411  0.390760  -0.332805
H    -1.047015  0.354604  -0.390598
N    -1.276920  0.172542  2.243848
C    -2.673930  0.054230  1.847582
C    -3.466031  0.506789  3.103400
O    -2.932782  0.448214  4.231047
H    -1.195862  0.305207  3.256956
H    -2.889803  0.765366  1.036169
C    -3.076061  -1.376200  1.351559
C    -2.311921  -2.604072  1.877909
C    -2.557235  -3.081283  3.318615
N    -2.012995  -2.215543  4.366879
C    -0.719524  -2.089675  4.684708
N    -0.364549  -0.952514  5.476626
N    0.306313  -2.824468  4.320548
H    -2.958736  -1.377958  0.259515
H    -4.154430  -1.504473  1.527672
H    -1.230298  -2.483131  1.715171
H    -2.603575  -3.443447  1.229449
H    -2.142238  -4.091472  3.442846
H    -3.631946  -3.175148  3.520974
H    -2.620981  -1.461800  4.692559
H    -1.111971  -0.253542  5.525931
H    -0.122353  -1.235787  6.429172
H    0.046998  -3.685236  3.836097
N    -4.714646  0.926782  2.886984
C    -5.633527  1.357123  3.939899
H    -5.046364  0.976860  1.927910
H    -6.013180  2.359420  3.711171
H    -5.091826  1.382151  4.888522
H    -6.479004  0.662367  4.017430
Ba    2.185651  -1.037669  4.054880
