36
Energy: -246329.490878 eV PBE+vdW (tier 2 basis)
C    0.368065  -0.344731  1.436865
C    0.098463  0.415024  2.696464
O    1.028717  0.778846  3.464621
H    0.467416  0.354980  0.591982
H    -0.428751  -1.057435  1.195736
H    1.321618  -0.872274  1.538946
N    -1.174861  0.751362  3.026246
C    -2.223412  1.129189  2.094896
C    -1.740954  2.382868  1.317541
O    -0.857813  3.127880  1.823506
H    -1.286858  1.185697  3.949787
H    -2.421118  0.301105  1.398564
C    -3.517715  1.487318  2.878640
C    -3.814285  0.599800  4.110124
C    -3.615532  1.325965  5.452128
N    -2.240312  1.833168  5.633305
C    -1.923874  3.116238  6.061139
N    -2.902386  3.851063  6.630752
N    -0.697852  3.555560  5.833981
H    -4.354270  1.442733  2.171167
H    -3.448382  2.540285  3.193471
H    -3.219290  -0.324397  4.085546
H    -4.861827  0.272348  4.081243
H    -3.892027  0.661393  6.282804
H    -4.296406  2.185468  5.477328
H    -1.561704  1.147763  5.959320
H    -2.742139  4.826593  6.853276
H    -3.699169  3.413891  7.079645
H    -0.510369  4.377931  6.416405
N    -2.324079  2.629654  0.149954
C    -2.073589  3.796608  -0.695275
H    -3.010748  1.957255  -0.183038
H    -2.996528  4.376857  -0.813985
H    -1.725378  3.472448  -1.683072
H    -1.309807  4.418491  -0.223563
Ba    0.892781  3.315301  3.723953
