36
Energy: -246327.976029 eV PBE+vdW (tier 2 basis)
C    -0.601752  1.906400  -0.538831
C    -0.391335  1.654602  0.913892
O    0.445652  2.327383  1.600112
H    0.346945  2.242992  -0.972638
H    -1.321908  2.730588  -0.675787
H    -0.987936  1.016594  -1.064780
N    -1.121931  0.712415  1.548663
C    -2.539175  0.472985  1.282033
C    -3.289821  1.747024  1.716240
O    -2.731215  2.563003  2.529910
H    -0.813737  0.504273  2.499044
H    -2.635155  0.284161  0.193478
C    -2.955231  -0.807039  2.055488
C    -4.204976  -1.592481  1.635816
C    -4.218703  -2.198094  0.206857
N    -2.954422  -2.745181  -0.242555
C    -1.996624  -2.004392  -0.903828
N    -0.717103  -2.496649  -0.827716
N    -2.189633  -0.858569  -1.503879
H    -3.045057  -0.562408  3.126081
H    -2.089849  -1.479027  1.959164
H    -5.123248  -1.004194  1.777103
H    -4.283599  -2.416256  2.360487
H    -4.561142  -1.457808  -0.528193
H    -4.972725  -2.994817  0.177967
H    -2.749245  -3.709954  -0.009564
H    -0.107228  -2.236886  -1.594821
H    -0.554337  -3.418033  -0.439724
H    -3.181747  -0.722031  -1.710948
N    -4.501229  2.027441  1.256864
C    -5.276431  1.369106  0.206144
H    -4.919372  2.863243  1.665955
H    -4.637065  0.699506  -0.372571
H    -5.675851  2.137224  -0.465689
H    -6.113085  0.803768  0.632738
Ba    -0.682738  3.718132  3.285868
