36
Energy: -246327.459927 eV PBE+vdW (tier 2 basis)
C    -1.143346  1.418604  -0.247375
C    -0.747611  0.819935  1.037983
O    0.501511  0.922808  1.444454
H    -2.186262  1.757305  -0.237862
H    -1.069407  0.652536  -1.085916
H    -0.486530  2.255093  -0.504908
N    -1.571898  0.144143  1.801396
C    -2.995015  -0.129213  1.612811
C    -3.423046  -0.628353  3.023478
O    -2.537264  -0.898421  3.847112
H    -1.286107  -0.257713  2.721996
H    -3.515503  0.811731  1.373141
C    -3.249236  -1.172365  0.496776
C    -4.576517  -0.989733  -0.252883
C    -4.509895  -1.529359  -1.694786
N    -3.478135  -0.857684  -2.482297
C    -2.216789  -1.366545  -2.723731
N    -2.191065  -2.696060  -3.078529
N    -1.182069  -0.586231  -2.574228
H    -3.170559  -2.185436  0.915766
H    -2.428725  -1.074248  -0.225229
H    -4.833760  0.082680  -0.302951
H    -5.410552  -1.483259  0.268705
H    -5.488804  -1.399860  -2.176744
H    -4.292822  -2.604741  -1.689242
H    -3.470533  0.156539  -2.427843
H    -1.288212  -3.093822  -3.307416
H    -2.956563  -3.047919  -3.645213
H    -0.342946  -0.986742  -3.000385
N    -4.738679  -0.760737  3.236196
C    -5.310805  -1.268302  4.481372
H    -5.378187  -0.483149  2.498863
H    -5.947531  -0.505856  4.945992
H    -4.491606  -1.518543  5.160190
H    -5.908069  -2.167135  4.286424
Ba    2.632774  1.206222  2.104428
