36
Energy: -246328.844991 eV PBE+vdW (tier 2 basis)
C    -0.538369  0.020623  -0.220672
C    -0.150696  0.557025  1.118822
O    1.013692  0.960358  1.350283
H    -0.122645  0.634239  -1.026759
H    -1.618180  -0.103731  -0.342437
H    -0.078998  -0.976966  -0.308792
N    -1.092372  0.556184  2.131330
C    -2.257633  1.475301  1.978247
C    -1.547613  2.857240  1.974864
O    -0.943788  3.145276  3.093757
H    -0.632198  0.777266  3.019720
H    -2.740036  1.266676  1.016930
C    -3.248198  1.256416  3.119423
C    -4.500177  2.136665  3.015072
C    -5.519412  1.768694  4.102918
N    -6.786967  2.503267  4.008087
C    -7.159127  3.559016  4.742297
N    -8.442396  3.950133  4.740598
N    -6.269251  4.235516  5.481705
H    -2.734557  1.447147  4.074391
H    -3.532589  0.193512  3.113044
H    -4.973195  2.007110  2.028815
H    -4.229628  3.201888  3.092939
H    -5.106806  1.918409  5.110583
H    -5.769960  0.700785  4.037523
H    -7.463478  2.163762  3.331428
H    -8.717850  4.855731  5.101227
H    -9.180638  3.341471  4.408346
H    -5.274064  4.100902  5.365072
N    -1.243101  3.554334  0.904393
C    -1.860180  3.369202  -0.398736
H    -6.571885  4.875248  6.206135
H    -1.096657  3.144927  -1.157778
H    -2.339834  4.308581  -0.705620
H    -2.620690  2.575481  -0.442922
Ba    1.190570  3.532462  1.935284
