36
Energy: -246328.986719 eV PBE+vdW (tier 2 basis)
C    -1.018119  0.941461  0.515280
C    -0.354305  0.479064  1.779446
O    0.858479  0.117580  1.756153
H    -2.051459  1.275536  0.655056
H    -1.007712  0.112115  -0.205470
H    -0.433990  1.757320  0.071362
N    -1.099256  0.464914  2.894366
C    -0.797847  -0.048347  4.253354
C    0.189429  0.844336  5.032497
O    1.417560  0.922459  4.577304
H    -2.044679  0.814709  2.775117
H    -1.755620  0.059571  4.772461
C    -0.418074  -1.543494  4.252671
C    -0.471710  -2.177339  5.652832
C    -1.899396  -2.460047  6.194820
N    -2.041986  -2.137249  7.622997
C    -1.940579  -0.873571  8.077807
N    -1.410076  -0.624615  9.282195
N    -2.351350  0.171120  7.334375
H    0.593600  -1.670957  3.843923
H    -1.089099  -2.075970  3.562175
H    0.053936  -1.522188  6.363028
H    0.093762  -3.117915  5.636776
H    -2.159423  -3.518363  6.085793
H    -2.662652  -1.915346  5.622064
H    -1.940472  -2.898015  8.288467
H    -1.615873  0.257428  9.738523
H    -0.924697  -1.335398  9.816921
H    -3.022247  -0.073768  6.612284
N    -0.256504  1.435007  6.093325
C    0.669301  2.285463  6.837025
H    -1.602608  0.855724  6.972911
H    0.160288  2.688064  7.719020
H    1.010065  3.135099  6.226893
H    1.564399  1.734296  7.164614
Ba    2.968163  0.619996  2.883122
