36
Energy: -246329.895636 eV PBE+vdW (tier 2 basis)
C    1.025175  -0.733859  1.378059
C    0.107007  -0.801764  2.562845
O    0.409319  -1.485431  3.571591
H    0.666433  -0.081625  0.574987
H    1.157234  -1.748765  0.978984
H    2.013387  -0.387646  1.706763
N    -1.045208  -0.098871  2.484013
C    -2.169947  -0.075053  3.440876
C    -1.756782  0.623964  4.758670
O    -1.101503  0.021753  5.645190
H    -1.187659  0.420411  1.623457
H    -2.933443  0.549004  2.955046
C    -2.767345  -1.467948  3.688744
C    -4.085632  -1.460228  4.483909
C    -4.305274  -2.722841  5.338106
N    -3.459570  -2.743371  6.536859
C    -2.187568  -3.181980  6.667243
N    -1.612346  -3.956781  5.643061
N    -1.352445  -2.890899  7.637050
H    -2.007366  -2.066588  4.198834
H    -2.922082  -1.944161  2.710707
H    -4.936956  -1.352507  3.797227
H    -4.133227  -0.590751  5.159272
H    -4.151074  -3.641526  4.753847
H    -5.346662  -2.766325  5.680473
H    -3.756991  -2.110079  7.274117
H    -1.149357  -4.778094  6.032355
H    -2.228851  -4.231032  4.881823
H    -1.793805  -2.410988  8.424701
N    -2.145451  1.891326  4.899415
C    -1.835423  2.731602  6.054702
H    -2.666880  2.318076  4.139395
H    -2.673880  3.410794  6.237995
H    -0.929300  3.324022  5.871947
H    -1.680605  2.096538  6.931109
Ba    0.557971  -1.874632  6.062116
