36
Energy: -246330.014577 eV PBE+vdW (tier 2 basis)
C    -0.253526  3.223207  2.169783
C    -0.407847  1.824596  2.685654
O    0.362279  0.907316  2.306841
H    -0.378481  3.212131  1.078584
H    0.768502  3.569009  2.371970
H    -0.965074  3.934611  2.601608
N    -1.403310  1.595201  3.569498
C    -1.801004  0.289745  4.129834
C    -0.669142  -0.292031  5.005473
O    0.160587  -1.114228  4.534141
H    -1.994251  2.387671  3.800456
H    -2.641949  0.517917  4.797915
C    -2.313013  -0.691308  3.063708
C    -2.785936  -2.043503  3.639552
C    -2.071974  -3.267246  3.054766
N    -2.235635  -3.392645  1.611057
C    -1.238797  -3.489500  0.691949
N    -1.594767  -4.028297  -0.501037
N    -0.008582  -3.049087  0.942951
H    -1.554388  -0.849952  2.286185
H    -3.137271  -0.184727  2.545292
H    -3.867925  -2.151719  3.482519
H    -2.650789  -2.082932  4.731513
H    -2.458725  -4.176981  3.538444
H    -0.998072  -3.238744  3.270200
H    -3.162798  -3.653486  1.291483
H    -0.963595  -3.998976  -1.290596
H    -2.437673  -4.578103  -0.613313
H    0.600961  -3.392519  0.193790
N    -0.593005  0.091384  6.279702
C    -1.452370  1.032472  7.002535
H    0.175690  -0.329374  6.799673
H    -1.411815  2.034474  6.558029
H    -1.084428  1.104600  8.029616
H    -2.491113  0.680789  7.041859
Ba    1.412655  -1.373970  2.365488
