36
Energy: -246329.020584 eV PBE+vdW (tier 2 basis)
C    0.375408  -0.193538  0.194288
C    0.226069  -0.188936  1.687120
O    1.266911  -0.288237  2.432830
H    1.101834  0.567930  -0.120400
H    0.774806  -1.169328  -0.116266
H    -0.570812  -0.024448  -0.329356
N    -0.988237  -0.068895  2.185687
C    -1.456190  -0.174384  3.569258
C    -3.004964  -0.157438  3.389564
O    -3.453259  0.250413  2.310216
H    -1.816898  0.070529  1.571135
H    -1.120549  -1.141093  3.974209
C    -0.980408  0.943182  4.525951
C    -1.478067  2.374545  4.281491
C    -0.928822  3.087468  3.033654
N    0.521661  2.955168  2.860675
C    1.499989  3.449964  3.655582
N    1.206554  4.520719  4.423241
N    2.691341  2.839117  3.661953
H    0.119798  0.928742  4.548720
H    -1.292228  0.645888  5.535922
H    -1.216660  2.961756  5.173497
H    -2.575923  2.399808  4.219696
H    -1.216278  4.148992  3.055018
H    -1.381134  2.687832  2.119323
H    0.843247  2.287253  2.174364
H    0.408149  5.110129  4.218119
H    1.895955  4.898773  5.060381
H    3.400575  3.464367  4.055962
N    -3.789462  -0.548805  4.406539
C    -3.421272  -1.120798  5.696709
H    -4.783466  -0.460509  4.203107
H    -3.357896  -0.354710  6.482212
H    -2.467322  -1.655907  5.633568
H    -4.184863  -1.849267  5.989177
Ba    3.360375  0.377470  3.402887
