36
Energy: -246327.9306 eV PBE+vdW (tier 2 basis)
C    -2.253831  0.153097  -0.617785
C    -0.995130  0.142646  0.190353
O    0.137061  0.219726  -0.376676
H    -2.008197  0.152980  -1.682794
H    -2.834461  1.058454  -0.391556
H    -2.902088  -0.704072  -0.389900
N    -1.040979  0.051146  1.541605
C    -1.934420  -0.860367  2.274195
C    -1.718258  -2.292679  1.700560
O    -0.688387  -2.531462  0.971630
H    -0.132174  0.200266  1.976498
H    -1.507664  -0.895440  3.289331
C    -3.406604  -0.379663  2.399845
C    -3.953369  -0.300057  3.837910
C    -3.945044  -1.598099  4.651228
N    -4.605449  -2.688352  3.915153
C    -4.603225  -4.043709  4.385575
N    -3.588952  -4.337320  5.283284
N    -5.333207  -4.976450  3.903427
H    -4.060285  -1.002198  1.773918
H    -3.458068  0.631757  1.979572
H    -4.982855  0.083465  3.773944
H    -3.393506  0.458289  4.405294
H    -4.415047  -1.403673  5.629510
H    -2.910416  -1.916513  4.854137
H    -5.543678  -2.434021  3.606002
H    -3.656714  -5.301179  5.603713
H    -3.449103  -3.691259  6.054865
H    -5.977697  -4.657748  3.175359
N    -2.579623  -3.225819  2.018944
C    -2.436437  -4.633336  1.641168
H    -3.406768  -2.974834  2.630330
H    -3.229085  -5.198991  2.138828
H    -1.460660  -5.018216  1.960790
H    -2.533002  -4.753035  0.554476
Ba    1.233413  -2.000518  -0.422365
