36
Energy: -246330.008926 eV PBE+vdW (tier 2 basis)
C    -1.231093  0.066711  -0.193374
C    -1.571256  0.309103  1.242695
O    -1.235111  1.369499  1.830687
H    -1.669105  0.868866  -0.802435
H    -1.583176  -0.899929  -0.568314
H    -0.142196  0.126992  -0.320755
N    -2.259254  -0.645073  1.908797
C    -2.722218  -0.431377  3.278782
C    -1.553874  -0.504650  4.291715
O    -1.206746  0.567323  4.869320
H    -2.568180  -1.467594  1.398272
H    -3.035108  0.618104  3.328661
C    -3.952183  -1.283612  3.632348
C    -4.512861  -1.038539  5.046260
C    -5.185181  0.319074  5.296478
N    -4.224156  1.422686  5.297195
C    -4.425429  2.692317  4.860944
N    -5.706379  3.092356  4.672520
N    -3.363773  3.449979  4.590700
H    -3.726435  -2.353467  3.526091
H    -4.728378  -1.057629  2.884863
H    -3.734606  -1.210541  5.808781
H    -5.272959  -1.807819  5.238706
H    -5.723207  0.270457  6.256629
H    -5.930114  0.513189  4.511100
H    -3.306437  1.244645  5.691834
H    -5.894091  4.006228  4.279770
H    -6.470023  2.658619  5.177779
H    -3.650446  4.429312  4.510150
N    -0.914907  -1.640000  4.563127
C    -1.125699  -2.991360  4.042656
H    -0.180045  -1.534517  5.262440
H    -0.179821  -3.536669  4.118436
H    -1.413602  -2.968692  2.988194
H    -1.883851  -3.530467  4.624935
Ba    -0.926343  2.893602  3.834557
