36
Energy: -246329.325229 eV PBE+vdW (tier 2 basis)
C    -0.308707  -0.518032  -0.448999
C    -0.473796  0.093922  0.904904
O    0.546283  0.425584  1.592293
H    -1.195634  -0.407817  -1.081184
H    -0.091282  -1.591454  -0.345064
H    0.553604  -0.058734  -0.944501
N    -1.681957  0.302432  1.423842
C    -3.002909  -0.146560  1.003943
C    -3.975709  0.587569  1.956726
O    -3.569225  0.984393  3.070628
H    -1.728653  0.778256  2.330119
H    -3.199077  0.191410  -0.023207
C    -3.189369  -1.704357  1.042744
C    -2.326806  -2.543147  2.003035
C    -2.655596  -2.533809  3.504961
N    -2.346705  -1.286685  4.206808
C    -1.123539  -0.859257  4.539783
N    -1.004170  0.521604  4.893012
N    0.020079  -1.505282  4.527939
H    -2.986045  -2.073725  0.028860
H    -4.252383  -1.918958  1.224010
H    -1.259112  -2.317192  1.863117
H    -2.440751  -3.587794  1.677691
H    -2.123923  -3.359320  3.998791
H    -3.723227  -2.727251  3.671100
H    -3.075749  -0.570321  4.198316
H    -0.834923  0.625416  5.896438
H    -1.834495  1.068736  4.646159
H    -0.074173  -2.509414  4.367722
N    -5.240731  0.754387  1.556969
C    -5.832202  0.441118  0.254355
H    -5.830587  1.226786  2.239224
H    -5.321199  0.974190  -0.558068
H    -6.873754  0.773307  0.269150
H    -5.826522  -0.636311  0.048433
Ba    1.679369  0.347931  3.752960
