36
Energy: -246328.235892 eV PBE+vdW (tier 2 basis)
C    0.449663  1.129550  1.789764
C    -0.075108  0.312429  2.920383
O    0.706136  -0.181273  3.795183
H    1.071084  1.953825  2.164424
H    -0.337862  1.511273  1.130377
H    1.121798  0.480912  1.207217
N    -1.402000  0.089031  3.034895
C    -2.411712  1.130202  2.824597
C    -2.137659  2.248183  3.847252
O    -1.422034  2.012338  4.884607
H    -1.644593  -0.600940  3.747738
H    -2.306303  1.541050  1.796171
C    -3.815710  0.511875  3.013488
C    -4.193976  -0.533142  1.942020
C    -5.021662  0.020165  0.764884
N    -4.433247  1.179836  0.099566
C    -3.210127  1.159778  -0.550117
N    -3.052762  0.140811  -1.452651
N    -2.325627  2.063753  -0.222791
H    -3.850619  0.054232  4.016273
H    -4.559851  1.320599  3.041852
H    -4.781437  -1.332094  2.415816
H    -3.285446  -1.017310  1.551672
H    -6.016729  0.327233  1.114039
H    -5.191843  -0.787117  0.041181
H    -4.582375  2.066322  0.567288
H    -2.199037  0.121175  -1.997504
H    -3.875249  -0.194578  -1.944211
H    -1.576809  2.128292  -0.918396
N    -2.635315  3.457555  3.651969
C    -3.387564  3.955787  2.495193
H    -2.462173  4.118306  4.408967
H    -3.048102  3.462198  1.572660
H    -3.193695  5.029094  2.404286
H    -4.466241  3.812399  2.643672
Ba    0.420922  0.855649  6.011761
