36
Energy: -246330.001156 eV PBE+vdW (tier 2 basis)
C    -0.531848  1.385400  0.737104
C    -1.105651  1.130692  2.094287
O    -1.010959  1.980317  3.017630
H    -0.974858  2.304758  0.331578
H    -0.698348  0.564811  0.031549
H    0.547233  1.565466  0.831439
N    -1.742222  -0.042275  2.310130
C    -2.395227  -0.346466  3.581017
C    -1.364364  -0.835819  4.625166
O    -0.937348  -0.016237  5.482398
H    -1.819961  -0.700801  1.539995
H    -2.744332  0.621300  3.963027
C    -3.645980  -1.211803  3.423730
C    -4.396319  -1.415038  4.753911
C    -4.572745  -0.167929  5.633180
N    -5.190926  0.952616  4.919817
C    -4.969948  2.271211  5.202933
N    -6.012995  3.101552  4.954677
N    -3.792425  2.706459  5.641744
H    -3.414292  -2.195211  2.984172
H    -4.294092  -0.701426  2.696749
H    -3.887771  -2.169281  5.372265
H    -5.381162  -1.846935  4.524724
H    -3.615312  0.183718  6.031844
H    -5.184377  -0.442740  6.507250
H    -6.097870  0.750137  4.508824
H    -5.888871  4.105718  4.960455
H    -6.965098  2.763072  4.884031
H    -3.933667  3.664805  5.979486
N    -0.957917  -2.099584  4.569879
C    0.040587  -2.700542  5.454227
H    -1.364331  -2.696591  3.854724
H    -0.354656  -3.632505  5.873603
H    0.263856  -2.000663  6.262729
H    0.958824  -2.920067  4.895265
Ba    -1.156706  2.517175  5.475301
