36
Energy: -246328.156087 eV PBE+vdW (tier 2 basis)
C    0.258342  -0.161963  2.282979
C    -0.480615  -0.002917  3.566156
O    0.122601  0.003962  4.688204
H    0.590633  0.825143  1.919323
H    -0.363410  -0.623668  1.495538
H    1.160145  -0.754978  2.471288
N    -1.820882  0.175541  3.562570
C    -2.510685  1.003932  2.576485
C    -2.041234  2.458400  2.787900
O    -1.386049  2.774366  3.841397
H    -2.245623  0.164770  4.490621
H    -2.198661  0.655516  1.578212
C    -4.039494  0.831176  2.727955
C    -4.521866  -0.604800  2.450282
C    -5.000870  -0.907564  1.009650
N    -4.253396  -0.264128  -0.065558
C    -2.930174  -0.533027  -0.349153
N    -2.394535  0.244711  -1.371876
N    -2.129699  -1.292549  0.333595
H    -4.549037  1.540321  2.063840
H    -4.314297  1.125689  3.753797
H    -5.373968  -0.820992  3.108615
H    -3.738830  -1.314095  2.753623
H    -6.032656  -0.551447  0.901743
H    -5.036600  -2.001863  0.878638
H    -4.821741  0.097692  -0.823902
H    -1.541409  -0.157598  -1.751133
H    -3.031439  0.545264  -2.104348
H    -2.639951  -1.860805  1.011632
N    -2.297736  3.382486  1.875128
C    -2.955957  3.233230  0.574665
H    -1.987823  4.320839  2.125555
H    -2.725566  2.260093  0.125000
H    -2.573125  4.017046  -0.086247
H    -4.042155  3.355465  0.669063
Ba    0.139390  2.237040  5.702633
