36
Energy: -246329.767721 eV PBE+vdW (tier 2 basis)
C    0.580120  0.288538  1.070120
C    -0.252653  -0.227862  2.206565
O    0.162717  -1.156881  2.939536
H    0.844954  -0.549019  0.411962
H    1.520649  0.688779  1.471903
H    0.088536  1.067471  0.478047
N    -1.460210  0.345962  2.392864
C    -2.479014  0.052059  3.421065
C    -1.932998  0.388194  4.835270
O    -1.214717  -0.427623  5.465527
H    -1.701413  1.086260  1.741866
H    -3.287670  0.757246  3.190746
C    -3.073374  -1.375713  3.427228
C    -3.081078  -2.155564  2.111156
C    -3.562146  -3.619560  2.295901
N    -3.095559  -4.262395  3.534367
C    -1.804691  -4.404663  3.919948
N    -0.800410  -4.299442  2.949314
N    -1.353141  -4.532505  5.147511
H    -4.097668  -1.286438  3.820529
H    -2.530299  -1.955131  4.182575
H    -2.072585  -2.149123  1.675619
H    -3.735849  -1.683181  1.365469
H    -3.279366  -4.226339  1.423083
H    -4.656511  -3.658771  2.341036
H    -3.764105  -4.266427  4.298233
H    -0.123097  -5.056087  3.036622
H    -1.106740  -4.204895  1.984536
H    -2.087371  -4.706971  5.837481
N    -2.270275  1.573082  5.339143
C    -1.840075  2.060905  6.649566
H    -2.853587  2.186159  4.777906
H    -2.565331  2.797948  7.006034
H    -0.851022  2.532774  6.584054
H    -1.794352  1.224398  7.353399
Ba    0.339056  -2.444256  5.083886
