36
Energy: -246329.50164 eV PBE+vdW (tier 2 basis)
C    -1.495012  0.886188  -0.317515
C    -1.170555  0.641022  1.132331
O    -0.592219  1.523796  1.808150
H    -2.353553  1.572771  -0.362008
H    -1.758470  -0.018161  -0.878257
H    -0.658760  1.400868  -0.803670
N    -1.538004  -0.561942  1.625050
C    -1.717547  -1.089482  2.991518
C    -1.110219  -0.286064  4.143562
O    0.093711  0.080465  4.160820
H    -1.995143  -1.161909  0.943037
H    -2.805784  -1.099233  3.146313
C    -1.276445  -2.579632  3.095995
C    0.216373  -2.940396  3.224828
C    1.005055  -3.283202  1.952349
N    1.241804  -2.187228  1.001371
C    2.025685  -1.114129  1.256000
N    2.030603  -0.083919  0.293028
N    2.686482  -0.837940  2.349340
H    -1.734396  -3.115254  2.248342
H    -1.792713  -2.971003  3.984290
H    0.269955  -3.854184  3.833746
H    0.739071  -2.175683  3.813198
H    0.478813  -4.062478  1.386676
H    1.970040  -3.726171  2.247464
H    1.048713  -2.394543  0.026947
H    2.976922  0.175462  0.015178
H    1.447124  -0.235889  -0.526821
H    2.777772  -1.633874  2.981892
N    -1.884724  -0.090792  5.214619
C    -3.291370  -0.444227  5.432578
H    -1.394903  0.336330  5.998915
H    -3.936174  -0.013352  4.657429
H    -3.596628  -0.021254  6.393857
H    -3.434956  -1.531142  5.479786
Ba    1.685398  1.555722  2.897708
