36
Energy: -246328.39412 eV PBE+vdW (tier 2 basis)
C    0.104581  -0.038168  0.166397
C    -0.000458  -0.213106  1.651573
O    1.050130  -0.450441  2.347550
H    0.288886  1.024591  -0.053665
H    -0.818004  -0.355612  -0.342846
H    0.964522  -0.596198  -0.218315
N    -1.220421  -0.127496  2.166479
C    -1.731777  -0.085932  3.537248
C    -1.002748  -0.920601  4.581540
O    -0.377467  -1.991781  4.311477
H    -2.001436  0.079132  1.478194
H    -1.705103  0.961919  3.878870
C    -3.219511  -0.575393  3.500632
C    -4.309451  0.462657  3.175248
C    -4.169278  1.311658  1.895842
N    -3.499333  0.632037  0.778489
C    -3.976031  -0.556147  0.145153
N    -5.277827  -0.898465  0.420483
N    -3.091525  -1.204812  -0.525635
H    -3.475043  -1.008847  4.477232
H    -3.254965  -1.415326  2.792084
H    -4.418161  1.164386  4.015502
H    -5.248344  -0.105400  3.139501
H    -3.548524  2.194685  2.103880
H    -5.163250  1.710860  1.630287
H    -3.145330  1.277414  0.075105
H    -5.961338  -0.157264  0.541776
H    -5.644906  -1.718439  -0.051183
H    -3.490930  -1.983132  -1.056219
N    -1.104797  -0.525881  5.852876
C    -1.802364  0.641308  6.400694
H    -0.721399  -1.185889  6.526603
H    -1.561988  0.707949  7.465305
H    -2.890769  0.547288  6.297590
H    -1.464902  1.566184  5.918190
Ba    1.825895  -2.454902  3.361437
