36
Energy: -246328.697203 eV PBE+vdW (tier 2 basis)
C    0.100132  0.226286  -2.041103
C    0.660899  0.915894  -0.976499
O    1.816196  1.519808  -1.101687
H    -3.637155  3.770172  -0.002517
H    -0.830114  -0.329502  -1.966325
H    0.396803  0.535580  -3.043651
N    0.196759  0.862409  0.345558
C    -0.541730  -0.240593  0.926478
C    0.167211  -1.608617  0.667981
O    1.357734  -1.658542  0.275664
H    0.884038  1.283362  0.964109
H    -0.452292  -0.103928  2.018020
C    -2.058582  -0.198350  0.609077
C    -2.668420  1.150649  1.009950
C    -4.171988  1.288231  0.735812
N    -4.536416  1.443025  -0.681188
C    -4.712352  2.608500  -1.318698
N    -5.328311  2.628391  -2.511215
N    -4.280634  3.757096  -0.782853
H    -2.579390  -0.992434  1.167140
H    -2.225424  -0.399342  -0.458335
H    -2.109340  1.955221  0.509227
H    -2.525551  1.307062  2.090639
H    -4.582360  2.148510  1.282270
H    -4.720805  0.411024  1.104672
H    -4.734247  0.602878  -1.213418
H    -5.308131  3.453074  -3.099062
H    -5.913568  1.860042  -2.815725
H    -4.593234  4.651296  -1.141749
N    -0.504775  -2.724735  0.956349
C    0.083917  -4.061282  0.876808
H    -1.457780  -2.646639  1.291050
H    -0.624141  -4.779957  1.297844
H    1.019013  -4.099946  1.447240
H    0.290516  -4.334060  -0.165578
Ba    2.866396  -0.603965  -1.514569
