36
Energy: -246328.003559 eV PBE+vdW (tier 2 basis)
C    0.101325  0.300603  -0.269175
C    0.429361  0.495798  1.173368
O    1.623206  0.718801  1.548267
H    0.792556  -0.455368  -0.667452
H    0.296832  1.223905  -0.833770
H    -0.932362  -0.017867  -0.438839
N    -0.547227  0.444112  2.104475
C    -1.858488  1.069388  1.924362
C    -1.626823  2.596688  1.832528
O    -0.471470  3.077623  2.119696
H    -0.198237  0.456291  3.063786
H    -2.294396  0.707360  0.974609
C    -2.797896  0.688972  3.090265
C    -2.906195  -0.818337  3.382455
C    -3.330398  -1.731880  2.214470
N    -4.559865  -1.329412  1.543415
C    -4.620738  -0.483215  0.451481
N    -3.510780  -0.570697  -0.424421
N    -5.538945  0.370812  0.162145
H    -3.792138  1.092482  2.861637
H    -2.466777  1.204072  4.006647
H    -3.629861  -0.925282  4.204474
H    -1.956520  -1.207695  3.782178
H    -3.454869  -2.751340  2.605258
H    -2.529748  -1.792097  1.467255
H    -5.395112  -1.320504  2.121079
H    -3.765498  -0.095718  -1.290726
H    -3.252761  -1.535908  -0.632868
H    -6.263522  0.428674  0.883438
N    -2.592303  3.418432  1.461846
C    -3.972645  3.143507  1.051621
H    -2.324261  4.402720  1.484443
H    -4.225705  3.824648  0.232175
H    -4.658247  3.334015  1.887369
H    -4.114611  2.116285  0.695522
Ba    1.961206  3.012397  2.388745
