36
Energy: -246328.028324 eV PBE+vdW (tier 2 basis)
C    0.266442  -0.948035  0.449592
C    0.328212  -0.504275  1.870266
O    1.436776  -0.326576  2.470939
H    1.132850  -1.588637  0.248932
H    0.353086  -0.074521  -0.218206
H    -0.676377  -1.470504  0.218679
N    -0.812457  -0.247620  2.549145
C    -1.971534  0.419653  1.954519
C    -1.513629  1.843418  1.579490
O    -0.464838  2.333176  2.131616
H    -0.678839  -0.080601  3.547111
H    -2.253722  -0.164128  1.056985
C    -3.127235  0.379101  2.992935
C    -4.592011  0.445029  2.529810
C    -5.178656  -0.793258  1.813251
N    -4.977234  -0.851952  0.370738
C    -3.891145  -1.448291  -0.241328
N    -3.831081  -1.268773  -1.607951
N    -2.886562  -2.020237  0.357396
H    -2.959581  1.179800  3.731202
H    -2.993159  -0.569453  3.536352
H    -4.793980  1.344827  1.933844
H    -5.177958  0.576766  3.451614
H    -6.263569  -0.784898  1.972972
H    -4.820785  -1.718855  2.293989
H    -5.812036  -0.727097  -0.191605
H    -3.257347  -1.953244  -2.089601
H    -4.677942  -1.017547  -2.105743
H    -3.103730  -2.215512  1.337256
N    -2.163975  2.572300  0.685472
C    -3.275592  2.218782  -0.196813
H    -1.782039  3.510743  0.564039
H    -2.979015  2.418833  -1.233526
H    -4.153118  2.830698  0.044248
H    -3.536505  1.163558  -0.100846
Ba    1.818106  2.042408  3.011720
