36
Energy: -246327.612454 eV PBE+vdW (tier 2 basis)
C    0.183790  1.177617  0.091642
C    0.044211  0.476668  1.403720
O    1.065005  0.106289  2.061738
H    -0.663294  0.990094  -0.576844
H    1.112132  0.844602  -0.385311
H    0.268764  2.265305  0.245933
N    -1.182064  0.248143  1.922796
C    -2.265167  1.229259  1.903194
C    -1.802923  2.451494  2.730235
O    -0.780010  2.355164  3.492742
H    -1.183272  -0.362159  2.740667
H    -2.444796  1.543354  0.864533
C    -3.554672  0.591415  2.464220
C    -4.083243  -0.531547  1.571210
C    -5.398757  -1.152470  2.089858
N    -5.916279  -2.181446  1.201682
C    -6.271143  -1.846361  -0.118339
N    -7.173631  -0.783823  -0.188854
N    -5.723934  -2.497578  -1.079832
H    -4.319029  1.373376  2.571481
H    -3.352112  0.229767  3.487849
H    -3.332397  -1.329463  1.462944
H    -4.263370  -0.139733  0.557342
H    -6.153672  -0.363227  2.213012
H    -5.248430  -1.604183  3.081304
H    -5.337314  -3.019355  1.169254
H    -7.538450  -0.611995  -1.120661
H    -7.915922  -0.808416  0.507320
H    -6.165522  -2.304525  -1.983723
N    -2.471364  3.593283  2.663115
C    -3.638971  3.937127  1.847276
H    -2.130375  4.322570  3.289657
H    -3.516724  4.961874  1.480622
H    -4.557250  3.883076  2.445783
H    -3.728511  3.269670  0.986042
Ba    1.386255  1.377757  4.154783
