36
Energy: -246329.811926 eV PBE+vdW (tier 2 basis)
C    -0.563335  0.059793  -0.626783
C    -0.292840  -0.002137  0.850092
O    0.816406  -0.411574  1.271487
H    -0.449639  -0.949586  -1.044404
H    0.195689  0.691803  -1.105465
H    -1.557088  0.440735  -0.884333
N    -1.296345  0.399759  1.659081
C    -1.453091  0.413939  3.132285
C    -0.428542  1.315262  3.848858
O    0.812569  1.153242  3.770841
H    -2.130373  0.699490  1.163875
H    -2.424105  0.911895  3.257602
C    -1.666145  -0.984713  3.770362
C    -0.491251  -1.966217  3.908565
C    0.370975  -1.776543  5.173778
N    1.817818  -1.746900  4.868668
C    2.460670  -2.862395  4.246161
N    1.946699  -4.090416  4.445931
N    3.463627  -2.527974  3.483817
H    -2.450987  -1.458492  3.163790
H    -2.125208  -0.818935  4.757732
H    0.138042  -1.924279  3.010839
H    -0.914771  -2.978355  3.914550
H    0.119201  -2.538369  5.930453
H    0.160923  -0.810446  5.649447
H    2.366997  -1.448204  5.677113
H    2.342591  -4.898777  3.978292
H    1.315768  -4.278141  5.216413
H    4.007088  -3.321485  3.136404
N    -0.951883  2.279257  4.611166
C    -0.147402  3.203879  5.408467
H    -1.959044  2.402077  4.621462
H    -0.817775  3.796552  6.036362
H    0.425585  3.877812  4.759363
H    0.548351  2.648797  6.048099
Ba    2.812827  -0.044355  2.731628
