36
Energy: -246329.832138 eV PBE+vdW (tier 2 basis)
C    -0.148534  -0.409456  0.784698
C    -0.091446  -0.218624  2.271288
O    1.001562  -0.278209  2.886268
H    -1.160206  -0.354061  0.369458
H    0.288286  -1.385251  0.535233
H    0.476621  0.353883  0.302725
N    -1.257623  0.010785  2.908825
C    -1.488721  0.195844  4.355235
C    -0.818021  1.508182  4.835906
O    0.385065  1.512897  5.206578
H    -2.088208  0.019623  2.325722
H    -2.575320  0.311836  4.434610
C    -1.062818  -0.968043  5.270221
C    -1.203112  -2.390252  4.731889
C    -0.511205  -3.405144  5.665792
N    0.895097  -3.081510  5.910136
C    1.944134  -3.247406  5.052770
N    1.894480  -4.311945  4.214073
N    2.917935  -2.346526  5.072470
H    -1.638219  -0.858722  6.202683
H    -0.017115  -0.809766  5.560893
H    -0.749722  -2.473376  3.733579
H    -2.259111  -2.677076  4.625906
H    -0.607683  -4.415320  5.249206
H    -1.004577  -3.434880  6.645840
H    1.111400  -2.504563  6.713451
H    2.639598  -4.447916  3.542251
H    1.375487  -5.143688  4.473554
H    3.775281  -2.736884  4.668853
N    -1.539055  2.628374  4.845328
C    -2.937815  2.819987  4.451464
H    -1.034180  3.449042  5.177155
H    -3.621285  2.264080  5.105472
H    -3.102510  2.536157  3.404822
H    -3.171390  3.883724  4.549230
Ba    2.569927  0.249207  4.752418
