36
Energy: -246327.89242 eV PBE+vdW (tier 2 basis)
C    -0.620049  -0.221269  -0.264555
C    -0.265197  -0.134914  1.180428
O    0.936951  -0.266048  1.581302
H    -0.400994  0.739614  -0.759696
H    -1.678678  -0.470762  -0.443179
H    0.034243  -0.966335  -0.733434
N    -1.219003  0.124253  2.100843
C    -2.312558  1.071481  1.889634
C    -1.657416  2.449283  1.640817
O    -0.479715  2.674435  2.086390
H    -0.916742  0.018529  3.069561
H    -2.869733  0.755893  0.995232
C    -3.211915  1.063636  3.159320
C    -4.684054  1.496033  3.039395
C    -5.673547  0.450173  2.480387
N    -5.519832  0.105515  1.070710
C    -4.533009  -0.709212  0.549487
N    -4.051218  -1.683076  1.418022
N    -3.974162  -0.596764  -0.616993
H    -2.721367  1.686468  3.924551
H    -3.188146  0.027076  3.526174
H    -4.783642  2.439677  2.485057
H    -5.024729  1.729925  4.059390
H    -6.692431  0.837230  2.610533
H    -5.626096  -0.460388  3.093599
H    -5.953718  0.732537  0.403108
H    -3.511666  -2.380818  0.912339
H    -4.748610  -2.115839  2.018138
H    -4.373583  0.170181  -1.165276
N    -2.287206  3.400483  0.967572
C    -3.553830  3.352531  0.236912
H    -1.778586  4.284024  0.920205
H    -3.917593  2.325016  0.170579
H    -3.389022  3.738082  -0.776139
H    -4.305564  3.977237  0.733947
Ba    1.816509  1.844352  2.489572
