36
Energy: -246329.437247 eV PBE+vdW (tier 2 basis)
C    -0.117318  0.909107  -0.542836
C    0.402626  1.560468  0.704406
O    0.908802  2.720957  0.651293
H    -0.472789  -0.114915  -0.386724
H    0.662218  0.906099  -1.314609
H    -0.947213  1.516745  -0.929873
N    0.298942  0.878938  1.851822
C    0.537041  1.365608  3.224404
C    2.025675  1.281671  3.621215
O    2.844272  1.903974  2.802040
H    -0.108428  -0.048643  1.778185
H    0.312077  2.445493  3.196667
C    -0.500596  0.714322  4.160730
C    -0.606823  -0.828596  4.185309
C    0.139636  -1.580320  5.296083
N    -0.359171  -1.284565  6.641093
C    0.266200  -0.539526  7.567356
N    -0.198851  -0.555717  8.831709
N    1.313545  0.212960  7.238060
H    -1.475615  1.116631  3.852181
H    -0.337255  1.108491  5.171857
H    -0.262742  -1.281837  3.241050
H    -1.671214  -1.096890  4.248197
H    1.211996  -1.361871  5.265862
H    0.022333  -2.660961  5.137001
H    -1.237520  -1.712828  6.914356
H    0.154310  0.089543  9.526268
H    -0.824210  -1.282358  9.156246
H    1.613399  0.376697  6.232206
N    2.380233  0.700820  4.717712
C    3.808769  0.708331  5.035697
H    1.868314  0.629742  7.975478
H    3.988312  0.065800  5.905974
H    4.165274  1.721928  5.278126
H    4.418413  0.334995  4.201035
Ba    3.136164  3.572381  1.215526
