36
Energy: -246328.909299 eV PBE+vdW (tier 2 basis)
C    -1.369794  0.417107  -1.497669
C    -0.416524  0.199214  -0.361247
O    0.834362  0.198233  -0.570596
H    -1.435586  1.487183  -1.746122
H    -2.378318  0.045146  -1.293655
H    -0.964203  -0.093606  -2.379091
N    -0.890036  -0.000273  0.888607
C    -1.955986  0.843002  1.453328
C    -1.270559  2.121717  2.019171
O    -0.221349  2.546712  1.335321
H    -0.158329  -0.253580  1.554063
H    -2.571059  1.175786  0.603046
C    -2.847535  0.080152  2.438263
C    -4.231524  0.724769  2.582861
C    -5.077000  0.172835  3.730219
N    -4.441320  0.149223  5.067550
C    -4.063201  1.211368  5.805229
N    -4.175401  1.132964  7.144477
N    -3.572174  2.313555  5.235482
H    -2.343082  0.018955  3.414021
H    -2.956598  -0.950648  2.071984
H    -4.815895  0.557334  1.664934
H    -4.138751  1.813465  2.678006
H    -5.339038  -0.873884  3.531934
H    -6.019399  0.736757  3.791842
H    -4.592869  -0.703152  5.596425
H    -3.676810  1.771970  7.751736
H    -4.816453  0.482908  7.583357
H    -3.472038  3.138582  5.815802
N    -1.753849  2.681078  3.074254
C    -1.118074  3.916949  3.524915
H    -3.017019  2.305062  4.339461
H    -0.200694  3.703776  4.096447
H    -1.800974  4.461667  4.188040
H    -0.851469  4.582477  2.691889
Ba    1.806668  2.373967  0.191190
