36
Energy: -246329.195415 eV PBE+vdW (tier 2 basis)
C    -0.515224  0.489731  0.364666
C    -0.395883  0.185899  1.843547
O    0.481187  -0.693116  2.189139
H    -0.276530  1.539496  0.149949
H    -1.534427  0.306204  -0.004251
H    0.178246  -0.148832  -0.189447
N    -1.157460  0.688826  2.817367
C    -2.462587  1.300306  2.565985
C    -3.422182  0.159375  2.124540
O    -3.203770  -1.001577  2.565864
H    2.441868  4.813544  -1.251873
H    -2.852227  1.553791  3.570667
C    -2.527960  2.632148  1.785461
C    -1.768690  3.783882  2.474273
C    -0.251306  3.847555  2.279591
N    0.090285  4.286880  0.915884
C    1.317297  4.243158  0.376401
N    2.347315  3.751970  1.076187
N    1.510611  4.655933  -0.885742
H    -3.581636  2.950150  1.749051
H    -2.205184  2.512917  0.742281
H    -1.949603  3.740135  3.558085
H    -2.200855  4.745506  2.154309
H    0.194665  2.859585  2.458134
H    0.169453  4.558339  3.009075
H    -0.589125  4.883043  0.451737
H    3.251682  3.602785  0.645096
H    2.281173  3.605865  2.075085
H    0.735239  4.922132  -1.479786
N    -4.464284  0.430801  1.340657
C    -5.486287  -0.540366  0.952067
H    -4.586459  1.387791  1.027334
H    -5.672359  -0.466357  -0.124996
H    -6.421950  -0.348512  1.492487
H    -5.129405  -1.543988  1.194682
Ba    -1.069733  -1.704751  3.837846
