36
Energy: -246327.986106 eV PBE+vdW (tier 2 basis)
C    -0.132026  -0.140027  0.741063
C    -1.296583  0.387408  1.522435
O    -1.149779  1.421992  2.253024
H    -0.382751  -0.244913  -0.321593
H    0.177672  -1.131285  1.101198
H    0.708755  0.551532  0.842673
N    -2.502636  -0.211871  1.489623
C    -2.749743  -1.655739  1.434009
C    -2.118841  -2.289321  2.687359
O    -1.414233  -1.582363  3.490128
H    -3.291596  0.345227  1.842783
H    -3.850052  -1.738671  1.602995
C    -2.449435  -2.340949  0.078555
C    -2.959710  -1.607870  -1.177921
C    -4.482885  -1.423957  -1.364793
N    -5.060854  -0.310285  -0.622473
C    -5.506562  -0.387246  0.668780
N    -5.481030  0.828965  1.376961
N    -5.805406  -1.456972  1.340198
H    -2.902994  -3.339579  0.104014
H    -1.370494  -2.512635  -0.035176
H    -2.596300  -2.192214  -2.036167
H    -2.482010  -0.620483  -1.268848
H    -5.025632  -2.348260  -1.121705
H    -4.679843  -1.241903  -2.428687
H    -4.957275  0.607064  -1.041972
H    -6.178626  0.824794  2.119415
H    -5.565269  1.669709  0.808670
H    -5.882048  -2.270953  0.725178
N    -2.360388  -3.556160  2.998010
C    -3.275669  -4.514048  2.370186
H    -1.886739  -3.873184  3.842594
H    -2.774811  -5.087438  1.580773
H    -4.154953  -3.999283  1.970194
H    -3.613910  -5.209687  3.144406
Ba    -0.993604  0.594646  4.559057
