36
Energy: -246329.872015 eV PBE+vdW (tier 2 basis)
C    -1.186431  0.635395  0.561681
C    -1.676366  -0.048539  1.806029
O    -2.180374  -1.195583  1.737802
H    -0.768957  1.632800  0.734654
H    -2.022043  0.715921  -0.146370
H    -0.422536  0.007311  0.085138
N    -1.545590  0.636204  2.960332
C    -1.950261  0.363650  4.356404
C    -1.330079  -0.902107  4.965668
O    -1.501500  -2.044667  4.466088
H    -1.119687  1.550582  2.845748
H    -1.498774  1.210598  4.884898
C    -3.465093  0.491446  4.692984
C    -4.466659  -0.656604  4.484638
C    -5.105074  -0.767629  3.088874
N    -6.262666  -1.646114  3.060076
C    -6.244157  -2.991896  2.886683
N    -7.456044  -3.602282  2.895045
N    -5.103058  -3.655661  2.730049
H    -3.822225  1.398849  4.181324
H    -3.485100  0.741495  5.764169
H    -5.289757  -0.471520  5.190491
H    -4.042833  -1.620251  4.804296
H    -4.394824  -1.090137  2.317889
H    -5.452714  0.225475  2.770271
H    -7.154994  -1.226591  3.293073
H    -7.528655  -4.602315  2.765655
H    -8.321140  -3.079288  2.838777
H    -5.336391  -4.634071  2.533619
N    -0.642697  -0.768855  6.102276
C    -0.314009  0.446050  6.854564
H    -0.308368  -1.651622  6.485975
H    0.292922  1.137100  6.256495
H    0.277591  0.150430  7.725499
H    -1.216153  0.953744  7.217974
Ba    -2.502303  -3.478319  2.657235
