36
Energy: -246329.325197 eV PBE+vdW (tier 2 basis)
C    0.181921  0.977992  0.580741
C    -0.149605  0.778164  2.031093
O    0.811902  1.030544  2.887057
H    -0.709396  0.932999  -0.051838
H    0.904445  0.218305  0.250598
H    0.661765  1.954930  0.441901
N    -1.349530  0.379560  2.375536
C    -1.595703  0.301757  3.813845
C    -0.793766  -0.822454  4.498344
O    0.019970  -0.494814  5.423933
H    -2.311708  -0.629351  -0.831813
H    -1.159554  1.198495  4.289447
C    -3.088179  0.377615  4.227057
C    -4.168707  -0.496104  3.564684
C    -4.757020  0.029151  2.251710
N    -3.793443  -0.009775  1.150743
C    -4.137535  0.000793  -0.132269
N    -5.407739  0.196322  -0.523477
N    -3.192694  -0.198544  -1.075837
H    -3.379216  1.432253  4.102983
H    -3.116772  0.198176  5.312159
H    -5.013146  -0.541209  4.267031
H    -3.846176  -1.535672  3.434585
H    -5.123628  1.059665  2.404539
H    -5.621701  -0.596816  1.986450
H    -2.777856  0.136881  1.434619
H    -5.698036  0.027772  -1.478519
H    -6.103385  0.561989  0.113151
H    -3.388169  -0.053412  -2.057745
N    -0.871780  -2.107329  4.156083
C    -1.595450  -2.758595  3.069476
H    -0.292683  -2.713349  4.736590
H    -2.447886  -3.332243  3.454455
H    -0.914334  -3.451040  2.560286
H    -1.935242  -2.011590  2.349938
Ba    1.882729  1.062390  4.964313
