36
Energy: -246329.853723 eV PBE+vdW (tier 2 basis)
C    -2.799227  0.989742  1.238743
C    -1.932621  0.499336  2.360212
O    -0.685804  0.441882  2.235135
H    -3.870279  0.970487  1.465501
H    -2.609930  0.377178  0.347589
H    -2.506465  2.017929  0.987189
N    -2.551079  0.121872  3.499292
C    -1.940608  -0.393736  4.740805
C    -0.964757  0.662874  5.324301
O    0.260266  0.640510  5.040299
H    -3.563976  0.184079  3.498304
H    -2.790406  -0.479090  5.426827
C    -1.253535  -1.780023  4.659444
C    -1.643840  -2.683833  3.490760
C    -0.859123  -4.013871  3.464694
N    0.573037  -3.894122  3.775931
C    1.431031  -3.024327  3.203162
N    2.614490  -2.731139  3.904261
N    1.235351  -2.300182  2.127917
H    -1.453481  -2.291232  5.612821
H    -0.169717  -1.620154  4.647475
H    -1.501490  -2.147771  2.543800
H    -2.709620  -2.950250  3.529916
H    -1.001888  -4.506745  2.491176
H    -1.262773  -4.698899  4.219807
H    0.941517  -4.538443  4.467207
H    3.450829  -2.837885  3.331420
H    2.730096  -3.182375  4.809491
H    0.456974  -2.629947  1.556344
N    -1.460881  1.601905  6.130263
C    -2.844657  1.788103  6.574043
H    -0.769331  2.265284  6.476203
H    -3.518404  1.960688  5.725694
H    -2.876649  2.675103  7.212645
H    -3.196804  0.934800  7.167345
Ba    1.693678  0.160822  2.963801
