36
Energy: -246328.412208 eV PBE+vdW (tier 2 basis)
C    0.195459  0.720626  0.295799
C    0.106078  0.523193  1.770865
O    1.156337  0.568482  2.499321
H    0.456368  1.770849  0.100237
H    -0.741916  0.498561  -0.225746
H    1.006652  0.101592  -0.107036
N    -1.087953  0.305065  2.323689
C    -1.310097  0.244408  3.773349
C    -0.579468  -0.963825  4.394603
O    0.443474  -0.736773  5.120157
H    -1.958724  0.485261  1.766364
H    -0.818955  1.114428  4.241136
C    -2.817134  0.296741  4.095014
C    -3.499878  1.671009  3.941086
C    -3.324344  2.400501  2.600421
N    -3.480744  1.497230  1.448754
C    -3.124067  1.889767  0.120187
N    -2.376554  3.056995  0.039953
N    -3.305698  1.170038  -0.922231
H    -2.951991  -0.029721  5.135995
H    -3.340797  -0.444116  3.477653
H    -3.158331  2.351604  4.734546
H    -4.570393  1.509290  4.135278
H    -2.314248  2.829484  2.537459
H    -4.031912  3.245982  2.572321
H    -4.370101  0.999086  1.443888
H    -2.713043  3.854262  0.573465
H    -2.204311  3.302511  -0.933166
H    -3.775986  0.282353  -0.727270
N    -0.967637  -2.217460  4.194655
C    -2.060788  -2.758229  3.382170
H    -0.417007  -2.901331  4.713636
H    -1.780961  -3.770401  3.073555
H    -2.210696  -2.156577  2.481717
H    -2.991939  -2.814524  3.959262
Ba    2.535538  0.344336  4.450520
