36
Energy: -246329.499858 eV PBE+vdW (tier 2 basis)
C    0.677196  -1.659678  0.397453
C    0.299537  -0.651119  1.447835
O    1.155402  0.319926  1.653872
H    0.545335  -1.227039  -0.605122
H    0.082299  -2.574499  0.493447
H    1.736411  -1.927166  0.490591
N    -0.840546  -0.783574  2.076926
C    -1.160203  0.253731  3.061244
C    -0.204369  0.218726  4.264854
O    0.559759  1.215779  4.480429
H    -1.794052  -2.865157  -0.505934
H    -0.980345  1.252039  2.619673
C    -2.637070  0.231833  3.502866
C    -3.641502  0.488077  2.358804
C    -4.306107  -0.757791  1.770466
N    -3.338164  -1.629353  1.101687
C    -3.677130  -2.611630  0.273775
N    -4.958876  -2.980514  0.112684
N    -2.724113  -3.253497  -0.430810
H    -2.758157  1.014931  4.264549
H    -2.879993  -0.715301  4.003652
H    -3.170307  1.067964  1.550383
H    -4.457691  1.114972  2.741128
H    -5.067057  -0.440668  1.041197
H    -4.822514  -1.307384  2.577166
H    -2.326825  -1.479789  1.364563
H    -5.684505  -2.646666  0.732650
H    -5.237804  -3.609295  -0.629766
H    -2.926061  -4.099040  -0.947762
N    -0.138761  -0.829961  5.081106
C    -0.849484  -2.105783  5.012978
H    0.503662  -0.705290  5.862467
H    -1.162925  -2.301383  3.984242
H    -1.716888  -2.109660  5.685735
H    -0.163685  -2.901047  5.325039
Ba    2.169142  2.063775  2.829527
