36
Energy: -246329.431856 eV PBE+vdW (tier 2 basis)
C    1.041254  -0.515986  -0.054392
C    0.963073  -0.506409  1.442808
O    2.021416  -0.447562  2.135129
H    0.065443  -0.609292  -0.542773
H    1.688959  -1.337220  -0.385759
H    1.515740  0.418631  -0.383966
N    -0.252122  -0.548665  2.006318
C    -0.577847  -0.383884  3.433505
C    -0.439165  -1.716105  4.209448
O    0.803944  -2.120923  4.350628
H    -1.038720  -0.593482  1.365911
H    0.225665  0.247835  3.844449
C    -1.889863  0.418289  3.599371
C    -3.083544  0.171723  2.655698
C    -3.725581  -1.224951  2.678675
N    -4.013538  -1.688023  4.027545
C    -5.170656  -1.609972  4.669212
N    -6.246884  -0.988022  4.151172
N    -5.287188  -2.173999  5.887829
H    -1.627879  1.480142  3.493831
H    -2.211255  0.292712  4.641655
H    -2.825213  0.413634  1.610952
H    -3.842043  0.921701  2.925890
H    -3.046308  -1.974719  2.246187
H    -4.628229  -1.245447  2.052440
H    -3.101080  -1.975778  4.506651
H    -7.171788  -1.145397  4.531686
H    -6.195750  -0.509358  3.262902
H    -6.075772  -1.976227  6.489674
N    -1.470923  -2.319494  4.694297
C    -1.241561  -3.555030  5.438737
H    -4.535695  -2.732756  6.268551
H    -2.200855  -4.058693  5.612644
H    -0.780858  -3.350874  6.417307
H    -0.583794  -4.252184  4.900534
Ba    3.057665  -1.713873  3.964270
