36
Energy: -246327.414024 eV PBE+vdW (tier 2 basis)
C    -0.070211  1.748599  -0.449927
C    -0.406478  0.629975  0.482414
O    0.469917  -0.221529  0.826775
H    0.302317  2.618338  0.114887
H    -0.929420  2.072406  -1.047024
H    0.738649  1.421588  -1.112414
N    -1.652568  0.526732  0.994580
C    -2.431679  1.669386  1.467808
C    -1.631206  2.334763  2.616338
O    -0.656567  1.710289  3.157615
H    -1.832255  -0.342589  1.497518
H    -2.543195  2.393917  0.647488
C    -3.829721  1.213627  1.940382
C    -4.832458  0.891522  0.824634
C    -4.557437  -0.384586  0.002066
N    -5.696623  -0.811545  -0.798364
C    -6.929998  -1.095346  -0.171443
N    -6.783487  -1.862553  0.990044
N    -8.092345  -0.717471  -0.549049
H    -4.252837  2.002296  2.576240
H    -3.703627  0.342117  2.607232
H    -4.936670  1.758204  0.152065
H    -5.809993  0.762312  1.311492
H    -4.279620  -1.200975  0.688529
H    -3.710841  -0.247828  -0.686481
H    -5.823887  -0.276500  -1.652928
H    -7.700448  -2.108014  1.358260
H    -6.208468  -2.693683  0.864264
H    -8.062637  -0.050579  -1.325074
N    -1.957686  3.546266  3.037956
C    -3.014361  4.441752  2.558840
H    -1.411106  3.881753  3.831574
H    -2.629051  5.466876  2.563873
H    -3.890919  4.389930  3.217411
H    -3.314058  4.188140  1.538590
Ba    1.139721  0.013812  3.193187
