36
Energy: -246327.442391 eV PBE+vdW (tier 2 basis)
C    0.404382  -0.907604  0.422005
C    -0.195689  -0.082764  1.514937
O    0.488828  0.156062  2.561620
H    1.494210  -0.850347  0.511758
H    0.097344  -0.574164  -0.573225
H    0.112145  -1.963712  0.530815
N    -1.441466  0.442388  1.436559
C    -2.664912  -0.257858  1.016211
C    -2.989420  -1.304922  2.109546
O    -2.089623  -1.669890  2.942340
H    -1.606582  1.125126  2.176526
H    -3.453637  0.509344  1.040436
C    -2.662235  -0.850756  -0.410032
C    -2.445505  0.214128  -1.486029
C    -2.483259  -0.361169  -2.917644
N    -2.310790  0.661464  -3.937763
C    -3.237942  1.716641  -4.029768
N    -4.558592  1.276777  -4.133326
N    -2.795516  2.919985  -3.972556
H    -3.641805  -1.323116  -0.567172
H    -1.932985  -1.668614  -0.488146
H    -1.490527  0.741151  -1.335014
H    -3.226708  0.986188  -1.402054
H    -3.437682  -0.881896  -3.078900
H    -1.690317  -1.111590  -3.054994
H    -1.374942  1.063936  -3.957332
H    -5.226977  2.016718  -4.324853
H    -4.694819  0.478119  -4.749632
H    -3.510352  3.612307  -4.215008
N    -4.206687  -1.823690  2.192101
C    -5.407068  -1.521949  1.406947
H    -4.310916  -2.541081  2.909460
H    -6.273924  -1.566627  2.074630
H    -5.542114  -2.257905  0.604285
H    -5.355600  -0.517645  0.977095
Ba    -0.158299  -1.282947  4.434402
