36
Energy: -246328.910818 eV PBE+vdW (tier 2 basis)
C    -1.126052  0.204471  2.678125
C    -0.109471  1.298499  2.780745
O    1.125120  1.035092  2.881316
H    -1.346783  -0.001702  1.618300
H    -2.068592  0.469660  3.169396
H    -0.716032  -0.707312  3.122951
N    -0.515428  2.588692  2.729475
C    -1.514486  3.058342  1.752205
C    -1.092143  2.584282  0.340613
O    0.198825  2.426184  0.123911
H    0.241140  3.252861  2.895491
H    -2.476714  2.580468  1.974416
C    -1.654543  4.588262  1.929943
C    -2.178822  5.449374  0.769928
C    -3.537149  5.126044  0.124291
N    -4.597309  4.719541  1.050455
C    -5.246292  3.541951  1.004933
N    -6.429768  3.434323  1.640869
N    -4.719408  2.491371  0.374878
H    -0.658937  4.996008  2.169382
H    -2.262991  4.753424  2.830319
H    -1.447399  5.458511  -0.051946
H    -2.201788  6.480746  1.150728
H    -3.425364  4.327424  -0.612480
H    -3.885095  6.014368  -0.421478
H    -4.997517  5.434921  1.649291
H    -6.879368  2.535021  1.756292
H    -6.977349  4.252553  1.877413
H    -5.312559  1.691158  0.189370
N    -2.047610  2.347121  -0.492190
C    -1.714715  1.934250  -1.852066
H    -3.712600  2.456435  0.024361
H    -2.578836  2.105291  -2.503939
H    -1.484871  0.857611  -1.889282
H    -0.851016  2.478614  -2.259296
Ba    2.300170  1.574761  0.722776
