36
Energy: -246329.519117 eV PBE+vdW (tier 2 basis)
C    0.799768  -0.707213  0.467020
C    0.442858  -0.641742  1.916510
O    1.301093  -0.385317  2.800261
H    1.854485  -0.985612  0.373209
H    0.685441  0.289692  0.012277
H    0.174818  -1.412930  -0.091146
N    -0.846504  -0.850225  2.311250
C    -2.015790  -0.331278  1.613078
C    -1.861223  1.209176  1.513660
O    -1.190875  1.827009  2.386232
H    -0.944599  -0.813470  3.332547
H    -2.079655  -0.779749  0.610782
C    -3.312272  -0.627101  2.406791
C    -3.537091  -2.067115  2.903184
C    -2.853360  -2.465437  4.230861
N    -3.081739  -1.506809  5.315969
C    -2.242851  -0.510621  5.683482
N    -2.789751  0.563129  6.331364
N    -0.941539  -0.461572  5.400936
H    -4.150682  -0.350642  1.754053
H    -3.367344  0.069525  3.258804
H    -3.240751  -2.799867  2.138189
H    -4.621361  -2.195536  3.032214
H    -1.774622  -2.610466  4.105272
H    -3.242543  -3.438603  4.555301
H    -3.999004  -1.530198  5.752549
H    -3.792189  0.599201  6.486594
H    -2.234469  0.975809  7.073214
H    -0.566518  -1.406744  5.278668
N    -2.481551  1.834031  0.520696
C    -2.490993  3.288718  0.346020
H    -2.983605  1.271330  -0.160099
H    -3.103407  3.529364  -0.526621
H    -1.472691  3.661751  0.183931
H    -2.915334  3.776679  1.231100
Ba    0.481028  1.506154  4.328884
