36
Energy: -246329.092383 eV PBE+vdW (tier 2 basis)
C    -0.018773  0.875236  -0.057950
C    -0.019924  0.454319  1.375619
O    1.088004  0.158599  1.950826
H    -0.988842  1.242532  -0.404472
H    0.298771  0.039294  -0.696415
H    0.729494  1.669354  -0.181275
N    -1.132372  0.379273  2.087617
C    -2.532011  0.268772  1.684495
C    -3.272960  0.218962  3.050469
O    -2.617152  -0.103599  4.054495
H    -1.076305  0.166113  3.101793
H    -2.837029  1.145589  1.098043
C    -2.795206  -1.022348  0.867475
C    -2.556501  -2.364551  1.581805
C    -1.113007  -2.650260  2.025842
N    -0.954249  -4.049609  2.378842
C    0.087794  -4.558536  3.076451
N    0.020140  -5.874548  3.384328
N    1.119533  -3.786492  3.429808
H    -2.194234  -0.977289  -0.053120
H    -3.841473  -0.999901  0.533512
H    -2.860543  -3.149286  0.870890
H    -3.218154  -2.460677  2.454752
H    -0.877483  -2.051806  2.918824
H    -0.408191  -2.375826  1.217159
H    -1.634404  -4.700796  2.002006
H    0.795305  -6.346531  3.830162
H    -0.819909  -6.420865  3.239449
H    1.724331  -4.346146  4.040976
N    -4.588421  0.474915  3.086961
C    -5.482235  0.886806  2.008558
H    -4.996617  0.369083  4.013957
H    -4.936238  1.423053  1.225645
H    -6.232546  1.573048  2.414998
H    -6.002538  0.028325  1.561980
Ba    2.308622  -1.509043  3.181104
