36
Energy: -246328.350582 eV PBE+vdW (tier 2 basis)
C    -0.112051  -0.858440  0.738283
C    -0.139608  -0.495942  2.188480
O    0.815169  -0.816939  2.959978
H    0.440634  -0.094251  0.168624
H    -1.114059  -0.945995  0.306246
H    0.429277  -1.804049  0.624023
N    -1.179131  0.211268  2.684510
C    -1.773311  1.346953  1.975719
C    -0.663191  2.411900  1.763890
O    0.426559  2.338472  2.447784
H    -1.163496  0.309836  3.700373
H    -2.109042  1.020679  0.978545
C    -3.016925  1.841526  2.746669
C    -4.263093  0.964941  2.473565
C    -5.433600  1.671081  1.725536
N    -5.049234  2.750199  0.813080
C    -4.034613  2.669158  -0.102702
N    -3.775818  1.408447  -0.618844
N    -3.242548  3.648098  -0.457136
H    -3.206777  2.884199  2.464696
H    -2.779781  1.867909  3.821470
H    -4.670520  0.579579  3.416615
H    -3.954322  0.077040  1.905225
H    -6.114663  2.132855  2.449230
H    -6.032392  0.910221  1.202971
H    -5.220614  3.688309  1.156229
H    -3.273258  1.461806  -1.501314
H    -4.572408  0.778945  -0.670075
H    -3.528744  4.532285  -0.027350
N    -0.858604  3.329650  0.850486
C    0.101437  4.390264  0.556334
H    -1.781098  3.361837  0.282101
H    -0.323200  5.018135  -0.232149
H    1.050877  3.970672  0.199445
H    0.295326  5.005017  1.444147
Ba    2.163328  1.153591  3.642785
