36
Energy: -246329.249966 eV PBE+vdW (tier 2 basis)
C    -0.137322  -0.221759  2.308159
C    -1.277052  0.385403  3.097623
O    -1.025762  1.476891  3.737906
H    -0.347141  -0.222738  1.230833
H    0.052938  -1.263662  2.602119
H    0.770012  0.363623  2.480534
N    -2.496308  -0.133680  3.262555
C    -2.797124  -1.544016  3.012343
C    -2.073846  -2.364539  4.115733
O    -1.899396  -1.827206  5.243711
H    -3.593847  3.594654  -1.286885
H    -3.861564  -1.659305  3.292955
C    -2.711587  -2.088564  1.570474
C    -3.668477  -1.416440  0.568497
C    -3.261953  -0.015497  0.100116
N    -4.156790  0.414391  -0.983791
C    -4.261529  1.659076  -1.465591
N    -5.202005  1.947797  -2.377590
N    -3.445844  2.627143  -1.026899
H    -3.014036  -3.147200  1.593263
H    -1.683672  -2.069074  1.184710
H    -4.683144  -1.374808  0.994033
H    -3.724408  -2.070841  -0.316252
H    -2.220792  -0.030431  -0.263858
H    -3.332737  0.701636  0.929558
H    -4.647817  -0.317178  -1.489191
H    -5.184127  2.816221  -2.898405
H    -5.940658  1.292661  -2.602046
H    -2.612007  2.412178  -0.496348
N    -1.688772  -3.617466  3.886699
C    -1.080578  -4.470291  4.910162
H    -1.834996  -4.010952  2.964345
H    -0.152158  -4.020519  5.281163
H    -0.857592  -5.443024  4.464337
H    -1.767915  -4.606554  5.753391
Ba    -2.252232  0.678985  5.730960
