36
Energy: -246328.971932 eV PBE+vdW (tier 2 basis)
C    -0.771312  0.323498  -0.732076
C    -0.553150  0.345173  0.749983
O    0.626191  0.542030  1.223891
H    -0.437416  1.274024  -1.169320
H    -1.819136  0.160781  -1.003210
H    -0.165659  -0.478565  -1.175379
N    -1.592831  0.154496  1.536217
C    -1.628609  0.130043  2.997499
C    -3.071234  -0.380299  3.289330
O    -3.923489  -0.174556  2.419960
H    -2.553390  0.056629  1.160458
H    -0.852682  -0.557991  3.363617
C    -1.395345  1.551855  3.560211
C    -1.026419  1.632314  5.046734
C    -0.162192  2.862732  5.349693
N    1.141692  2.716641  4.695217
C    1.884372  3.670913  4.077033
N    1.568938  4.964026  4.293341
N    2.854914  3.267686  3.250939
H    -2.284046  2.163400  3.348983
H    -0.571612  1.984008  2.974351
H    -0.467072  0.736269  5.362836
H    -1.922199  1.665945  5.680159
H    -0.039707  2.989735  6.435672
H    -0.645585  3.767523  4.956233
H    1.630746  1.844192  4.861932
H    1.045497  5.253571  5.111301
H    2.013533  5.697250  3.755031
H    3.530974  4.023179  3.106059
N    -3.358403  -0.977945  4.461456
C    -2.478925  -1.448730  5.522840
H    -4.346375  -1.211631  4.547106
H    -2.806272  -2.444394  5.843449
H    -2.496536  -0.782393  6.395876
H    -1.448617  -1.542253  5.164853
Ba    2.866049  1.324880  1.560994
