36
Energy: -246327.831873 eV PBE+vdW (tier 2 basis)
C    0.771980  1.374923  1.053697
C    0.340601  0.717869  2.325141
O    1.152994  0.564199  3.288636
H    0.623632  2.464934  1.118122
H    0.221412  1.007460  0.181108
H    1.844327  1.199890  0.915173
N    -0.935535  0.300685  2.473704
C    -2.093429  1.071014  2.022845
C    -2.121560  2.394198  2.835609
O    -1.356900  2.525991  3.858517
H    -1.100280  -0.246754  3.318927
H    -1.955517  1.327963  0.962539
C    -3.387816  0.246720  2.156269
C    -3.730360  -0.255561  3.568574
C    -5.221390  -0.659544  3.717109
N    -6.134404  0.465424  3.885784
C    -6.417565  1.398922  2.889327
N    -6.579158  0.861120  1.616659
N    -6.508686  2.678931  3.042889
H    -3.297413  -0.607036  1.469179
H    -4.218685  0.845174  1.764772
H    -3.523177  0.521010  4.325720
H    -3.115204  -1.133955  3.828473
H    -5.334110  -1.302401  4.599040
H    -5.528518  -1.270966  2.857792
H    -6.108445  0.883611  4.810673
H    -7.009232  1.532611  0.985567
H    -7.048206  -0.040407  1.581173
H    -6.299915  2.961689  4.004317
N    -2.914066  3.384846  2.474272
C    -3.851908  3.492171  1.351640
H    -2.890220  4.189112  3.102274
H    -3.744722  4.490541  0.913310
H    -4.884339  3.360084  1.727832
H    -3.630870  2.745720  0.584551
Ba    0.625854  2.027463  5.207367
