36
Energy: -246327.811272 eV PBE+vdW (tier 2 basis)
C    -0.161836  0.363244  0.144776
C    -0.166617  0.246341  1.633483
O    0.888353  0.462479  2.307881
H    0.120412  1.390003  -0.127459
H    -1.128632  0.126891  -0.311280
H    0.606725  -0.300668  -0.272422
N    -1.309996  -0.082839  2.248486
C    -1.495934  -0.087263  3.703958
C    -0.776313  -1.297453  4.344719
O    0.366364  -1.084943  4.870188
H    -2.146235  -0.199491  1.678902
H    -0.913650  0.762007  4.087177
C    -2.981349  0.131866  4.119854
C    -4.051524  -0.007583  3.030388
C    -5.466581  0.016628  3.625469
N    -6.457010  -0.126506  2.567149
C    -7.817305  0.140399  2.871477
N    -8.026468  1.415365  3.385531
N    -8.658841  -0.802905  2.670077
H    -3.047779  1.143685  4.539847
H    -3.213205  -0.541949  4.956810
H    -3.943805  -0.952355  2.469070
H    -3.979566  0.811196  2.297064
H    -5.640387  0.968251  4.144613
H    -5.551846  -0.779199  4.394395
H    -6.452179  -1.062939  2.160174
H    -7.511235  2.163480  2.929177
H    -8.999563  1.655887  3.543239
H    -9.630724  -0.497348  2.770647
N    -1.281458  -2.522582  4.368754
C    -2.529347  -3.044401  3.806057
H    -0.697181  -3.194305  4.866643
H    -2.437157  -4.132268  3.740697
H    -2.696290  -2.656254  2.797175
H    -3.388768  -2.805247  4.444244
Ba    2.364865  0.153039  4.208338
