36
Energy: -246329.351226 eV PBE+vdW (tier 2 basis)
C    2.567107  -0.533386  1.461812
C    1.488817  -0.568115  2.505195
O    1.692752  -1.166494  3.603172
H    2.304658  0.053743  0.575573
H    2.783007  -1.565372  1.151973
H    3.490373  -0.132011  1.897957
N    0.329558  0.036638  2.214344
C    -0.953882  0.054390  2.952440
C    -0.944518  0.983205  4.181801
O    -0.008696  0.796052  5.079488
H    0.305472  0.503750  1.313506
H    -1.642724  0.511993  2.233992
C    -1.486065  -1.365120  3.296076
C    -2.963555  -1.609793  2.937317
C    -4.017185  -0.760762  3.672581
N    -4.112491  0.621912  3.212913
C    -5.020060  1.115272  2.378838
N    -5.925740  0.344824  1.748040
N    -5.031060  2.442169  2.144081
H    -1.331126  -1.570606  4.366989
H    -0.888308  -2.109202  2.753513
H    -3.182400  -2.663922  3.162239
H    -3.101163  -1.497653  1.850064
H    -3.789372  -0.722312  4.748378
H    -5.000804  -1.244951  3.601156
H    -3.322311  1.259309  3.555544
H    -6.734026  0.755660  1.297530
H    -5.939743  -0.656939  1.879733
H    -5.590489  2.847238  1.405272
N    -1.915646  1.833846  4.263206
C    -1.997003  2.677919  5.451293
H    -4.405636  3.055120  2.650702
H    -1.748728  2.136359  6.376048
H    -3.011890  3.082179  5.541422
H    -1.305175  3.529309  5.368092
Ba    1.689330  -0.515556  5.958529
