36
Energy: -246328.57783 eV PBE+vdW (tier 2 basis)
C    0.393101  1.114617  0.513427
C    0.037600  0.705481  1.908883
O    0.610245  1.229652  2.907973
H    1.412820  1.511534  0.505535
H    -0.287323  1.912309  0.174070
H    0.309078  0.283904  -0.195426
N    -0.935210  -0.217005  2.102013
C    -2.208641  -0.180137  1.355535
C    -2.774482  1.265084  1.441717
O    -2.469582  1.939184  2.535009
H    -1.045058  -0.473576  3.083812
H    -2.004494  -0.401549  0.301269
C    -3.111981  -1.269788  1.980774
C    -4.527031  -1.463885  1.412162
C    -4.709422  -2.465356  0.255636
N    -3.871525  -2.270783  -0.943145
C    -3.688170  -1.104381  -1.575298
N    -2.623943  -0.937874  -2.387141
N    -4.489697  -0.045091  -1.374488
H    -3.220603  -1.019484  3.048712
H    -2.554295  -2.218527  1.944289
H    -4.969848  -0.487702  1.177721
H    -5.155235  -1.870541  2.217492
H    -5.772252  -2.493529  -0.031244
H    -4.466425  -3.475090  0.609377
H    -3.432896  -3.100619  -1.330995
H    -2.680272  -0.221599  -3.103226
H    -1.947807  -1.679545  -2.528063
H    -5.387387  -0.266904  -0.953932
N    -3.446881  1.724765  0.440948
C    -3.977644  3.082993  0.529805
H    -4.027519  0.788791  -0.882177
H    -4.532217  3.253858  1.463861
H    -4.648782  3.266095  -0.315939
H    -3.168313  3.828818  0.477413
Ba    -0.950259  2.819505  4.084801
