36
Energy: -246329.580448 eV PBE+vdW (tier 2 basis)
C    -0.806561  -0.245337  -0.417381
C    -0.510063  -0.418945  1.040736
O    0.651134  -0.692212  1.443290
H    -0.723117  0.816143  -0.698782
H    -1.809574  -0.592724  -0.690294
H    -0.056139  -0.796360  -0.992891
N    -1.502180  -0.254276  1.954124
C    -2.584576  0.708962  1.819645
C    -1.972045  2.135817  1.768521
O    -0.766481  2.319315  2.101550
H    -1.282838  -0.534275  2.917033
H    -3.103218  0.526620  0.866932
C    -3.611529  0.512943  2.963662
C    -3.349471  1.191738  4.321891
C    -1.983794  1.017023  4.993746
N    -1.553876  -0.392512  5.068903
C    -0.284034  -0.720381  5.516055
N    -0.198543  -1.811371  6.307121
N    0.756023  -0.012565  5.113570
H    -3.719458  -0.574461  3.084895
H    -4.592426  0.857383  2.613721
H    -4.137219  0.842112  5.006359
H    -3.512139  2.276910  4.237901
H    -2.026766  1.460658  6.001132
H    -1.220663  1.575736  4.444258
H    -2.280387  -1.014204  5.418831
H    0.699939  -2.220054  6.534350
H    -1.006698  -2.211682  6.768616
H    1.581525  -0.297048  5.649018
N    -2.726226  3.155363  1.367803
C    -4.124884  3.151520  0.935585
H    -2.255574  4.059480  1.389136
H    -4.271789  3.980132  0.236132
H    -4.804665  3.287786  1.786702
H    -4.373933  2.221589  0.414221
Ba    1.442461  1.244654  2.890084
