36
Energy: -246329.062743 eV PBE+vdW (tier 2 basis)
C    0.921314  1.304765  0.280263
C    0.468052  0.627125  1.537457
O    1.291060  -0.085606  2.212530
H    1.827077  1.892390  0.476966
H    0.154727  1.954009  -0.154213
H    1.186364  0.535154  -0.458276
N    -0.788679  0.783215  1.909390
C    -1.506956  0.186168  3.032890
C    -2.928908  0.813980  2.893495
O    -3.054842  1.805669  2.167438
H    -1.417487  1.448461  1.420243
H    -1.554873  -0.903427  2.885781
C    -0.878530  0.471070  4.415418
C    -0.559511  1.941406  4.702065
C    0.389235  2.115213  5.891082
N    1.781235  1.707649  5.577066
C    2.652847  2.538499  4.835471
N    2.292477  3.810865  4.602238
N    3.728929  1.934616  4.383463
H    0.035578  -0.136325  4.499504
H    -1.557406  0.081455  5.186358
H    -1.485658  2.492972  4.915261
H    -0.126907  2.426343  3.814165
H    0.071082  1.483249  6.730928
H    0.348475  3.147094  6.276059
H    2.272813  1.367817  6.403390
H    2.873504  4.411646  4.028042
H    1.568634  4.267490  5.145467
H    4.428298  2.577097  4.005174
N    -3.951995  0.270709  3.577136
C    -3.991249  -0.943558  4.383436
H    -4.830031  0.769013  3.444120
H    -4.961265  -1.431706  4.240278
H    -3.870083  -0.730344  5.455150
H    -3.219540  -1.653829  4.067011
Ba    3.054057  -0.501396  3.776312
