36
Energy: -246329.105338 eV PBE+vdW (tier 2 basis)
C    -0.452317  1.676547  -0.804948
C    -0.832089  2.211807  0.547432
O    -0.093167  3.193594  1.006965
H    0.592880  1.340261  -0.795975
H    -0.520959  2.479430  -1.551647
H    -1.085778  0.837690  -1.108427
N    -1.855648  1.687525  1.171058
C    -2.252157  2.258617  2.466310
C    -1.295540  1.773036  3.566792
O    -0.315316  2.492910  3.929995
H    -2.998554  0.592988  0.264696
H    -2.123195  3.357253  2.456067
C    -3.733624  1.958042  2.768076
C    -4.705900  2.708064  1.825961
C    -5.927446  1.899919  1.319125
N    -5.854040  1.557176  -0.116160
C    -4.781331  0.986782  -0.679355
N    -4.487281  1.201292  -1.968672
N    -3.953847  0.194040  0.039419
H    -3.947639  2.227830  3.811312
H    -3.905954  0.871861  2.700451
H    -4.156619  3.081028  0.949698
H    -5.077596  3.600448  2.344823
H    -6.848221  2.482635  1.426760
H    -6.082523  0.988511  1.917109
H    -6.583369  1.923144  -0.721110
H    -3.890184  0.539793  -2.452130
H    -4.965765  1.902882  -2.521786
H    -4.386117  -0.174695  0.882076
N    -1.494856  0.575713  4.105342
C    -0.635253  -0.033493  5.118193
H    -2.279385  0.031432  3.761784
H    0.219969  -0.541206  4.652602
H    -1.219461  -0.765573  5.683202
H    -0.267676  0.739395  5.799718
Ba    1.124512  4.109787  2.754671
