36
Energy: -246327.580245 eV PBE+vdW (tier 2 basis)
C    -0.482117  0.963379  -0.667721
C    -0.029445  0.550086  0.676471
O    0.814465  -0.404506  0.803122
H    0.081691  1.905810  -0.954641
H    -1.543894  1.223720  -0.727412
H    -0.230468  0.196194  -1.406513
N    -0.445038  1.158887  1.818195
C    -1.814862  1.595075  2.094618
C    -2.747425  0.352771  1.916375
O    -2.268604  -0.793271  1.648293
H    0.069331  0.829232  2.632792
H    -1.832325  1.801873  3.177593
C    -2.280465  2.881536  1.372729
C    -1.940863  4.221711  2.041388
C    -0.457384  4.624181  2.215049
N    0.476793  4.202908  1.177103
C    0.355784  4.243639  -0.193778
N    -0.717012  4.962538  -0.694015
N    1.103479  3.578782  -1.028298
H    -3.374567  2.849895  1.268443
H    -1.905315  2.892449  0.344330
H    -2.403932  4.277596  3.039167
H    -2.457294  4.981360  1.440830
H    -0.066574  4.187636  3.144373
H    -0.428439  5.715738  2.373816
H    1.340128  3.790434  1.503599
H    -0.647667  5.073290  -1.702603
H    -0.928675  5.839824  -0.227193
H    1.857096  3.079868  -0.545635
N    -4.044636  0.518351  2.114207
C    -5.036582  -0.558287  2.059866
H    -4.377767  1.452880  2.333445
H    -6.023111  -0.128587  2.251113
H    -4.822450  -1.316363  2.822784
H    -5.037046  -1.027191  1.069007
Ba    -0.465407  -2.440033  1.150439
