36
Energy: -246328.432316 eV PBE+vdW (tier 2 basis)
C    -1.148869  2.881259  1.815675
C    -0.964292  1.605437  2.574097
O    0.156642  1.011002  2.562776
H    -0.967952  2.687015  0.749304
H    -0.393540  3.608759  2.140544
H    -2.144951  3.320005  1.932930
N    -2.009512  1.117765  3.255473
C    -2.102364  -0.159382  3.996995
C    -1.118405  -0.159419  5.178584
O    0.050266  -0.656005  5.046761
H    -2.867135  1.663229  3.219151
H    -3.118552  -0.140865  4.415692
C    -1.981496  -1.400173  3.092730
C    -2.360119  -2.725503  3.787057
C    -3.830199  -3.165208  3.591395
N    -4.832578  -2.133689  3.833439
C    -4.940748  -1.387958  4.990898
N    -4.434043  -1.996750  6.132894
N    -5.373344  -0.167210  5.083087
H    -0.963360  -1.473699  2.680587
H    -2.628561  -1.225327  2.220565
H    -2.135602  -2.665241  4.861733
H    -1.730631  -3.535798  3.393391
H    -4.016747  -4.053464  4.215000
H    -3.980109  -3.498805  2.556613
H    -5.257757  -1.713198  3.016687
H    -4.778527  -1.542044  6.974372
H    -4.543177  -3.006283  6.181336
H    -5.704195  0.192369  4.183309
N    -1.476373  0.371703  6.336418
C    -2.717087  1.045511  6.730190
H    -0.746942  0.327424  7.049318
H    -2.947671  0.758559  7.761564
H    -3.568821  0.759089  6.097092
H    -2.575705  2.134081  6.696595
Ba    1.834269  -0.504332  3.424840
