36
Energy: -246327.797623 eV PBE+vdW (tier 2 basis)
C    0.087566  0.154245  0.532384
C    0.039407  0.105631  2.026082
O    1.128599  0.177344  2.681388
H    0.995996  0.693026  0.241936
H    -0.787804  0.638348  0.092241
H    0.154805  -0.863494  0.117351
N    -1.119247  0.011551  2.723246
C    -2.213283  -0.946294  2.477352
C    -1.682770  -2.352912  2.846231
O    -0.420060  -2.580245  2.858160
H    -0.959703  0.177106  3.717856
H    -2.997733  -0.681296  3.201681
C    -2.842246  -0.940134  1.071545
C    -3.496889  0.383452  0.646951
C    -4.757482  0.790035  1.441429
N    -5.718436  -0.288217  1.674309
C    -6.105389  -1.176964  0.667846
N    -6.547702  -0.563788  -0.482156
N    -5.966557  -2.446015  0.889502
H    -3.611463  -1.725941  1.058941
H    -2.100609  -1.256219  0.327560
H    -3.775147  0.264508  -0.409772
H    -2.785432  1.223110  0.685732
H    -5.234643  1.627263  0.912529
H    -4.494434  1.189773  2.431029
H    -5.596429  -0.790063  2.546351
H    -6.903284  -1.165839  -1.216136
H    -7.058006  0.308046  -0.378476
H    -6.439677  -3.020371  0.187147
N    -2.531544  -3.317695  3.152942
C    -3.990575  -3.254427  3.322410
H    -2.094107  -4.223090  3.319971
H    -4.252034  -2.452115  4.024998
H    -4.309691  -4.202724  3.763403
H    -4.538462  -3.105654  2.370107
Ba    1.905580  -2.037004  3.400401
