36
Energy: -246328.886582 eV PBE+vdW (tier 2 basis)
C    -0.009955  1.793193  0.401013
C    -0.334271  1.311643  1.782400
O    0.336481  1.723630  2.776885
H    -0.392001  2.813602  0.247416
H    -0.407731  1.147508  -0.387442
H    1.082093  1.845477  0.312487
N    -1.342597  0.430685  1.971399
C    -2.658444  0.619805  1.336361
C    -3.486310  1.565049  2.252332
O    -2.792873  2.468743  2.920333
H    -1.386949  0.090268  2.932436
H    -2.478868  1.182858  0.408732
C    -3.353121  -0.685210  0.954465
C    -3.714206  -1.625600  2.114963
C    -4.816480  -2.637409  1.729306
N    -6.140181  -2.410149  2.336259
C    -7.065585  -1.519065  1.932692
N    -8.364704  -1.820076  2.116689
N    -6.709184  -0.367339  1.358189
H    -2.709427  -1.214976  0.237453
H    -4.256654  -0.410254  0.394826
H    -4.057668  -1.056780  2.990181
H    -2.822869  -2.184622  2.431313
H    -4.533108  -3.647396  2.042963
H    -4.939340  -2.669454  0.637053
H    -6.472450  -3.133374  2.964819
H    -9.079118  -1.103282  2.080677
H    -8.674550  -2.777504  2.233389
H    -7.437970  0.166113  0.895674
N    -4.766608  1.424180  2.286731
C    -5.525917  2.371919  3.098682
H    -5.852434  0.190819  1.653032
H    -5.388972  3.407043  2.752377
H    -5.230758  2.332414  4.158944
H    -6.593076  2.130419  3.037482
Ba    -0.992860  3.382474  4.098157
