36
Energy: -246328.21316 eV PBE+vdW (tier 2 basis)
C    -0.267681  -1.666537  1.127178
C    0.070322  -0.532394  2.042509
O    1.281658  -0.256223  2.305794
H    -0.167916  -1.357486  0.075170
H    -1.278034  -2.058319  1.280665
H    0.462916  -2.466755  1.295708
N    -0.910232  0.212558  2.597499
C    -2.076980  0.675133  1.843795
C    -1.607479  1.909732  0.999600
O    -0.343462  2.069019  0.813316
H    -0.575962  0.862203  3.309954
H    -2.307439  -0.100341  1.097354
C    -3.316133  0.848375  2.728985
C    -3.220233  1.912934  3.833227
C    -4.604569  2.379878  4.344240
N    -5.528228  2.779275  3.268614
C    -5.053777  3.536630  2.208671
N    -4.305126  4.635402  2.565766
N    -5.171791  3.250348  0.938667
H    -3.542008  -0.137263  3.160574
H    -4.155548  1.077339  2.060273
H    -2.683124  2.799044  3.459032
H    -2.653672  1.534172  4.697362
H    -4.464954  3.201646  5.060455
H    -5.105569  1.577523  4.899900
H    -6.150873  2.036145  2.967535
H    -4.197712  5.309772  1.814885
H    -4.527898  5.061962  3.459662
H    -5.747124  2.416442  0.792267
N    -2.480872  2.712585  0.444647
C    -2.093064  3.820603  -0.426941
H    -3.527462  2.704931  0.653195
H    -1.515239  3.457295  -1.285134
H    -3.014460  4.290447  -0.783028
H    -1.495819  4.561018  0.121671
Ba    2.039397  1.804592  1.175664
