36
Energy: -246328.742351 eV PBE+vdW (tier 2 basis)
C    0.015010  -0.665528  -0.053411
C    -0.095894  -0.498815  1.432025
O    0.942398  -0.580381  2.161733
H    -0.931742  -0.508572  -0.580566
H    0.372568  -1.681569  -0.270951
H    0.764294  0.032914  -0.447516
N    -1.303771  -0.266445  1.949842
C    -1.703146  -0.224237  3.372287
C    -3.204729  0.134470  3.538404
O    -3.776601  -0.277543  4.534489
H    -2.082552  -0.319799  1.294979
H    -1.638377  -1.246490  3.773865
C    -0.859796  0.694933  4.276217
C    -0.680352  2.139217  3.796803
C    0.512489  2.840754  4.451509
N    1.770151  2.246563  3.951044
C    3.030682  2.509036  4.513600
N    3.135451  3.472954  5.441464
N    3.981320  1.691633  4.109970
H    0.124818  0.231411  4.435838
H    -1.357607  0.677729  5.256281
H    -1.584324  2.723837  4.014448
H    -0.551598  2.179804  2.702147
H    0.480384  2.710113  5.542367
H    0.468969  3.920654  4.235416
H    1.824173  2.288817  2.932708
H    2.422862  4.184554  5.557653
H    4.006379  3.616858  5.941003
H    4.920638  1.985969  4.383935
N    -3.790814  0.879987  2.560463
C    -5.198989  1.271434  2.657510
H    -3.209760  1.399570  1.910852
H    -5.570731  1.519497  1.658727
H    -5.333788  2.133320  3.324830
H    -5.770641  0.430511  3.061338
Ba    2.842470  -0.607642  3.680563
