36
Energy: -246328.549456 eV PBE+vdW (tier 2 basis)
C    -1.654824  0.736737  -1.004872
C    -1.103209  0.050359  0.198011
O    -0.082614  -0.707419  0.115568
H    -0.884539  1.362528  -1.476380
H    -2.552107  1.331748  -0.797286
H    -1.899926  -0.046332  -1.738248
N    -1.684525  0.221064  1.404159
C    -2.149428  1.516174  1.895423
C    -0.905269  2.375265  2.168645
O    0.265408  1.850064  2.122928
H    -1.336376  -0.415960  2.122713
H    -2.770995  2.017133  1.106544
C    -3.047862  1.339812  3.136833
C    -4.221051  0.372333  2.921820
C    -5.123046  0.654679  1.710118
N    -5.717231  1.982284  1.678611
C    -5.385615  2.932661  0.746104
N    -6.307479  3.940770  0.606002
N    -4.230599  2.872952  0.130225
H    -3.441705  2.326077  3.411179
H    -2.447508  0.999115  3.995936
H    -4.823719  0.384485  3.841829
H    -3.856934  -0.662107  2.823630
H    -5.928176  -0.094100  1.703479
H    -4.570307  0.529171  0.770326
H    -6.584875  2.115651  2.184080
H    -6.127336  4.650705  -0.092825
H    -7.290676  3.744674  0.760268
H    -4.181612  3.569275  -0.615676
N    -1.023536  3.664723  2.442104
C    -2.231160  4.495286  2.455890
H    -0.144873  4.131216  2.664635
H    -2.999201  4.059306  1.805958
H    -1.966045  5.484949  2.069048
H    -2.610925  4.609569  3.479105
Ba    1.862143  0.171759  1.340224
