36
Energy: -246329.312888 eV PBE+vdW (tier 2 basis)
C    -0.057824  -1.942067  -0.093185
C    0.097397  -0.765191  0.817778
O    0.879777  0.187416  0.475427
H    0.916496  -2.426486  -0.240412
H    -0.377973  -1.573889  -1.077292
H    -0.776018  -2.687372  0.257774
N    -0.560408  -0.674449  1.963791
C    -1.444846  -1.624181  2.636800
C    -2.222262  -0.737193  3.649458
O    -1.726853  0.346935  3.989028
H    -0.506988  0.201043  2.509397
H    -2.142294  -2.058069  1.906944
C    -0.668456  -2.769593  3.341127
C    -0.014471  -2.470609  4.701522
C    0.986007  -1.313615  4.799432
N    2.128438  -1.453990  3.888557
C    2.743028  -0.426195  3.279208
N    3.740101  -0.733531  2.307790
N    2.485054  0.854399  3.381826
H    0.078047  -3.152856  2.629040
H    -1.372231  -3.599586  3.496493
H    -0.793744  -2.257428  5.447907
H    0.465970  -3.398643  5.048419
H    1.353122  -1.245478  5.834717
H    0.483994  -0.364786  4.573131
H    2.597596  -2.356258  3.878629
H    4.668827  -0.453723  2.630172
H    3.769285  -1.712713  2.023308
H    1.875454  1.092953  4.165603
N    -3.367718  -1.245106  4.123492
C    -4.203715  -0.572907  5.116782
H    -3.705403  -2.121192  3.737166
H    -4.366045  -1.228992  5.980046
H    -5.173901  -0.306784  4.680131
H    -3.692217  0.337486  5.439524
Ba    2.712122  1.682327  0.916080
