36
Energy: -246329.038468 eV PBE+vdW (tier 2 basis)
C    0.301462  -1.406643  1.482096
C    0.452958  0.059636  1.751441
O    1.486095  0.678779  1.353417
H    0.005099  -1.579425  0.436551
H    -0.425812  -1.894708  2.137625
H    1.284223  -1.874791  1.616362
N    -0.511214  0.726502  2.424237
C    -1.938102  0.560413  2.096820
C    -2.258775  1.536864  0.924897
O    -1.270696  1.744784  0.074343
H    -0.239281  1.683172  2.652953
H    -2.043627  -0.450445  1.676361
C    -2.853444  0.645313  3.318853
C    -2.939695  2.024054  4.011645
C    -4.381955  2.447165  4.304463
N    -5.133432  2.487885  3.048590
C    -6.448986  2.638640  2.956427
N    -7.192226  2.974922  4.023788
N    -7.056052  2.447494  1.768386
H    -2.520548  -0.117296  4.034996
H    -3.850342  0.325147  2.987470
H    -2.478026  2.807935  3.391665
H    -2.391031  2.017310  4.961318
H    -4.379367  3.436735  4.789162
H    -4.853590  1.730435  4.997211
H    -4.570125  2.293054  2.172050
H    -8.203352  2.982642  3.983059
H    -6.762514  3.279194  4.887040
H    -8.025160  2.695225  1.619106
N    -3.437560  2.053825  0.847050
C    -3.724590  2.916369  -0.295791
H    -6.557086  2.012747  1.003867
H    -3.834413  2.329792  -1.220565
H    -2.935012  3.663376  -0.468720
H    -4.663914  3.455439  -0.121304
Ba    0.932892  2.081124  -0.640991
