36
Energy: -246329.346352 eV PBE+vdW (tier 2 basis)
C    0.522178  0.753946  0.978250
C    -0.128330  -0.279249  1.838025
O    0.559518  -1.164412  2.433914
H    0.683596  1.669158  1.568038
H    -0.089584  1.021133  0.108576
H    1.495812  0.386158  0.642408
N    -1.458040  -0.292902  2.004425
C    -2.449566  0.709934  1.645654
C    -2.154417  2.068076  2.345505
O    -1.516728  2.136447  3.412328
H    -1.791461  -1.053410  2.591629
H    -2.393998  0.885785  0.560324
C    -3.888158  0.165484  1.939306
C    -4.111965  -0.851347  3.077649
C    -4.033244  -0.378864  4.539431
N    -2.728339  0.128263  4.967870
C    -1.629539  -0.593120  5.219400
N    -0.398556  0.145565  5.305587
N    -1.486503  -1.892049  5.339574
H    -4.235130  -0.321722  1.018816
H    -4.550386  1.030206  2.087341
H    -3.488654  -1.751335  2.935910
H    -5.135302  -1.231716  2.941413
H    -4.337876  -1.198746  5.204992
H    -4.750019  0.433220  4.715672
H    -2.547925  1.118558  4.792248
H    -0.464274  1.001485  4.734732
H    -0.211714  0.416888  6.275017
H    -2.365826  -2.411956  5.354035
N    -2.650397  3.137869  1.708553
C    -2.556632  4.509085  2.205497
H    -3.134516  2.994049  0.826883
H    -2.105184  5.152145  1.441186
H    -1.930471  4.513173  3.101109
H    -3.552941  4.895377  2.454223
Ba    1.016401  -2.206067  4.611870
