36
Energy: -246329.3256 eV PBE+vdW (tier 2 basis)
C    -1.762533  -0.590687  -0.025669
C    -1.728098  -0.691324  1.479273
O    -1.150027  -1.719484  1.996586
H    -0.857001  -0.081708  -0.388975
H    -2.626202  -0.037542  -0.413757
H    -1.754803  -1.600599  -0.448091
N    -2.188192  0.229200  2.333286
C    -2.478081  1.593180  1.912844
C    -1.250049  2.463427  2.267072
O    -0.344742  1.999422  3.016926
H    -5.372228  -1.951374  4.616604
H    -2.623469  1.674131  0.820741
C    -3.746401  2.114985  2.633097
C    -5.077673  1.849045  1.910858
C    -5.353554  0.426310  1.405133
N    -5.200564  -0.593089  2.447159
C    -6.046540  -1.595762  2.707149
N    -7.061910  -1.892000  1.885662
N    -5.876004  -2.326679  3.823958
H    -3.685465  3.198475  2.800332
H    -3.748767  1.666100  3.637934
H    -5.151355  2.503988  1.029152
H    -5.894707  2.152612  2.580895
H    -4.699318  0.168800  0.558902
H    -6.385335  0.399482  1.034391
H    -4.273921  -0.621622  2.880841
H    -7.081602  -1.568999  0.926950
H    -7.821848  -2.490096  2.187839
H    -6.367258  -3.202353  3.957138
N    -1.138113  3.700596  1.781178
C    -2.039631  4.425970  0.890486
H    -0.309172  4.199005  2.102652
H    -2.618285  3.732528  0.272506
H    -1.442990  5.057969  0.224402
H    -2.729554  5.067371  1.455314
Ba    -0.061649  -0.389296  3.787675
