36
Energy: -246328.905814 eV PBE+vdW (tier 2 basis)
C    -1.050021  -1.187865  2.930429
C    -2.322048  -1.537483  2.221121
O    -2.529646  -2.748181  1.895891
H    -1.127959  -0.288390  3.543760
H    -0.229718  -1.054160  2.209463
H    -0.783250  -2.042836  3.563029
N    -3.292574  -0.624549  1.963627
C    -3.156947  0.670567  1.258775
C    -3.069557  0.367697  -0.264892
O    -2.550215  -0.787335  -0.623747
H    -4.145093  -1.102409  1.667932
H    -4.110915  1.187044  1.428375
C    -2.021505  1.573705  1.776528
C    -1.904846  2.976348  1.151316
C    -3.103834  3.921763  1.288880
N    -4.141219  3.607631  0.305315
C    -5.242350  4.324869  0.120918
N    -5.491627  5.432824  0.838268
N    -6.150739  3.916324  -0.790417
H    -1.052315  1.083219  1.619430
H    -2.155591  1.679619  2.863601
H    -1.624373  2.907021  0.090936
H    -1.056838  3.463956  1.650609
H    -2.742596  4.950321  1.126496
H    -3.516756  3.871597  2.311786
H    -3.973451  2.748514  -0.306599
H    -6.340467  5.968506  0.709945
H    -4.823221  5.783062  1.510817
H    -6.912288  4.516841  -1.078424
N    -3.523411  1.279708  -1.056989
C    -3.415542  1.076099  -2.497984
H    -5.940492  3.123542  -1.382471
H    -3.574605  2.030950  -3.012139
H    -4.181797  0.370595  -2.857095
H    -2.432339  0.683315  -2.794973
Ba    -2.298627  -3.115811  -0.559971
