36
Energy: -246328.397254 eV PBE+vdW (tier 2 basis)
C    0.162261  -0.896481  -1.201956
C    0.528450  -0.333433  0.136252
O    1.748867  -0.349780  0.505395
H    -0.277092  -1.899863  -1.092785
H    1.072434  -0.982143  -1.803187
H    -0.566626  -0.271769  -1.727209
N    -0.390663  0.197664  0.970182
C    -1.707372  -0.364257  1.307373
C    -1.465846  -1.679775  2.069910
O    -0.323893  -2.266936  2.055117
H    0.038353  0.695659  1.750942
H    -2.130052  0.348505  2.058906
C    -2.707646  -0.437836  0.130988
C    -4.183165  -0.710319  0.472020
C    -4.852391  0.216851  1.495466
N    -4.686340  -0.215805  2.907670
C    -4.113661  0.680176  3.837092
N    -4.717224  0.671818  5.068401
N    -3.045204  1.317973  3.487593
H    -2.397032  -1.190876  -0.604133
H    -2.641851  0.541701  -0.365532
H    -4.333001  -1.759165  0.770474
H    -4.730379  -0.608639  -0.475956
H    -5.928421  0.256438  1.282004
H    -4.465936  1.240607  1.411403
H    -5.522866  -0.668052  3.269301
H    -5.719690  0.528709  5.136462
H    -4.335011  1.279721  5.783949
H    -2.753143  2.001410  4.188101
N    -2.472528  -2.144724  2.780404
C    -2.428453  -3.370058  3.571174
H    -3.327583  -1.547219  2.841995
H    -3.453060  -3.654392  3.827460
H    -1.863924  -3.219138  4.501458
H    -1.967022  -4.180709  2.997255
Ba    2.111230  -2.228352  2.036834
