36
Energy: -246328.706067 eV PBE+vdW (tier 2 basis)
C    -0.189272  0.678323  -0.008542
C    -0.267154  0.925416  1.464426
O    0.806287  1.019862  2.152776
H    -1.175079  0.668367  -0.484315
H    0.306885  -0.288002  -0.174935
H    0.438100  1.446705  -0.478633
N    -1.477448  1.038235  2.000588
C    -1.860341  1.123305  3.422019
C    -1.443137  2.469051  4.043157
O    -0.244939  2.706190  4.380235
H    -2.298617  0.844090  1.363323
H    -2.956967  1.120831  3.383466
C    -1.419608  -0.060898  4.317597
C    -1.612820  -1.484807  3.767206
C    -3.048090  -2.033708  3.633986
N    -3.913764  -1.327129  2.686130
C    -3.549289  -1.011876  1.394496
N    -2.686124  -1.895392  0.784466
N    -3.855797  0.088327  0.755397
H    -1.950144  0.055377  5.276157
H    -0.351426  0.054091  4.558121
H    -1.085206  -2.163914  4.453389
H    -1.097733  -1.581685  2.801046
H    -3.562380  -2.005584  4.603568
H    -2.981122  -3.101289  3.371958
H    -4.619296  -0.720950  3.085990
H    -2.747497  -2.869200  1.064911
H    -2.649426  -1.771365  -0.222944
H    -4.531717  0.654656  1.276179
N    -2.401444  3.366747  4.231360
C    -2.204745  4.690400  4.822478
H    -3.338436  3.130555  3.917564
H    -3.132861  4.997770  5.313425
H    -1.949165  5.425405  4.048057
H    -1.399956  4.644498  5.561556
Ba    2.061288  2.064748  3.876026
