36
Energy: -246328.070604 eV PBE+vdW (tier 2 basis)
C    -0.130002  0.322303  0.250794
C    -0.189176  0.148463  1.730747
O    0.860040  -0.069541  2.414810
H    0.579994  1.116345  -0.017200
H    -1.109278  0.510748  -0.202850
H    0.282841  -0.607970  -0.168641
N    -1.376236  0.237600  2.370663
C    -2.374415  1.273435  2.064978
C    -1.649053  2.624506  2.193482
O    -0.689311  2.743856  3.037137
H    -1.347044  -0.051976  3.349462
H    -2.750824  1.114345  1.033968
C    -3.517631  1.117622  3.100403
C    -4.816020  1.917578  2.903918
C    -5.850244  1.285695  1.951851
N    -5.431053  1.229071  0.556473
C    -4.737911  0.185580  -0.029980
N    -5.256807  -1.063628  0.213634
N    -3.657014  0.468386  -0.705284
H    -3.100129  1.357261  4.092913
H    -3.761543  0.043829  3.112830
H    -4.604553  2.954409  2.598884
H    -5.297271  2.005114  3.889304
H    -6.784987  1.859373  2.018271
H    -6.084399  0.267107  2.286928
H    -5.190954  2.119630  0.136462
H    -4.803304  -1.848707  -0.239040
H    -6.266542  -1.149263  0.282629
H    -3.368776  -0.313433  -1.300273
N    -1.981048  3.658596  1.438249
C    -2.893781  3.723322  0.292746
H    -1.482331  4.519158  1.666647
H    -3.063948  2.723716  -0.129528
H    -2.427904  4.351651  -0.474482
H    -3.844020  4.187426  0.585968
Ba    1.374654  1.791744  3.961064
