36
Energy: -246328.62717 eV PBE+vdW (tier 2 basis)
C    -0.340895  -0.514561  -0.187269
C    -0.419270  -0.557647  1.304164
O    0.622836  -0.746927  2.004071
H    0.326161  0.307899  -0.481280
H    -1.313592  -0.373487  -0.669472
H    0.113988  -1.443033  -0.556354
N    -1.610840  -0.382106  1.891560
C    -1.823034  -0.260925  3.343123
C    -1.688023  -1.642738  4.027887
O    -0.554938  -1.911074  4.564101
H    -2.413357  -0.210219  1.290284
H    -0.964885  0.301778  3.740219
C    -3.093838  0.544515  3.636300
C    -3.429112  0.631815  5.128788
C    -4.886554  1.092170  5.351887
N    -5.397509  0.795720  6.667192
C    -5.757582  -0.483104  7.029405
N    -6.299216  -0.568007  8.297081
N    -5.533316  -1.474519  6.215067
H    -3.948387  0.106796  3.100010
H    -2.945674  1.548624  3.210334
H    -2.730347  1.306760  5.645169
H    -3.340929  -0.357342  5.599463
H    -5.532293  0.581208  4.621494
H    -4.986035  2.171875  5.177822
H    -5.316070  1.493934  7.394759
H    -6.655809  -1.474710  8.574410
H    -6.869672  0.206262  8.622353
H    -5.980179  -2.325559  6.563268
N    -2.647560  -2.548292  4.054391
C    -4.030677  -2.507058  3.565462
H    -2.394507  -3.383176  4.583870
H    -4.349119  -3.541368  3.401567
H    -4.090730  -1.981068  2.608845
H    -4.682887  -2.040889  4.333585
Ba    1.766609  -1.615785  3.965886
