36
Energy: -246329.880056 eV PBE+vdW (tier 2 basis)
C    0.133968  0.344553  0.650339
C    -0.453393  0.222357  2.019420
O    0.129512  0.692821  3.030893
H    0.290186  1.408070  0.425306
H    -0.488560  -0.100976  -0.132522
H    1.122737  -0.132827  0.639208
N    -1.645986  -0.405239  2.152545
C    -2.309991  -0.485724  3.448050
C    -1.774488  -1.672242  4.283230
O    -0.908649  -1.438483  5.168735
H    -2.111039  -0.754633  1.319453
H    -1.943548  0.396431  3.986684
C    -3.833665  -0.345948  3.425550
C    -4.314623  0.015719  4.843438
C    -3.931926  1.454602  5.249402
N    -3.766710  1.628605  6.686574
C    -2.678659  2.174995  7.291930
N    -2.907586  2.730622  8.508096
N    -1.465996  2.141790  6.736690
H    -4.332906  -1.260211  3.072243
H    -4.105310  0.447202  2.712526
H    -3.886631  -0.688482  5.573811
H    -5.403057  -0.111056  4.902804
H    -4.695852  2.157820  4.884151
H    -2.984883  1.773321  4.797066
H    -4.609538  1.574030  7.249443
H    -2.140215  2.972884  9.120722
H    -3.836536  2.995663  8.812841
H    -0.904505  2.852533  7.219751
N    -2.234441  -2.891614  4.026029
C    -1.797154  -4.113953  4.700064
H    -2.944059  -2.988366  3.305018
H    -2.669104  -4.650531  5.091086
H    -1.132804  -3.844347  5.524173
H    -1.262932  -4.762922  3.995152
Ba    0.409098  0.696329  5.559139
