36
Energy: -246328.084255 eV PBE+vdW (tier 2 basis)
C    -1.283214  -1.440134  1.933556
C    -1.018761  -0.858469  3.276101
O    0.086840  -1.078769  3.875271
H    -0.364926  -1.468329  1.336749
H    -2.111347  -0.974953  1.380516
H    -1.581079  -2.487570  2.110640
N    -1.949856  -0.109475  3.909457
C    -2.738739  0.919201  3.241664
C    -1.794505  2.112611  2.968388
O    -0.533483  2.003882  3.130681
H    -1.721964  0.077087  4.887421
H    -3.061388  0.508046  2.255948
C    -4.024091  1.276587  4.026705
C    -5.199444  1.727059  3.129653
C    -6.301372  0.662260  2.879981
N    -5.847492  -0.716188  2.770399
C    -4.939091  -1.174070  1.846989
N    -4.546178  -2.489480  2.015170
N    -4.333469  -0.464064  0.933682
H    -3.803073  2.042912  4.783075
H    -4.320860  0.369536  4.570204
H    -4.827056  2.071340  2.151786
H    -5.703110  2.592973  3.579172
H    -6.883394  0.969529  1.995505
H    -6.997914  0.676274  3.726978
H    -6.429723  -1.403418  3.236034
H    -4.269726  -2.943445  1.150704
H    -5.091520  -3.082527  2.631061
H    -4.819067  0.419338  0.769295
N    -2.321057  3.247471  2.537076
C    -1.550024  4.443067  2.192512
H    -3.331231  3.287478  2.429787
H    -2.241303  5.203804  1.820918
H    -0.817452  4.213765  1.409839
H    -1.030089  4.835463  3.074842
Ba    1.537116  0.878586  3.844354
