36
Energy: -246329.527155 eV PBE+vdW (tier 2 basis)
C    -0.747841  -0.641979  1.433660
C    -1.490957  -0.866227  2.719680
O    -0.950131  -1.586763  3.654223
H    -0.283869  0.355978  1.427019
H    -1.407453  -0.701693  0.558798
H    0.053599  -1.380247  1.338189
N    -2.678306  -0.355001  3.030926
C    -3.426491  0.606470  2.244151
C    -3.650519  1.824770  3.168396
O    -3.328593  1.742932  4.392046
H    -1.869399  -3.361874  3.533358
H    -2.859259  0.959944  1.365944
C    -4.752865  -0.011248  1.717968
C    -5.677247  -0.668464  2.771221
C    -5.620358  -2.200635  2.838244
N    -4.286539  -2.646448  3.249839
C    -3.840945  -3.907480  3.253563
N    -4.682396  -4.932933  3.059745
N    -2.535920  -4.138103  3.475784
H    -4.476557  -0.746672  0.947393
H    -5.314187  0.765251  1.185260
H    -6.718271  -0.413337  2.536093
H    -5.495279  -0.250564  3.774135
H    -5.871846  -2.619338  1.849064
H    -6.375699  -2.554830  3.556976
H    -3.581987  -1.883661  3.280340
H    -4.359652  -5.892528  3.062064
H    -5.675810  -4.783298  2.941639
H    -2.166278  -5.080292  3.483375
N    -4.157985  2.960838  2.695245
C    -4.521518  3.320487  1.325374
H    -4.278885  3.683233  3.404501
H    -3.950291  2.732158  0.600791
H    -4.281566  4.377426  1.169077
H    -5.595247  3.177433  1.146785
Ba    -1.875396  -0.008214  5.477389
