36
Energy: -246329.558004 eV PBE+vdW (tier 2 basis)
C    -0.411225  -0.616330  0.982751
C    -0.415714  -0.269152  2.451143
O    0.477412  -0.817616  3.202825
H    0.288330  0.038023  0.442117
H    -1.395622  -0.523626  0.509838
H    -0.044667  -1.641418  0.865483
N    -1.235985  0.599742  3.038361
C    -2.027894  1.568315  2.320266
C    -1.492519  2.968073  2.730438
O    -0.632231  3.081131  3.640932
H    -5.092522  -2.296073  3.722730
H    -1.907297  1.491824  1.222663
C    -3.531911  1.420050  2.654405
C    -4.134261  0.135480  2.071806
C    -5.617607  -0.016791  2.437873
N    -6.290871  -1.127946  1.751667
C    -6.517395  -2.353664  2.240042
N    -7.378864  -3.169902  1.614982
N    -5.899321  -2.778436  3.350934
H    -4.091536  2.288929  2.275051
H    -3.638998  1.431864  3.750485
H    -3.559513  -0.736524  2.421306
H    -4.040832  0.149261  0.974265
H    -6.171227  0.892878  2.166972
H    -5.758297  -0.143311  3.520756
H    -6.631516  -0.947338  0.812573
H    -7.407056  -4.161999  1.817928
H    -8.044728  -2.818273  0.937480
H    -6.219702  -3.603183  3.843690
N    -1.961904  4.038173  2.086889
C    -1.531363  5.406717  2.374167
H    -2.605708  3.895570  1.316253
H    -0.510539  5.580636  2.010413
H    -1.556912  5.588008  3.453798
H    -2.213092  6.100405  1.874674
Ba    0.617523  1.117684  4.747603
