36
Energy: -246329.037865 eV PBE+vdW (tier 2 basis)
C    -0.333254  1.733776  0.604841
C    -0.608829  0.649695  1.600871
O    0.200973  0.454935  2.580202
H    -0.261019  2.699756  1.122143
H    -1.104907  1.803663  -0.168053
H    0.634117  1.543571  0.120520
N    -1.689430  -0.083765  1.443283
C    -2.175839  -1.187021  2.263777
C    -3.446425  -1.640954  1.476451
O    -3.856320  -0.920315  0.562885
H    -2.375081  0.091372  0.678226
H    -1.430412  -1.998009  2.255419
C    -2.483763  -0.762915  3.727693
C    -1.554536  -1.385751  4.777510
C    -1.558503  -0.585115  6.086214
N    -0.825551  -1.211792  7.175330
C    0.444030  -0.927367  7.547395
N    0.834641  -1.401409  8.753306
N    1.256905  -0.223936  6.754166
H    -3.525555  -1.009946  3.973837
H    -2.430306  0.334239  3.773106
H    -0.528813  -1.461974  4.377922
H    -1.855219  -2.421693  4.990592
H    -2.594026  -0.442040  6.426585
H    -1.151148  0.426712  5.935361
H    -1.342768  -1.858145  7.760612
H    1.805313  -1.370817  9.035713
H    0.174196  -1.756710  9.434045
H    2.073745  0.043256  7.314591
N    -4.045342  -2.793657  1.827956
C    -3.643700  -3.760698  2.839038
H    -4.883435  -2.995931  1.287211
H    -2.551522  -3.845229  2.895012
H    -4.030433  -4.744554  2.554947
H    -4.041826  -3.512814  3.834185
Ba    1.805649  0.512703  4.346435
