36
Energy: -246328.804037 eV PBE+vdW (tier 2 basis)
C    -1.186427  1.304825  2.096657
C    -2.246604  1.504718  2.975414
O    -2.090389  2.230068  4.051828
H    -3.693790  3.436234  -3.219995
H    -1.204038  0.612344  1.261173
H    -0.344562  1.994537  2.157120
N    -3.493736  0.871289  2.899328
C    -3.754328  -0.457147  2.369784
C    -2.883351  -1.531631  3.102100
O    -2.084542  -1.214964  4.019936
H    -4.027041  1.093132  3.736410
H    -4.790283  -0.684527  2.672660
C    -3.715854  -0.562266  0.826557
C    -4.763152  0.278135  0.073545
C    -4.665392  1.808713  0.183421
N    -3.355988  2.361759  -0.178241
C    -3.028455  2.926749  -1.342520
N    -1.871991  3.605104  -1.442781
N    -3.821123  2.828924  -2.419684
H    -3.894975  -1.608329  0.540913
H    -2.708352  -0.339913  0.452249
H    -5.774877  -0.000504  0.407262
H    -4.707377  -0.015248  -0.986092
H    -4.865552  2.137509  1.208120
H    -5.433147  2.277875  -0.446676
H    -2.622335  2.308937  0.537464
H    -1.507561  3.897665  -2.340734
H    -1.377255  3.911815  -0.615028
H    -4.615114  2.203247  -2.437139
N    -3.063024  -2.807250  2.764395
C    -2.379113  -3.923123  3.419216
H    -3.741543  -3.029462  2.044257
H    -2.758710  -4.857967  2.998776
H    -2.571199  -3.909615  4.498591
H    -1.297529  -3.867640  3.246787
Ba    -0.562991  0.592861  4.951605
