36
Energy: -246329.418396 eV PBE+vdW (tier 2 basis)
C    0.093837  0.103685  0.141675
C    0.120059  0.236343  1.631266
O    1.176470  0.054713  2.291319
H    0.352807  1.067076  -0.324690
H    -0.882349  -0.214376  -0.240166
H    0.861042  -0.617463  -0.159424
N    -1.015184  0.560415  2.306640
C    -1.980970  1.556264  1.879239
C    -1.320129  2.956618  2.028146
O    -0.206670  3.076871  2.611250
H    -0.872636  0.586552  3.317641
H    -2.171388  1.415019  0.805828
C    -3.338462  1.382049  2.622612
C    -3.349988  0.777941  4.039340
C    -2.789551  1.609719  5.200684
N    -1.327610  1.479241  5.339764
C    -0.572260  2.351729  6.115629
N    -1.231453  3.261899  6.862852
N    0.740848  2.265158  6.011919
H    -3.955274  0.723170  1.997542
H    -3.861731  2.347178  2.645013
H    -2.897193  -0.226599  4.040023
H    -4.409075  0.595525  4.268873
H    -3.297816  1.294793  6.127488
H    -3.015874  2.673506  5.042391
H    -1.009666  0.519893  5.472606
H    -0.713292  3.964622  7.377347
H    -2.193841  3.118771  7.146976
H    1.204433  2.751523  6.784245
N    -1.920385  4.021392  1.497196
C    -3.150877  4.102324  0.708165
H    -1.420264  4.897006  1.645652
H    -3.009386  4.849948  -0.079506
H    -4.003076  4.406328  1.329636
H    -3.378358  3.145166  0.229962
Ba    1.912047  2.084359  3.667643
