36
Energy: -246328.459228 eV PBE+vdW (tier 2 basis)
C    0.025650  -0.086790  0.224171
C    -0.091357  0.469082  1.606266
O    0.879024  1.097724  2.136295
H    -0.867699  -0.630985  -0.098644
H    0.895425  -0.754213  0.169533
H    0.212626  0.741390  -0.473645
N    -1.241222  0.299650  2.265902
C    -1.565381  0.893287  3.567406
C    -0.837169  0.126392  4.695467
O    0.287847  0.601490  5.080349
H    -1.999729  -0.198054  1.800168
H    -1.069208  1.873155  3.585571
C    -3.096037  1.125569  3.747985
C    -4.017273  0.425093  2.740915
C    -5.421239  0.148060  3.319212
N    -6.213277  -0.731437  2.492940
C    -5.875886  -2.056884  2.309884
N    -6.781519  -2.753479  1.536799
N    -4.766778  -2.516723  2.814129
H    -3.263879  2.208976  3.709042
H    -3.370744  0.826387  4.769107
H    -3.654461  -0.581901  2.472304
H    -4.104892  1.014116  1.816318
H    -5.981872  1.081017  3.461890
H    -5.305436  -0.318147  4.310381
H    -6.878536  -0.320520  1.850509
H    -6.620290  -3.747999  1.432969
H    -7.762936  -2.504232  1.607076
H    -4.718156  -3.531678  2.704842
N    -1.295312  -0.975519  5.263530
C    -2.516703  -1.757828  5.044280
H    -0.686552  -1.315325  6.009460
H    -2.272473  -2.809983  5.223974
H    -2.921711  -1.680925  4.029607
H    -3.292521  -1.458356  5.760517
Ba    2.219059  1.665880  4.069398
