36
Energy: -246329.195749 eV PBE+vdW (tier 2 basis)
C    0.447504  1.458099  0.483950
C    0.266300  0.706990  1.763124
O    1.271894  0.374975  2.468295
H    0.500984  2.535282  0.700302
H    -0.369458  1.295962  -0.227345
H    1.392909  1.154081  0.023141
N    -0.952961  0.361474  2.188264
C    -2.266684  0.812374  1.715134
C    -2.322773  2.356013  1.639261
O    -1.680169  3.053251  2.447039
H    -0.951456  -0.181968  3.046702
H    -2.448227  0.378580  0.721572
C    -3.368997  0.275075  2.664974
C    -3.601452  0.961155  4.027746
C    -2.519998  0.841307  5.111597
N    -1.374085  1.713888  4.825085
C    -0.145063  1.666910  5.342408
N    0.249053  0.571380  6.145432
N    0.843019  2.504169  5.074631
H    -3.185471  -0.802713  2.806745
H    -4.316151  0.330290  2.112017
H    -3.851842  2.024085  3.890442
H    -4.508322  0.504863  4.447856
H    -2.203325  -0.214424  5.189990
H    -2.960055  1.117844  6.081349
H    -1.492577  2.367210  4.020779
H    0.630933  0.883510  7.039037
H    -0.469613  -0.130377  6.313737
H    0.522585  3.348143  4.594048
N    -3.114521  2.901035  0.704055
C    -3.906414  2.235853  -0.331712
H    -3.162379  3.917137  0.750968
H    -4.350464  3.008551  -0.965429
H    -4.724416  1.640496  0.093917
H    -3.283207  1.598855  -0.972628
Ba    2.688563  0.851987  4.407347
