36
Energy: -246329.109558 eV PBE+vdW (tier 2 basis)
C    -0.650305  0.305186  0.253015
C    -0.755644  -0.087399  1.699811
O    0.383235  -0.284695  2.322038
H    -1.628847  0.439706  -0.216267
H    -0.084766  -0.457430  -0.299208
H    -0.087043  1.244210  0.165760
N    -1.942682  -0.212180  2.234351
C    -2.079129  -0.652199  3.642545
C    -1.392204  0.314535  4.627480
O    -0.265538  0.083235  5.158314
H    -3.442384  -0.356538  1.110373
H    -3.153570  -0.556148  3.865093
C    -1.676289  -2.137838  3.855677
C    -2.798220  -3.132355  4.234915
C    -4.140582  -3.034182  3.479225
N    -3.960085  -2.569900  2.091776
C    -4.844403  -1.769866  1.458407
N    -6.157057  -2.019208  1.564356
N    -4.361074  -0.732982  0.773540
H    -0.923176  -2.204687  4.654717
H    -1.171651  -2.480470  2.940672
H    -3.036492  -3.038531  5.303209
H    -2.386278  -4.142745  4.109504
H    -4.817716  -2.329603  3.984452
H    -4.627169  -4.018917  3.499739
H    -3.000884  -2.393270  1.806180
H    -6.845036  -1.364847  1.211322
H    -6.485359  -2.942365  1.823464
H    -4.929382  -0.224003  0.106357
N    -2.055749  1.436782  4.893584
C    -1.574762  2.506816  5.762988
H    -2.942312  1.576798  4.418198
H    -2.434115  3.005956  6.220915
H    -0.997010  3.247756  5.193853
H    -0.945510  2.080306  6.549308
Ba    1.868467  -0.488651  4.075106
