36
Energy: -246329.835422 eV PBE+vdW (tier 2 basis)
C    0.801153  0.762945  1.520434
C    0.036111  0.174786  2.667718
O    0.608243  -0.101403  3.751886
H    1.617497  0.080989  1.248618
H    1.266060  1.702233  1.848640
H    0.188755  0.958231  0.634008
N    -1.285924  -0.035516  2.486997
C    -2.240773  -0.590726  3.464852
C    -2.051521  0.062051  4.850219
O    -1.492213  -0.553463  5.796974
H    -1.661553  0.196417  1.572519
H    -3.222654  -0.251155  3.107992
C    -2.301258  -2.136813  3.531414
C    -0.999404  -2.902906  3.285827
C    -1.044403  -4.372829  3.712076
N    -1.399982  -4.613263  5.116324
C    -0.483717  -4.719510  6.123553
N    -0.768665  -5.626756  7.089831
N    0.588289  -3.934972  6.145567
H    -3.043754  -2.474664  2.794763
H    -2.705524  -2.398564  4.519616
H    -0.146100  -2.425469  3.783778
H    -0.735850  -2.877639  2.218043
H    -0.069587  -4.834862  3.504026
H    -1.788606  -4.908676  3.108146
H    -2.272210  -5.106986  5.268793
H    -0.237468  -5.647307  7.951129
H    -1.384759  -6.412670  6.917834
H    1.282923  -4.345148  6.778118
N    -2.537562  1.290436  5.033001
C    -3.259269  2.137725  4.080609
H    -2.420157  1.651571  5.978060
H    -3.494057  3.082136  4.578910
H    -4.205878  1.676206  3.770224
H    -2.646193  2.360816  3.199552
Ba    0.885968  -1.320047  5.968156
