36
Energy: -246329.104877 eV PBE+vdW (tier 2 basis)
C    1.539810  1.044690  0.932702
C    1.107921  1.322049  2.339321
O    1.675343  2.220485  3.029321
H    2.578557  1.366358  0.810238
H    0.919665  1.622520  0.228903
H    1.445014  -0.014503  0.669456
N    0.080281  0.621894  2.869805
C    -1.140541  0.321860  2.111327
C    -1.771331  1.649250  1.609095
O    -1.366482  2.757243  2.202756
H    -0.080460  0.829889  3.855804
H    -0.863874  -0.266967  1.227097
C    -2.072330  -0.507295  3.022426
C    -3.394411  -0.955316  2.392150
C    -3.206701  -1.931863  1.221270
N    -4.411251  -2.114562  0.414778
C    -4.710273  -1.388873  -0.675031
N    -5.713864  -1.800580  -1.472237
N    -4.013832  -0.291741  -0.976708
H    -2.303234  0.087070  3.921105
H    -1.499605  -1.382488  3.366617
H    -3.957474  -0.077619  2.048852
H    -4.005109  -1.434673  3.169958
H    -2.902176  -2.922104  1.584878
H    -2.416005  -1.593493  0.538255
H    -5.086073  -2.810773  0.712401
H    -6.104246  -1.192099  -2.180140
H    -6.077819  -2.743880  -1.421107
H    -4.133839  0.113914  -1.897202
N    -2.633737  1.578156  0.652753
C    -3.252360  2.828392  0.214028
H    -3.430871  0.257860  -0.288724
H    -4.106372  2.605233  -0.436042
H    -2.544189  3.441633  -0.365115
H    -3.612674  3.436835  1.056094
Ba    0.150695  4.199745  3.246687
