36
Energy: -246329.481783 eV PBE+vdW (tier 2 basis)
C    2.553899  -2.066958  2.223227
C    1.545774  -1.088535  2.757604
O    1.706582  0.158931  2.384816
H    2.441372  -2.155403  1.133626
H    2.453426  -3.055523  2.679701
H    3.570241  -1.697669  2.409482
N    0.581781  -1.518712  3.529792
C    -0.428156  -0.552739  3.983708
C    0.134609  0.346618  5.092893
O    0.569795  1.508205  4.823699
H    0.074682  -3.281388  3.491951
H    -0.691368  0.145647  3.166838
C    -1.691684  -1.326402  4.389542
C    -2.281474  -2.070662  3.181735
C    -3.007579  -3.371730  3.518353
N    -2.258751  -4.347567  4.347766
C    -1.087942  -4.956441  4.063643
N    -0.925942  -6.233076  4.460495
N    -0.095113  -4.322656  3.436849
H    -2.434221  -0.648087  4.831749
H    -1.426497  -2.059362  5.169967
H    -1.490118  -2.276182  2.448889
H    -3.008038  -1.431699  2.659715
H    -3.328849  -3.862970  2.587820
H    -3.912826  -3.158008  4.100373
H    -2.836839  -4.852784  5.011699
H    -0.005610  -6.651506  4.523421
H    -1.720617  -6.836053  4.637040
H    0.681348  -4.883498  3.104407
N    0.178839  -0.126142  6.333123
C    0.728332  0.594831  7.478477
H    -0.163059  -1.069881  6.483697
H    0.252832  0.224616  8.391443
H    0.521027  1.663622  7.371195
H    1.813494  0.443755  7.554225
Ba    1.715759  2.427515  2.845005
