36
Energy: -246329.400432 eV PBE+vdW (tier 2 basis)
C    0.183794  1.080926  0.482560
C    0.554776  1.078132  1.930821
O    1.645602  1.621029  2.308752
H    0.826742  0.375478  -0.063070
H    -0.861218  0.816271  0.296469
H    0.384285  2.077954  0.072182
N    -0.226100  0.524527  2.853400
C    -1.454004  -0.261557  2.752960
C    -1.968556  -0.338722  4.212471
O    -1.154489  -0.177281  5.147788
H    0.057268  0.623504  3.833490
H    -2.178526  0.276556  2.126159
C    -1.246318  -1.677319  2.149394
C    -0.561988  -2.771193  2.989497
C    0.933047  -2.628069  3.308678
N    1.165313  -1.736925  4.446741
C    2.228838  -0.946355  4.613293
N    2.099335  0.112769  5.557272
N    3.363604  -0.936320  3.948603
H    -0.712758  -1.559262  1.194588
H    -2.242318  -2.053021  1.875869
H    -0.669268  -3.705353  2.421087
H    -1.115631  -2.949207  3.925840
H    1.482455  -2.236361  2.437508
H    1.347784  -3.621158  3.535542
H    0.360575  -1.557056  5.050766
H    2.737103  -0.012761  6.345943
H    1.147262  0.234209  5.912801
H    3.507531  -1.763333  3.367400
N    -3.256003  -0.621501  4.431701
C    -4.341098  -0.823694  3.473566
H    -3.491670  -0.704643  5.419676
H    -4.165552  -0.258592  2.552579
H    -5.271768  -0.455159  3.916891
H    -4.468213  -1.886659  3.228896
Ba    3.705141  1.615394  3.603505
