36
Energy: -246329.411584 eV PBE+vdW (tier 2 basis)
C    -0.521527  -0.102735  0.383429
C    -0.553383  0.173092  1.860065
O    0.543712  0.681260  2.371008
H    -0.439360  0.843465  -0.169276
H    -1.407206  -0.646361  0.043374
H    0.367904  -0.695194  0.134125
N    -1.637893  -0.085240  2.544230
C    -1.628518  0.254674  3.971799
C    -0.711535  -0.689708  4.769956
O    0.393765  -0.266250  5.230352
H    -3.236569  -0.271907  1.706679
H    -1.170827  1.248573  4.123569
C    -3.076633  0.350268  4.492439
C    -3.966510  -0.870694  4.200650
C    -5.413924  -0.527398  3.836811
N    -5.598869  0.467565  2.756759
C    -5.237854  0.345804  1.462196
N    -6.035679  0.888746  0.524616
N    -4.111830  -0.278486  1.110000
H    -3.504053  1.234425  3.996743
H    -3.069318  0.578655  5.567190
H    -4.029559  -1.531670  5.077600
H    -3.539005  -1.470263  3.384129
H    -5.920898  -0.089524  4.705479
H    -5.954811  -1.449065  3.575561
H    -6.336583  1.142983  2.927559
H    -5.698172  1.067883  -0.413480
H    -7.013066  1.081521  0.708972
H    -3.981474  -0.485000  0.125751
N    -1.076851  -1.955015  4.947969
C    -0.281255  -2.953083  5.659162
H    -1.944024  -2.257775  4.516742
H    -0.946595  -3.743128  6.019241
H    0.218455  -2.485285  6.512619
H    0.474108  -3.399864  4.998536
Ba    2.107341  1.048403  4.043507
