36
Energy: -246329.086892 eV PBE+vdW (tier 2 basis)
C    -1.275813  2.347448  -0.764923
C    -0.957582  1.330342  0.286878
O    0.172191  1.370301  0.902052
H    -1.219256  3.355331  -0.332438
H    -2.269389  2.206600  -1.201816
H    -0.527207  2.287671  -1.566545
N    -1.854837  0.405101  0.557527
C    -1.762540  -0.686062  1.521628
C    -2.988666  -1.575131  1.151637
O    -3.893082  -1.067295  0.485326
H    -2.774873  0.369165  0.078650
H    -0.817287  -1.230026  1.364983
C    -1.829412  -0.150724  2.968981
C    -1.371722  -1.138468  4.049200
C    -0.846871  -0.416709  5.299958
N    0.356025  0.375286  5.019599
C    1.617242  -0.090474  4.840803
N    1.918009  -1.308957  5.342098
N    2.482918  0.656364  4.147934
H    -2.849873  0.203559  3.173450
H    -1.177817  0.734489  2.999564
H    -0.566765  -1.786841  3.664126
H    -2.192854  -1.803532  4.349280
H    -0.657855  -1.133213  6.111240
H    -1.597827  0.279959  5.693631
H    0.256626  1.378571  4.937748
H    1.375499  -1.713777  6.096618
H    2.834493  -1.708586  5.184005
H    3.441929  0.383779  4.386824
N    -2.991984  -2.834067  1.622668
C    -4.089372  -3.770594  1.381484
H    -2.158806  -3.186573  2.080043
H    -4.346973  -4.289103  2.311670
H    -3.811349  -4.509580  0.619236
H    -4.954848  -3.203813  1.028158
Ba    2.275249  1.903697  1.903303
