36
Energy: -246329.118322 eV PBE+vdW (tier 2 basis)
C    0.026846  1.486862  0.462805
C    -0.366871  0.526139  1.541069
O    0.351245  0.417185  2.602167
H    0.087474  2.501787  0.877730
H    -0.674713  1.489218  -0.377163
H    1.025037  1.222231  0.088498
N    -1.455413  -0.194786  1.375917
C    -2.021120  -1.189716  2.276510
C    -3.233794  -1.736390  1.455608
O    -3.552201  -1.154861  0.416753
H    -2.065078  -0.107403  0.536889
H    -1.290714  -2.003933  2.414340
C    -2.420491  -0.599777  3.658219
C    -1.663150  -1.218205  4.838784
C    -1.744667  -0.341418  6.094957
N    -1.128478  -0.926295  7.274461
C    0.135846  -0.702387  7.702022
N    0.431995  -1.137716  8.948627
N    1.030856  -0.088773  6.922660
H    -3.501642  -0.720374  3.812061
H    -2.249305  0.485625  3.625532
H    -0.607840  -1.392504  4.564137
H    -2.060714  -2.217397  5.073807
H    -2.797495  -0.140488  6.338100
H    -1.286258  0.645018  5.920240
H    -1.720361  -1.502257  7.862289
H    1.384950  -1.139747  9.287246
H    -0.283291  -1.428613  9.604034
H    1.838061  0.143157  7.512183
N    -3.859636  -2.811804  1.962044
C    -5.018307  -3.437262  1.325156
H    -3.475802  -3.257023  2.788564
H    -5.839366  -3.531634  2.045190
H    -4.756776  -4.430530  0.939772
H    -5.335865  -2.802837  0.493509
Ba    1.748557  0.568138  4.532071
