36
Energy: -246328.606602 eV PBE+vdW (tier 2 basis)
C    0.461201  1.789989  0.343827
C    0.193711  0.934240  1.542439
O    1.096790  0.710254  2.400494
H    0.130415  2.823046  0.538702
H    -0.070769  1.432834  -0.545085
H    1.537739  1.808441  0.149641
N    -1.044268  0.416738  1.725644
C    -2.266515  1.210705  1.513619
C    -2.136615  2.538278  2.313826
O    -1.366917  2.489313  3.385577
H    -1.095992  -0.213488  2.526490
H    -2.342656  1.459626  0.447117
C    -3.463296  0.330652  1.941963
C    -4.856536  0.903095  1.657774
C    -5.317036  0.806087  0.182021
N    -6.142453  1.957547  -0.217108
C    -5.647676  3.206373  -0.187299
N    -6.435773  4.253711  0.079123
N    -4.333876  3.432220  -0.412864
H    -3.380210  0.147889  3.025258
H    -3.347145  -0.649369  1.453116
H    -4.882391  1.953369  1.978600
H    -5.583630  0.377628  2.290456
H    -5.923848  -0.090086  0.013075
H    -4.464284  0.711752  -0.505846
H    -7.149212  1.829947  -0.262957
H    -6.128789  5.182277  -0.189041
H    -7.381729  4.145745  0.426723
H    -3.881026  2.672484  -0.913444
N    -2.748377  3.587810  1.878192
C    -2.628772  4.817924  2.657875
H    -3.736256  3.723153  0.420881
H    -2.918316  4.672241  3.708943
H    -3.273221  5.588681  2.222117
H    -1.596465  5.202562  2.644942
Ba    0.625337  1.990186  4.513017
