36
Energy: -246329.924507 eV PBE+vdW (tier 2 basis)
C    -0.440556  0.603929  0.640022
C    -0.245370  0.376972  2.109168
O    0.900898  0.176947  2.582187
H    0.139054  1.484998  0.334272
H    -1.486336  0.747037  0.348732
H    -0.029413  -0.254176  0.091866
N    -1.346697  0.385354  2.887985
C    -1.451268  0.137966  4.339895
C    -0.885839  1.350588  5.115084
O    0.356341  1.467461  5.283637
H    -2.225985  0.544364  2.406572
H    -2.530809  0.076002  4.516025
C    -0.811944  -1.164396  4.869556
C    -0.892037  -2.402838  3.960678
C    0.469673  -3.083729  3.769932
N    1.064341  -3.542174  5.021960
C    2.287602  -3.198115  5.506674
N    2.834650  -4.077056  6.383710
N    2.884494  -2.057780  5.167191
H    -1.291164  -1.363047  5.837952
H    0.237202  -0.978836  5.129429
H    -1.271353  -2.144457  2.962166
H    -1.611106  -3.126011  4.368827
H    1.182658  -2.400288  3.294369
H    0.357353  -3.944713  3.094235
H    0.635746  -4.360091  5.443114
H    3.650403  -3.826762  6.926579
H    2.525793  -5.039646  6.443417
H    3.861861  -2.123608  5.470439
N    -1.728072  2.265785  5.591351
C    -3.190340  2.306547  5.494222
H    -1.274958  3.032815  6.086392
H    -3.523453  2.333711  4.449461
H    -3.532815  3.225916  5.977035
H    -3.653204  1.459860  6.016033
Ba    2.533647  0.442472  4.444828
