36
Energy: -246328.292513 eV PBE+vdW (tier 2 basis)
C    -0.318907  0.436785  -0.114745
C    -0.274763  0.082040  1.315458
O    0.794577  -0.315675  1.893327
H    -1.042220  -0.286878  -0.605601
H    0.677015  0.360567  -0.557554
H    -0.726879  1.438913  -0.303559
N    -1.404585  0.120181  2.065875
C    -2.421672  1.153206  1.988519
C    -1.964013  2.309200  2.926188
O    -0.766431  2.353305  3.351406
H    -1.332328  -0.362921  2.960870
H    -2.392846  1.566383  0.970228
C    -3.832095  0.590881  2.249713
C    -4.195117  -0.549392  1.287855
C    -4.340389  -0.110799  -0.182407
N    -4.522047  -1.209712  -1.103204
C    -3.461109  -1.956929  -1.563782
N    -3.833243  -3.038465  -2.328769
N    -2.237862  -1.641705  -1.238172
H    -4.571870  1.401399  2.145299
H    -3.900629  0.244341  3.292653
H    -5.140313  -0.994460  1.628825
H    -3.435101  -1.341126  1.343655
H    -3.448123  0.433794  -0.522330
H    -5.195729  0.572510  -0.291363
H    -5.436155  -1.646116  -1.130656
H    -3.095767  -3.545772  -2.802015
H    -4.700444  -2.989461  -2.852958
H    -1.573878  -2.233712  -1.741210
N    -2.838865  3.250377  3.236043
C    -2.538723  4.425187  4.058329
H    -3.787671  3.146029  2.887681
H    -3.420384  5.070910  4.072367
H    -1.693644  4.979875  3.635036
H    -2.298828  4.124234  5.085327
Ba    1.500906  1.334283  3.547712
