36
Energy: -246328.707241 eV PBE+vdW (tier 2 basis)
C    -2.264554  1.170693  0.690073
C    -1.631678  0.679240  1.948697
O    -0.411337  0.956628  2.216559
H    -1.685448  2.009709  0.293484
H    -3.315216  1.474688  0.846532
H    -2.258295  0.365684  -0.060786
N    -2.359128  -0.067804  2.781869
C    -1.897007  -0.570540  4.080053
C    -0.966434  -1.787491  3.874064
O    0.270933  -1.596465  3.662545
H    -3.372486  -0.241158  2.553507
H    -1.252478  0.200238  4.532589
C    -3.090736  -0.825236  5.014024
C    -3.822915  0.454444  5.498085
C    -5.325611  0.577972  5.129943
N    -5.634799  1.415534  3.977925
C    -5.405259  1.134856  2.653531
N    -5.194180  -0.243992  2.354744
N    -5.315389  1.952876  1.666738
H    -2.711956  -1.373598  5.886815
H    -3.811837  -1.495017  4.517228
H    -3.308276  1.354922  5.131793
H    -3.743275  0.490402  6.591812
H    -5.859442  1.025431  5.976510
H    -5.772880  -0.421212  5.009348
H    -5.778761  2.399203  4.177039
H    -5.383592  -0.369318  1.358872
H    -5.804031  -0.867137  2.885417
H    -5.412209  2.932629  1.944777
N    -1.487785  -3.003544  3.913161
C    -0.748379  -4.250802  3.722078
H    -2.484705  -3.076622  4.099036
H    -1.100429  -4.990131  4.449061
H    0.317219  -4.065907  3.876846
H    -0.910494  -4.640107  2.708645
Ba    1.751911  0.170402  2.820764
