36
Energy: -246329.235522 eV PBE+vdW (tier 2 basis)
C    -0.072407  0.250868  -0.022470
C    -0.105062  -0.008626  1.453475
O    0.917010  -0.488228  2.031475
H    -0.983081  0.721326  -0.407291
H    0.077054  -0.707793  -0.539058
H    0.790514  0.882635  -0.267427
N    -1.237696  0.277291  2.108522
C    -1.649333  -0.022993  3.495438
C    -0.945012  0.837877  4.552738
O    0.336618  0.917885  4.599615
H    -1.975177  0.670632  1.531605
H    -2.709017  0.253381  3.517936
C    -1.575835  -1.525698  3.854841
C    -2.348912  -1.864482  5.139554
C    -3.863494  -2.081672  4.981992
N    -4.613045  -1.100942  4.176098
C    -5.100263  0.085796  4.691921
N    -6.349155  0.429829  4.260304
N    -4.346616  0.827428  5.462889
H    -0.525629  -1.836590  3.957428
H    -1.978664  -2.092394  3.002424
H    -2.163224  -1.105171  5.910907
H    -1.950808  -2.803004  5.550776
H    -4.305786  -2.158141  5.986486
H    -4.027917  -3.046701  4.485356
H    -5.223389  -1.526026  3.486846
H    -6.728165  1.332334  4.520733
H    -7.034578  -0.286072  4.047565
H    -4.878738  1.595742  5.874976
N    -1.725795  1.400288  5.437982
C    -1.220658  2.156417  6.576993
H    -2.805604  1.164848  5.409384
H    -2.063699  2.393818  7.232200
H    -0.751808  3.092316  6.247125
H    -0.481196  1.574966  7.142762
Ba    2.404892  -0.001447  3.875207
