36
Energy: -246329.543214 eV PBE+vdW (tier 2 basis)
C    -1.130018  -0.504329  0.327833
C    -0.969047  0.009897  1.734169
O    0.145683  0.651064  1.982875
H    -1.173691  0.338090  -0.378129
H    -2.014542  -1.143048  0.225595
H    -0.252586  -1.098957  0.042803
N    -1.930843  -0.203633  2.592912
C    -1.797269  0.326481  3.954992
C    -0.784158  -0.494854  4.776263
O    0.424602  -0.114491  4.861166
H    -3.739228  0.160891  -0.182843
H    -1.344588  1.334704  3.928709
C    -3.181892  0.479044  4.626752
C    -4.181360  -0.695596  4.485290
C    -5.279431  -0.477148  3.441355
N    -4.689844  -0.339101  2.110757
C    -5.388507  -0.087984  1.009575
N    -6.731480  -0.072656  1.025369
N    -4.749505  0.179073  -0.147329
H    -3.639026  1.387168  4.207385
H    -3.021995  0.702874  5.690525
H    -4.687232  -0.865724  5.444185
H    -3.677198  -1.639716  4.223441
H    -5.857816  0.427091  3.696480
H    -5.966290  -1.338797  3.466286
H    -3.632697  -0.354257  2.092264
H    -7.250404  -0.321905  1.856275
H    -7.267473  0.182677  0.205895
H    -5.242397  0.172707  -1.031006
N    -1.174583  -1.605237  5.390073
C    -0.289012  -2.462272  6.176843
H    -2.145066  -1.883950  5.294516
H    -0.901407  -3.161224  6.752715
H    0.308532  -1.854375  6.864533
H    0.385157  -3.031973  5.524317
Ba    1.945496  1.110405  3.375167
