36
Energy: -246327.845617 eV PBE+vdW (tier 2 basis)
C    0.785095  -1.128485  0.992465
C    -0.056116  0.063755  1.245699
O    0.412137  1.231141  1.019295
H    1.669472  -0.823397  0.426621
H    0.232788  -1.891091  0.429644
H    1.125696  -1.642238  1.916103
N    -1.354916  -0.004953  1.660494
C    -1.902153  -0.728181  2.817598
C    -1.528941  0.089969  4.087480
O    -0.588669  0.944371  4.067585
H    -1.812439  0.898268  1.533008
H    -2.997446  -0.687387  2.702463
C    -1.475726  -2.196075  2.978818
C    -2.011509  -3.152304  1.900877
C    -1.357037  -4.552042  1.942560
N    -0.095943  -4.652482  1.221268
C    1.130952  -4.239877  1.706759
N    2.138129  -4.221328  0.764123
N    1.384781  -3.761895  2.890281
H    -1.847089  -2.534682  3.957917
H    -0.383173  -2.256321  3.050682
H    -1.871157  -2.734196  0.894100
H    -3.097811  -3.269100  2.037118
H    -2.041200  -5.267393  1.471560
H    -1.243716  -4.893999  2.985832
H    -0.096415  -5.268374  0.416162
H    3.072691  -4.284655  1.153106
H    2.009332  -4.720579  -0.108230
H    0.623336  -3.969085  3.539358
N    -2.223771  -0.140092  5.189821
C    -1.976996  0.508168  6.480100
H    -2.980998  -0.816867  5.142967
H    -0.934257  0.363721  6.784693
H    -2.633627  0.053734  7.226323
H    -2.196190  1.581311  6.420291
Ba    1.004353  2.504258  3.002702
