36
Energy: -246328.513426 eV PBE+vdW (tier 2 basis)
C    -2.312302  0.475453  1.231390
C    -1.469258  0.185969  2.433658
O    -0.352686  -0.411373  2.296892
H    -3.244112  0.995588  1.474176
H    -2.544694  -0.470760  0.723775
H    -1.737713  1.084416  0.520972
N    -1.927172  0.570750  3.623707
C    -1.392125  0.264837  4.962810
C    -0.065754  0.987886  5.229989
O    1.031209  0.531042  4.767152
H    -2.887027  0.954899  3.692313
H    -2.130161  0.719548  5.628194
C    -1.325395  -1.235350  5.325918
C    -2.432287  -2.163553  4.782399
C    -3.915899  -1.712583  4.859260
N    -4.294132  -0.946477  6.038768
C    -4.317255  0.430844  6.112744
N    -4.556205  1.093449  4.874956
N    -4.101761  1.172134  7.143464
H    -1.315511  -1.273113  6.424966
H    -0.359261  -1.663598  5.017474
H    -2.321750  -3.110646  5.329769
H    -2.229351  -2.411498  3.729165
H    -4.545478  -2.610805  4.798116
H    -4.166615  -1.114856  3.977084
H    -4.218386  -1.417692  6.934624
H    -4.758565  2.070706  5.091982
H    -5.352808  0.699293  4.371076
H    -3.865817  0.627668  7.978277
N    -0.049847  2.090573  5.964725
C    -1.135216  2.858290  6.585399
H    0.886276  2.481209  6.084423
H    -0.804708  3.173573  7.581065
H    -1.344391  3.753841  5.985970
H    -2.056715  2.273720  6.699070
Ba    1.931044  -0.772757  2.937138
