36
Energy: -246328.462071 eV PBE+vdW (tier 2 basis)
C    -0.663683  -0.988909  0.367164
C    -0.452103  -0.606340  1.796904
O    0.575791  -0.998342  2.429746
H    -0.072975  -0.331255  -0.289838
H    -1.711651  -0.927302  0.058409
H    -0.289603  -2.009068  0.222578
N    -1.348074  0.189425  2.420743
C    -1.952163  1.354224  1.774850
C    -0.814314  2.349878  1.406800
O    0.370166  2.158831  1.872994
H    -1.176016  0.300104  3.421016
H    -2.418844  1.042056  0.826107
C    -3.017668  1.976968  2.699211
C    -4.345392  1.209342  2.820046
C    -5.171424  1.051676  1.520652
N    -5.249994  2.275731  0.713386
C    -4.254208  2.609202  -0.178482
N    -3.771245  1.558058  -0.953055
N    -3.679273  3.771721  -0.314968
H    -3.211192  2.998714  2.351108
H    -2.581023  2.094806  3.705203
H    -4.951484  1.748130  3.563403
H    -4.183080  0.205991  3.243190
H    -6.188637  0.734168  1.782500
H    -4.757428  0.253200  0.894361
H    -5.637501  3.077586  1.204758
H    -3.261234  1.904076  -1.762393
H    -4.471057  0.870003  -1.221108
H    -4.068937  4.468157  0.326145
N    -1.096319  3.345144  0.601431
C    -0.120444  4.353123  0.192617
H    -2.089412  3.476584  0.211114
H    -0.627262  5.059000  -0.471359
H    0.715009  3.891972  -0.349392
H    0.273131  4.894575  1.061833
Ba    2.176593  0.853799  2.823021
