36
Energy: -246329.85217 eV PBE+vdW (tier 2 basis)
C    0.290526  1.447607  1.484878
C    -0.020108  0.276213  2.361739
O    0.836989  -0.198319  3.152680
H    -0.551465  1.759107  0.857937
H    1.144882  1.199941  0.841162
H    0.600370  2.291165  2.116184
N    -1.257505  -0.264185  2.290929
C    -1.672660  -1.342584  3.187427
C    -1.154424  -2.709095  2.678308
O    -0.135615  -3.192327  3.246161
H    -1.936688  0.164615  1.668547
H    -1.090883  -1.191574  4.101811
C    -3.149213  -1.261307  3.601339
C    -3.493232  -2.159814  4.803898
C    -2.979915  -1.667122  6.168611
N    -1.527000  -1.757172  6.358772
C    -0.819735  -2.869080  6.729804
N    -1.518940  -3.959812  7.119253
N    0.501923  -2.821331  6.625517
H    -3.816452  -1.502645  2.764740
H    -3.356588  -0.211186  3.861740
H    -4.588254  -2.214133  4.878818
H    -3.156688  -3.194241  4.629996
H    -3.512201  -2.200187  6.971381
H    -3.244848  -0.610626  6.307567
H    -1.029113  -0.891634  6.528849
H    -1.024515  -4.811595  7.353486
H    -2.463379  -3.879747  7.477747
H    0.929392  -3.561543  7.189487
N    -1.719227  -3.360256  1.661993
C    -2.855377  -2.997076  0.815022
H    -1.261681  -4.245641  1.446858
H    -3.805076  -3.339393  1.245686
H    -2.722793  -3.482547  -0.156995
H    -2.895685  -1.917850  0.642133
Ba    1.826154  -2.135464  4.464213
