36
Energy: -246329.958155 eV PBE+vdW (tier 2 basis)
C    -1.087055  -0.158758  -0.295401
C    -1.190355  0.218352  1.149035
O    -0.534822  1.183699  1.620866
H    -1.372067  0.707524  -0.907421
H    -1.713667  -1.013458  -0.570721
H    -0.040505  -0.388346  -0.534745
N    -2.017832  -0.503345  1.934229
C    -2.280274  -0.190353  3.341912
C    -1.178545  -0.818644  4.224662
O    -0.129161  -0.155164  4.437980
H    -2.524327  -1.275074  1.508394
H    -2.113309  0.888285  3.437357
C    -3.748722  -0.466494  3.693271
C    -4.187480  -0.116183  5.129988
C    -3.608494  1.168262  5.750898
N    -3.722565  2.359326  4.911996
C    -2.672967  3.096845  4.458889
N    -2.921460  3.954896  3.427665
N    -1.421686  2.976635  4.883684
H    -4.015025  -1.517582  3.491610
H    -4.339331  0.121464  2.975863
H    -3.930253  -0.929647  5.824143
H    -5.285366  -0.067810  5.135753
H    -2.544770  1.022755  5.975703
H    -4.100386  1.348798  6.716888
H    -4.659914  2.695555  4.711903
H    -2.364039  4.800537  3.390648
H    -3.855488  4.034135  3.041686
H    -1.412804  2.554639  5.816253
N    -1.369616  -2.045594  4.701459
C    -0.400437  -2.798816  5.496724
H    -2.247708  -2.506200  4.479077
H    -0.881427  -3.172128  6.407858
H    0.427677  -2.138016  5.762882
H    -0.017408  -3.649790  4.919755
Ba    0.695786  2.127771  3.585953
