36
Energy: -246327.990694 eV PBE+vdW (tier 2 basis)
C    1.342201  -0.693904  0.911441
C    0.798117  0.261274  1.921496
O    1.535389  0.719085  2.848068
H    0.788987  -0.679842  -0.034742
H    1.255113  -1.713843  1.333303
H    2.401681  -0.493149  0.726168
N    -0.506473  0.573285  1.836762
C    -1.397789  1.163608  2.862253
C    -1.168112  2.676008  3.016775
O    -0.113787  3.126334  3.559228
H    -0.992233  0.146971  1.052530
H    -2.405997  1.022780  2.447961
C    -1.368086  0.456743  4.236938
C    -1.935851  -0.972208  4.269145
C    -1.184898  -1.971259  3.386680
N    -1.461361  -3.354215  3.749593
C    -0.844488  -4.362458  2.970597
N    0.525584  -4.116500  2.749414
N    -1.389528  -5.403176  2.472549
H    -1.949944  1.084549  4.928619
H    -0.336759  0.441892  4.622621
H    -3.005514  -0.952018  4.006128
H    -1.884747  -1.319457  5.311765
H    -0.102680  -1.809221  3.495161
H    -1.424902  -1.792234  2.318118
H    -2.453888  -3.549430  3.868423
H    0.922247  -4.915474  2.255522
H    1.039261  -3.956644  3.616261
H    -2.407088  -5.420574  2.584033
N    -2.138366  3.477830  2.601236
C    -2.141629  4.936636  2.710239
H    -2.950214  3.048704  2.164452
H    -3.126721  5.267149  3.056843
H    -1.935680  5.389603  1.732043
H    -1.377618  5.247226  3.426428
Ba    2.141544  2.549567  4.282231
