36
Energy: -246329.56197 eV PBE+vdW (tier 2 basis)
C    -0.835339  1.532816  0.318441
C    -1.016225  0.093098  0.686318
O    -0.075242  -0.582690  1.180584
H    -1.469764  1.841182  -0.519736
H    0.217704  1.698861  0.068179
H    -1.068318  2.174871  1.182287
N    -2.227393  -0.503386  0.519859
C    -3.511912  0.154299  0.695270
C    -3.547981  0.822814  2.096635
O    -2.795271  0.404903  3.018724
H    -2.238845  -1.533669  0.591905
H    -3.655930  0.928833  -0.073923
C    -4.652036  -0.882557  0.565134
C    -4.652063  -2.017128  1.617200
C    -4.162498  -3.390238  1.151681
N    -2.771845  -3.455197  0.614139
C    -1.785559  -4.114499  1.342041
N    -1.115818  -5.088267  0.690334
N    -1.534850  -3.727130  2.578558
H    -4.612030  -1.291374  -0.455561
H    -5.600458  -0.333576  0.621684
H    -5.684310  -2.174362  1.960220
H    -4.105125  -1.713700  2.522621
H    -4.821402  -3.758624  0.354018
H    -4.243176  -4.098014  1.986446
H    -2.751464  -3.698441  -0.373536
H    -1.494043  -5.540833  -0.134225
H    -0.277321  -5.498490  1.085358
H    -0.988010  -4.449664  3.058614
N    -4.415746  1.813881  2.263443
C    -4.658822  2.528122  3.516381
H    -4.964608  2.098856  1.455722
H    -5.686825  2.351834  3.855711
H    -4.512559  3.603580  3.362608
H    -3.957957  2.167466  4.272298
Ba    -0.936862  -1.298766  3.482408
