36
Energy: -246329.384734 eV PBE+vdW (tier 2 basis)
C    -1.532689  -1.444182  1.872942
C    -0.854935  -0.688641  2.980983
O    0.405271  -0.382063  2.776836
H    -2.591326  -1.621300  2.080120
H    -1.023316  -2.403420  1.706988
H    -1.449870  -0.874982  0.937490
N    -1.536536  -0.391543  4.055685
C    -0.873071  0.315243  5.165898
C    -0.230241  1.646591  4.730937
O    1.021860  1.815469  4.622893
H    -2.721658  -1.528207  4.571215
H    -1.692158  0.621261  5.836867
C    0.071071  -0.607690  5.974779
C    -0.501724  -1.032699  7.336245
C    -1.890723  -1.678221  7.335126
N    -1.971967  -2.977991  6.650673
C    -2.868987  -3.293967  5.693224
N    -3.277788  -4.572939  5.593077
N    -3.325649  -2.360288  4.859718
H    1.025962  -0.095222  6.164825
H    0.292383  -1.496751  5.367165
H    -0.571305  -0.152246  7.994013
H    0.212889  -1.708898  7.829227
H    -2.643104  -1.024991  6.877630
H    -2.207232  -1.828524  8.377803
H    -1.543133  -3.764623  7.129351
H    -3.765984  -4.901199  4.768893
H    -3.222216  -5.209031  6.379554
H    -4.131199  -2.581206  4.285256
N    -1.080978  2.636595  4.475480
C    -0.703555  3.975373  4.032532
H    -2.072260  2.430003  4.562359
H    -1.415082  4.699648  4.441173
H    -0.718135  4.046785  2.936393
H    0.298915  4.209466  4.401379
Ba    2.491288  0.551155  3.127889
