36
Energy: -246326.776166 eV PBE+vdW (tier 2 basis)
C    0.398453  1.757334  1.028397
C    -0.118832  0.688353  1.931852
O    0.734150  0.016166  2.654039
H    1.022900  2.451398  1.605915
H    -0.393630  2.321207  0.528967
H    1.040811  1.302224  0.261357
N    -1.388661  0.393463  2.033535
C    -2.576950  0.947682  1.368645
C    -3.703053  0.506175  2.351947
O    -3.482987  -0.506512  3.035805
H    -1.725574  -0.352650  2.683925
H    -2.492280  2.039574  1.299496
C    -2.738325  0.304286  -0.029847
C    -3.937390  0.778753  -0.855156
C    -3.909361  0.162196  -2.259213
N    -5.019081  0.635021  -3.059794
C    -4.974450  0.573468  -4.458582
N    -6.152916  0.974651  -5.050665
N    -3.995367  0.182867  -5.205172
H    -2.784670  -0.787017  0.108793
H    -1.812609  0.508988  -0.591346
H    -3.936411  1.874215  -0.956796
H    -4.875918  0.498569  -0.353168
H    -3.881938  -0.942185  -2.183404
H    -2.981727  0.469969  -2.764586
H    -5.941786  0.449872  -2.673712
H    -6.112277  0.996856  -6.064374
H    -6.673597  1.734088  -4.626214
H    -3.216042  -0.209924  -4.674498
N    -4.850733  1.195553  2.425170
C    -5.241244  2.454469  1.799893
H    -5.520304  0.779313  3.071019
H    -5.640735  3.129996  2.565472
H    -6.011151  2.295856  1.034135
H    -4.382822  2.943001  1.331381
Ba    2.216248  -1.161003  3.960202
