36
Energy: -246328.729452 eV PBE+vdW (tier 2 basis)
C    0.299703  -0.059720  -0.245074
C    0.021229  0.059864  1.222279
O    0.999110  0.055583  2.033266
H    -0.454414  0.423662  -0.869329
H    0.365879  -1.118569  -0.537504
H    1.280006  0.392129  -0.434033
N    -1.231367  0.222350  1.717628
C    -2.419660  -0.615762  1.439808
C    -2.238878  -1.962552  2.194469
O    -1.005463  -2.360877  2.431473
H    -1.181825  0.459783  2.709390
H    -3.258187  -0.087618  1.909155
C    -2.748996  -0.808225  -0.055028
C    -4.089518  -1.501393  -0.344121
C    -5.357067  -0.646285  -0.304033
N    -5.694175  0.062785  0.957158
C    -6.298200  -0.513353  2.024751
N    -7.251130  0.181043  2.674085
N    -5.929862  -1.726694  2.426109
H    -1.963024  -1.411586  -0.526347
H    -2.728807  0.179619  -0.539954
H    -4.202363  -2.388899  0.290519
H    -4.046464  -1.886603  -1.373598
H    -6.211464  -1.278568  -0.586279
H    -5.285986  0.148949  -1.057077
H    -5.898920  1.050112  0.842438
H    -7.771179  0.919438  2.214674
H    -7.569262  -0.101353  3.593633
H    -6.507637  -2.188049  3.121343
N    -3.312450  -2.592408  2.532295
C    -3.182277  -3.888370  3.191819
H    -4.906581  -2.055018  2.357383
H    -4.157717  -4.387835  3.206685
H    -2.851119  -3.772293  4.235963
H    -2.465382  -4.546709  2.680426
Ba    1.198678  -2.147619  3.186023
