36
Energy: -246328.905309 eV PBE+vdW (tier 2 basis)
C    2.054327  0.706201  2.192423
C    1.238697  -0.176241  3.083952
O    1.824671  -0.917591  3.949391
H    2.602108  1.434720  2.805881
H    1.444542  1.243464  1.459160
H    2.806257  0.097041  1.673465
N    -0.079059  -0.143978  2.938529
C    -1.099495  -1.011499  3.558660
C    -1.157721  -0.857173  5.084708
O    -0.374677  -1.477516  5.865262
H    -0.480248  0.335647  2.070404
H    -2.040005  -0.593454  3.184643
C    -1.042861  -2.490004  3.109227
C    -0.950516  -2.711858  1.588886
C    -2.230492  -2.560981  0.732609
N    -3.070783  -1.390519  0.983648
C    -2.628944  -0.094534  0.982813
N    -3.482210  0.824309  1.571912
N    -1.433667  0.310266  0.638880
H    -1.928530  -2.995611  3.523612
H    -0.170257  -2.977057  3.572323
H    -0.618801  -3.747118  1.425042
H    -0.140640  -2.089953  1.184489
H    -2.880109  -3.426966  0.911843
H    -1.932878  -2.618137  -0.327813
H    -4.071216  -1.556047  0.986410
H    -3.336822  1.775871  1.245751
H    -4.462623  0.574643  1.656737
H    -0.955457  -0.401123  0.083060
N    -2.103055  -0.049106  5.548539
C    -2.349647  0.233146  6.960979
H    -2.679628  0.432170  4.861754
H    -3.420153  0.408159  7.105615
H    -1.796625  1.126389  7.280382
H    -2.037542  -0.624568  7.563035
Ba    1.966201  -2.163359  5.956295
