36
Energy: -246327.75583 eV PBE+vdW (tier 2 basis)
C    -1.295008  -2.035226  0.301278
C    -0.802819  -0.857996  1.070522
O    0.490781  -0.606233  1.097523
H    -2.376181  -1.986017  0.111669
H    -1.072155  -2.954751  0.863404
H    -0.757968  -2.099518  -0.652937
N    -1.595301  -0.064590  1.729393
C    -3.054441  -0.081734  1.855354
C    -3.346010  1.393685  2.224323
O    -2.406014  2.095595  2.642588
H    -1.261261  0.810295  2.206160
H    -3.509557  -0.358953  0.885440
C    -3.477715  -1.090952  2.950316
C    -4.983247  -1.281503  3.180458
C    -5.797025  -1.788181  1.981928
N    -6.199886  -0.742046  1.023463
C    -5.789255  -0.798425  -0.309379
N    -6.669497  -0.208251  -1.188084
N    -4.616810  -1.277533  -0.594208
H    -3.003786  -0.795097  3.898657
H    -3.047858  -2.066331  2.672956
H    -5.438879  -0.364295  3.581378
H    -5.080705  -2.026870  3.983459
H    -6.710359  -2.268845  2.357896
H    -5.233966  -2.547931  1.423569
H    -7.160229  -0.433096  1.141441
H    -6.425036  -0.226637  -2.170904
H    -7.666689  -0.270738  -1.010858
H    -4.472851  -1.308377  -1.605469
N    -4.606835  1.799338  2.057307
C    -5.076680  3.140078  2.383693
H    -5.265981  1.116609  1.671620
H    -5.496317  3.622878  1.492581
H    -4.230323  3.728337  2.748326
H    -5.847371  3.098280  3.163752
Ba    2.680097  -0.082546  1.179900
