36
Energy: -246329.165318 eV PBE+vdW (tier 2 basis)
C    0.890323  0.816038  0.917551
C    0.291343  -0.395650  1.564056
O    0.797884  -1.552166  1.347809
H    0.423283  1.749538  1.246733
H    0.769843  0.729993  -0.171470
H    1.967568  0.856115  1.123415
N    -0.761464  -0.229236  2.342577
C    -1.581935  -1.223936  3.027188
C    -2.631040  -0.337222  3.776706
O    -2.429127  0.877980  3.848064
H    -1.108759  0.718665  2.586431
H    -2.097760  -1.842011  2.275004
C    -0.802270  -2.155281  3.979950
C    0.116068  -1.450717  4.982519
C    1.124693  -2.404805  5.627941
N    2.196039  -2.824448  4.690985
C    3.287883  -1.982073  4.378944
N    3.479361  -0.872284  5.110607
N    3.982356  -2.355573  3.327733
H    -0.220730  -2.858926  3.364678
H    -1.532222  -2.776235  4.519390
H    -0.483036  -0.989646  5.780095
H    0.653301  -0.620532  4.499835
H    0.625638  -3.328302  5.950465
H    1.542823  -1.967145  6.548920
H    2.548922  -3.755876  4.909457
H    3.050174  -0.754602  6.021375
H    4.222445  -0.224152  4.874100
H    4.861921  -1.846255  3.218536
N    -3.681592  -0.977329  4.314197
C    -4.753450  -0.287458  5.032310
H    -3.809165  -1.963745  4.113651
H    -4.997539  -0.834775  5.949434
H    -5.651965  -0.209471  4.407054
H    -4.408359  0.718351  5.285853
Ba    2.313178  -3.382765  1.619632
