36
Energy: -246329.380555 eV PBE+vdW (tier 2 basis)
C    -1.538499  2.604663  2.439278
C    -1.485012  1.293136  3.161895
O    -1.130245  1.239486  4.374458
H    -2.248177  3.262987  2.958320
H    -1.839368  2.514055  1.390353
H    -0.554995  3.089047  2.489627
N    -1.825060  0.186472  2.482649
C    -1.966774  -1.147747  3.075646
C    -0.775505  -1.460121  3.985613
O    0.398655  -1.072692  3.612184
H    -2.125678  0.306350  1.519771
H    -2.875151  -1.135711  3.696365
C    -2.179501  -2.223897  1.990724
C    -0.995280  -2.557453  1.067833
C    0.055275  -3.530488  1.619505
N    -0.496778  -4.855797  1.936085
C    -0.386288  -5.527156  3.090812
N    -0.571704  -6.858616  3.089312
N    -0.102818  -4.909902  4.245689
H    -3.035133  -1.903159  1.377217
H    -2.528999  -3.135570  2.498940
H    -0.455757  -1.645509  0.773350
H    -1.399326  -2.974412  0.133276
H    0.547020  -3.132044  2.511670
H    0.844494  -3.667824  0.866179
H    -0.866194  -5.386821  1.152023
H    -0.738439  -7.369334  3.947667
H    -0.523297  -7.398865  2.233938
H    0.154372  -5.464416  5.052746
N    -0.903823  -2.029968  5.173800
C    -2.220122  -2.390876  5.710545
H    -0.218258  -3.902854  4.398664
H    -2.896073  -1.525992  5.814430
H    -2.084464  -2.823960  6.707791
H    -2.741249  -3.146119  5.101660
Ba    0.637125  0.121636  5.759322
