36
Energy: -246328.768012 eV PBE+vdW (tier 2 basis)
C    0.120860  -0.003240  0.415181
C    0.241294  -0.046957  1.781010
O    1.257525  0.394394  2.476851
H    0.909404  0.476256  -0.159597
H    -0.762982  -0.340585  -0.118883
H    0.986317  -1.981829  0.127760
N    -0.843394  -0.396910  2.644436
C    -2.233601  -0.577066  2.250340
C    -3.058381  0.447466  3.082207
O    -2.524342  1.556832  3.351869
H    -0.539771  -0.898110  3.478692
H    -2.314751  -0.185824  1.223250
C    -2.716132  -2.037295  2.240800
C    -1.996067  -2.943044  1.219155
C    -0.635695  -3.494760  1.675056
N    -0.019738  -4.361270  0.669347
C    1.035242  -4.059796  -0.105515
N    1.627571  -5.043835  -0.803605
N    1.507454  -2.813795  -0.188831
H    -3.782819  -2.056609  1.970777
H    -2.644939  -2.469168  3.252858
H    -1.875939  -2.410415  0.264300
H    -2.652762  -3.798818  1.005478
H    -0.756774  -4.088878  2.592823
H    0.079608  -2.699159  1.907911
H    -0.429421  -5.280712  0.537334
H    2.281856  -4.838433  -1.548403
H    1.464394  -6.019822  -0.588983
H    2.408722  -2.646363  -0.619883
N    -4.305157  0.151676  3.435429
C    -5.212594  1.060164  4.135635
H    -4.659236  -0.770551  3.202701
H    -5.421389  0.683421  5.144509
H    -6.154213  1.139172  3.580285
H    -4.744296  2.044607  4.203378
Ba    -0.071774  2.293865  3.216268
