36
Energy: -246328.904501 eV PBE+vdW (tier 2 basis)
C    -0.827185  1.032694  0.253235
C    -1.068867  1.094086  1.725271
O    -0.837395  2.168023  2.373580
H    -1.375767  1.848885  -0.234970
H    -1.131681  0.078158  -0.184770
H    0.240744  1.193932  0.053974
N    -1.538659  0.016281  2.353615
C    -1.855509  0.027495  3.780899
C    -0.568795  0.175591  4.627604
O    -0.433531  1.262081  5.295289
H    -1.678557  -0.874014  1.850942
H    -2.384151  0.974545  3.965699
C    -2.871874  -1.063801  4.190793
C    -2.501983  -2.553888  4.245201
C    -2.517478  -3.376712  2.944263
N    -1.668537  -2.901091  1.834182
C    -0.276604  -2.873823  1.959115
N    0.388372  -2.401115  0.851941
N    0.386714  -3.079301  3.058183
H    -3.752397  -0.916806  3.545147
H    -3.201847  -0.776540  5.199660
H    -3.263445  -3.032355  4.878837
H    -1.567336  -2.687056  4.803975
H    -3.540314  -3.384645  2.545407
H    -2.275345  -4.422621  3.196064
H    -2.011391  -3.208980  0.924751
H    1.378071  -2.628821  0.838309
H    -0.062352  -2.469553  -0.054197
H    -0.179726  -3.596395  3.732527
N    0.366966  -0.747556  4.614721
C    1.607182  -0.636133  5.380567
H    0.312459  -1.590549  3.976744
H    2.135482  -1.590233  5.300436
H    1.393097  -0.418425  6.432739
H    2.252865  0.156275  4.977278
Ba    -0.364707  3.493457  4.359412
