36
Energy: -246329.120916 eV PBE+vdW (tier 2 basis)
C    0.176723  1.543238  0.237371
C    0.049394  0.331109  1.111956
O    0.978224  -0.553032  1.114507
H    -0.629144  2.267586  0.392250
H    0.159477  1.224269  -0.814225
H    1.142136  2.034844  0.413525
N    -1.040220  0.214380  1.846944
C    -1.459262  -0.878893  2.721274
C    -2.882550  -0.428084  3.167861
O    -3.204885  0.748667  2.968896
H    -1.763566  0.960143  1.871743
H    -1.514373  -1.806798  2.132197
C    -0.496920  -1.097547  3.907675
C    -0.392568  0.071721  4.900639
C    0.931598  0.091304  5.676863
N    2.053034  0.630370  4.885870
C    2.888689  -0.058058  4.092327
N    3.704854  0.690618  3.198681
N    3.009811  -1.356388  3.945834
H    0.484791  -1.312591  3.470299
H    -0.798707  -2.010295  4.439455
H    -1.216002  0.025030  5.627060
H    -0.506114  1.036928  4.384865
H    1.200104  -0.906336  6.052917
H    0.845518  0.733124  6.561693
H    2.212671  1.629409  4.974095
H    3.482967  1.684539  3.142423
H    4.696504  0.579294  3.420075
H    2.527898  -1.897180  4.665586
N    -3.690244  -1.317779  3.770900
C    -3.486436  -2.742039  4.006264
H    -4.583270  -0.920273  4.055972
H    -2.832285  -3.179020  3.243453
H    -4.452890  -3.252362  3.937122
H    -3.065273  -2.939303  5.002348
Ba    3.154910  -1.553128  1.341916
