36
Energy: -246329.423753 eV PBE+vdW (tier 2 basis)
C    0.219069  0.423895  0.461606
C    -0.209840  -0.087032  1.799062
O    0.575277  -0.101809  2.785578
H    0.182695  1.524070  0.455828
H    -0.396611  0.046290  -0.361111
H    1.266016  0.141951  0.300172
N    -1.479301  -0.533057  1.988608
C    -2.685651  0.047026  1.415774
C    -2.636380  1.579995  1.644699
O    -2.055089  2.030806  2.669706
H    -1.642303  -0.972942  2.907477
H    -2.765312  -0.188069  0.343271
C    -3.927465  -0.479886  2.179928
C    -4.125199  -1.999025  2.342806
C    -3.156495  -2.801766  3.254641
N    -2.432116  -2.002893  4.264523
C    -3.024488  -1.284359  5.300139
N    -4.312075  -1.564388  5.589243
N    -2.297919  -0.338297  5.861098
H    -4.811040  -0.094631  1.653189
H    -3.946110  0.005743  3.167958
H    -4.124443  -2.488878  1.359152
H    -5.148378  -2.115602  2.723803
H    -2.367287  -3.260560  2.647407
H    -3.702473  -3.643549  3.710042
H    -1.530615  -2.387815  4.537315
H    -4.809873  -1.022406  6.286471
H    -4.715508  -2.463276  5.349164
H    -2.724541  -0.022436  6.736995
N    -3.253931  2.349087  0.756120
C    -3.393954  3.802288  0.843677
H    -3.672506  1.890630  -0.049598
H    -2.884607  4.153747  1.743605
H    -4.455545  4.072697  0.893756
H    -2.946540  4.272557  -0.039929
Ba    -0.550308  1.279376  4.632651
