36
Energy: -246328.313274 eV PBE+vdW (tier 2 basis)
C    -0.028355  1.634672  0.243019
C    0.215021  0.946136  1.542563
O    1.393039  0.808966  2.003518
H    0.509748  1.057474  -0.525387
H    0.429716  2.632804  0.245809
H    -1.084432  1.703229  -0.045645
N    -0.816328  0.440357  2.258373
C    -2.072737  1.151951  2.468010
C    -1.778873  2.374361  3.366805
O    -0.651782  2.489941  3.963453
H    -0.528838  -0.166931  3.027379
H    -2.410704  1.538068  1.488871
C    -3.131873  0.161124  3.004482
C    -4.566183  0.655411  3.254537
C    -5.371543  1.180879  2.055452
N    -4.991595  2.535323  1.608837
C    -4.223983  2.736810  0.439882
N    -4.044921  4.067202  0.127237
N    -3.571978  1.837322  -0.219871
H    -2.758116  -0.275874  3.945352
H    -3.158379  -0.661171  2.273285
H    -4.590690  1.400554  4.063941
H    -5.116467  -0.210349  3.651303
H    -6.427023  1.224726  2.350204
H    -5.328469  0.473611  1.212836
H    -5.755912  3.201453  1.707090
H    -3.713451  4.223001  -0.819787
H    -4.739486  4.740027  0.433153
H    -3.853836  0.888874  0.036217
N    -2.722667  3.288762  3.452929
C    -2.639160  4.513105  4.242187
H    -3.572987  3.135943  2.875690
H    -3.642532  4.778324  4.590284
H    -2.247332  5.338805  3.632746
H    -1.989043  4.359119  5.107830
Ba    1.753940  2.044130  4.104137
