36
Energy: -246328.983769 eV PBE+vdW (tier 2 basis)
C    -0.720172  -0.151581  0.794764
C    -1.016971  0.270048  2.204972
O    -0.304918  1.265833  2.677904
H    -1.331325  -1.004366  0.484553
H    0.339343  -0.424522  0.701097
H    -0.892425  0.691123  0.111393
N    -1.951253  -0.354502  2.876657
C    -2.226063  0.132669  4.233829
C    -1.060094  -0.163048  5.192461
O    -0.389633  0.809557  5.668358
H    -3.137780  -1.467437  2.070160
H    -2.270732  1.237618  4.228496
C    -3.584563  -0.364862  4.772997
C    -4.789579  0.308943  4.071392
C    -5.977182  -0.620313  3.713760
N    -6.117132  -0.869994  2.264424
C    -5.101277  -1.263592  1.485931
N    -5.073421  -0.951236  0.183308
N    -4.067295  -1.970940  1.995006
H    -3.627006  -0.162339  5.852292
H    -3.643426  -1.456747  4.679289
H    -4.454189  0.803054  3.148167
H    -5.167942  1.112858  4.715058
H    -6.926829  -0.168175  4.018367
H    -5.916453  -1.575957  4.257357
H    -6.983830  -0.579042  1.821859
H    -4.495616  -1.502099  -0.441537
H    -5.727705  -0.295785  -0.228142
H    -4.289622  -2.422016  2.878302
N    -0.712759  -1.404804  5.523493
C    -1.262813  -2.677626  5.060440
H    0.053233  -1.453988  6.193738
H    -2.055546  -3.036539  5.729580
H    -0.456049  -3.417834  5.052339
H    -1.639344  -2.569973  4.039548
Ba    0.747642  2.531768  4.320593
