36
Energy: -246327.97752 eV PBE+vdW (tier 2 basis)
C    -0.194861  1.238886  0.008233
C    -0.354572  0.483664  1.288379
O    0.648098  -0.026248  1.875500
H    0.054766  2.291596  0.216773
H    -1.096792  1.216151  -0.611995
H    0.647319  0.811514  -0.547342
N    -1.577024  0.363248  1.851995
C    -2.534293  1.469455  1.939140
C    -1.849247  2.634685  2.686390
O    -0.815294  2.401170  3.409755
H    -1.607171  -0.275036  2.647765
H    -2.810429  1.798678  0.927245
C    -3.788805  1.012111  2.710290
C    -4.615596  -0.093373  2.036725
C    -5.278239  0.294348  0.697848
N    -5.912753  1.612931  0.677436
C    -6.736142  2.067213  1.710322
N    -7.748622  1.197736  2.045437
N    -6.444972  3.200999  2.266509
H    -4.429374  1.889218  2.879387
H    -3.466988  0.676087  3.710660
H    -5.403492  -0.364386  2.753631
H    -4.021776  -1.008299  1.882501
H    -6.003747  -0.489406  0.437671
H    -4.547874  0.290759  -0.123916
H    -5.320491  2.369492  0.354920
H    -8.413061  1.512908  2.743119
H    -8.162924  0.652278  1.295744
H    -7.194296  3.543366  2.873335
N    -2.336388  3.857609  2.591857
C    -3.452851  4.343013  1.767459
H    -1.864378  4.547269  3.175767
H    -3.453635  5.434772  1.826576
H    -4.439181  3.968124  2.110570
H    -3.294925  4.063615  0.717350
Ba    1.211879  1.158325  3.977999
