36
Energy: -246329.409171 eV PBE+vdW (tier 2 basis)
C    -2.045259  0.060315  1.811318
C    -1.183515  -0.171830  3.020834
O    0.105495  -0.001158  2.842102
H    -1.915885  1.093439  1.461186
H    -3.105074  -0.111419  2.017389
H    -1.722498  -0.595619  0.991813
N    -1.753396  -0.518568  4.144537
C    -0.933392  -0.802952  5.335009
C    0.042242  0.323275  5.703735
O    1.295653  0.239167  5.511193
H    -3.327308  -1.341475  4.177391
H    -1.648448  -0.824147  6.172343
C    -0.258137  -2.189781  5.290163
C    -1.199656  -3.291184  4.780931
C    -2.474638  -3.472371  5.631022
N    -3.637953  -3.917641  4.865706
C    -4.530934  -3.097929  4.285011
N    -5.692221  -3.620868  3.846975
N    -4.288894  -1.791552  4.156306
H    0.125520  -2.429428  6.293179
H    0.619660  -2.170805  4.627811
H    -0.650336  -4.240983  4.736010
H    -1.495084  -3.057758  3.749344
H    -2.764581  -2.538281  6.128757
H    -2.311670  -4.205815  6.430035
H    -3.782281  -4.914988  4.751621
H    -6.303589  -3.098386  3.232850
H    -6.022555  -4.521445  4.171002
H    -5.063108  -1.189771  3.900057
N    -0.460021  1.424965  6.259662
C    -1.858918  1.713042  6.577234
H    0.232952  2.118613  6.535449
H    -2.514405  1.307273  5.800493
H    -1.988810  2.799357  6.604773
H    -2.135515  1.305993  7.559319
Ba    2.367234  0.156209  3.314119
