36
Energy: -246328.144451 eV PBE+vdW (tier 2 basis)
C    -0.066138  2.415289  0.228621
C    -0.002072  1.366851  1.291057
O    1.080487  1.129623  1.912282
H    -0.201613  3.409619  0.683586
H    -0.886665  2.253171  -0.477194
H    0.893143  2.431094  -0.301298
N    -1.113866  0.676888  1.625799
C    -2.426440  1.310425  1.739262
C    -2.347194  2.337704  2.898265
O    -1.340718  2.344829  3.692471
H    -0.948089  -0.096692  2.271194
H    -2.627607  1.857750  0.802932
C    -3.497394  0.206127  1.901615
C    -4.975014  0.608701  2.031559
C    -5.607596  1.386083  0.867236
N    -5.219828  2.816368  0.823172
C    -4.422274  3.421783  -0.188850
N    -3.726461  2.535292  -1.019107
N    -4.187249  4.674602  -0.284757
H    -3.235735  -0.406759  2.780247
H    -3.379381  -0.445959  1.022936
H    -5.154823  1.151983  2.971530
H    -5.536366  -0.331390  2.135616
H    -6.698495  1.341736  0.976584
H    -5.387896  0.886150  -0.085552
H    -5.998683  3.428946  1.055482
H    -3.279344  3.067055  -1.765288
H    -4.275071  1.771251  -1.408330
H    -4.674784  5.239243  0.415908
N    -3.336140  3.195798  2.999502
C    -3.443267  4.237711  4.014917
H    -4.080134  3.133391  2.263076
H    -3.015397  3.893145  4.961117
H    -4.501362  4.473408  4.165500
H    -2.923494  5.149487  3.690150
Ba    0.997808  1.909522  4.252608
