36
Energy: -246329.21488 eV PBE+vdW (tier 2 basis)
C    1.954385  0.825301  1.510830
C    1.026622  0.300750  2.573557
O    1.614038  -0.346617  3.554164
H    1.434042  1.411947  0.749260
H    2.480176  -0.011902  1.031535
H    2.723231  1.458536  1.972718
N    -0.255390  0.518658  2.453026
C    -1.219339  0.001138  3.439820
C    -1.015308  0.606795  4.843179
O    -0.292330  0.070256  5.733402
H    -0.850840  0.981089  0.710235
H    -2.196441  0.405945  3.124488
C    -1.375108  -1.538572  3.511003
C    -1.435065  -2.304817  2.177573
C    -2.657102  -2.065059  1.276097
N    -2.672971  -0.722734  0.671399
C    -1.917830  -0.336882  -0.383944
N    -1.907393  -1.072455  -1.503062
N    -1.216834  0.789986  -0.254299
H    -2.275920  -1.756884  4.106131
H    -0.534403  -1.957940  4.081317
H    -1.429887  -3.377984  2.419733
H    -0.519158  -2.120859  1.595807
H    -3.597272  -2.182337  1.831233
H    -2.674369  -2.814707  0.476266
H    -2.828503  0.035878  1.326470
H    -1.243272  -0.890077  -2.245720
H    -2.664138  -1.716936  -1.701263
H    -0.833552  1.269891  -1.061461
N    -1.645022  1.754267  5.084220
C    -1.555746  2.502394  6.335715
H    -2.192675  2.157375  4.330457
H    -2.439660  3.139766  6.429027
H    -0.658146  3.135080  6.353206
H    -1.523384  1.805084  7.178431
Ba    1.941269  -0.945796  5.757415
