36
Energy: -246328.976503 eV PBE+vdW (tier 2 basis)
C    0.247403  0.354975  -0.149287
C    -0.024719  0.118284  1.304467
O    0.938942  0.079430  2.131088
H    0.857052  -0.477762  -0.527929
H    0.843900  1.267791  -0.270659
H    -0.659259  0.433765  -0.757961
N    -1.295859  -0.056827  1.683118
C    -1.848363  -0.480330  2.981971
C    -1.768256  0.558801  4.101131
O    -0.677104  1.145242  4.429596
H    -1.980395  0.011253  0.935650
H    -2.923665  -0.603236  2.793907
C    -1.350157  -1.870235  3.457853
C    -2.275856  -2.997807  2.951824
C    -3.077240  -3.713693  4.045216
N    -3.780434  -2.873819  5.042366
C    -4.904413  -2.109528  4.737958
N    -6.019037  -2.407888  5.461982
N    -4.807381  -1.120908  3.882890
H    -1.342885  -1.875380  4.557642
H    -0.314977  -2.029989  3.130077
H    -1.690549  -3.775870  2.442994
H    -2.966595  -2.601393  2.195442
H    -2.389696  -4.330332  4.639750
H    -3.779780  -4.407379  3.554759
H    -3.895107  -3.380475  5.916143
H    -6.840264  -1.818302  5.394808
H    -6.165198  -3.337455  5.837846
H    -5.727942  -0.745516  3.642631
N    -2.902281  0.721503  4.743554
C    -3.083732  1.554568  5.922639
H    -3.707365  0.090294  4.421455
H    -4.018045  2.118342  5.822740
H    -2.249200  2.253035  6.026520
H    -3.149353  0.929039  6.823334
Ba    1.695648  1.084900  4.188479
