36
Energy: -246329.023188 eV PBE+vdW (tier 2 basis)
C    0.511847  -0.674752  0.569073
C    -0.098248  -0.888516  1.920601
O    0.573951  -1.436421  2.846277
H    1.154383  0.218831  0.574600
H    -0.230931  -0.564033  -0.226813
H    1.157466  -1.533283  0.349913
N    -1.369512  -0.498240  2.159690
C    -1.879408  0.811404  1.725327
C    -1.422851  1.869037  2.776083
O    -0.366801  1.546487  3.499200
H    -1.700837  -0.795898  3.077514
H    -1.337731  1.063025  0.801527
C    -3.371494  0.759734  1.367132
C    -4.376952  0.501916  2.507948
C    -5.064188  1.740263  3.104588
N    -5.859760  2.491673  2.130775
C    -5.532111  3.671241  1.575255
N    -6.475200  4.335076  0.878245
N    -4.304181  4.172100  1.695573
H    -3.469704  -0.038461  0.619189
H    -3.626713  1.682779  0.831011
H    -3.909557  -0.039586  3.346151
H    -5.157855  -0.178082  2.138888
H    -4.335691  2.425639  3.549345
H    -5.745413  1.426158  3.907222
H    -6.755763  2.096915  1.864300
H    -6.240098  5.148006  0.323749
H    -7.457449  4.107424  0.965986
H    -4.138986  5.125206  1.394995
N    -2.056351  2.988561  2.841576
C    -1.555845  3.996436  3.774276
H    -3.473891  3.626132  2.073398
H    -2.254283  4.840777  3.806166
H    -0.572568  4.380004  3.462739
H    -1.452043  3.601286  4.796193
Ba    1.275065  0.253005  4.550041
