36
Energy: -246328.511397 eV PBE+vdW (tier 2 basis)
C    -1.024476  1.648299  2.668924
C    -2.039250  0.696467  3.224833
O    -2.087334  0.509830  4.478338
H    -0.069219  1.133732  2.486012
H    -0.836549  2.413774  3.430583
H    -1.348548  2.126458  1.741175
N    -2.958699  0.073128  2.440882
C    -2.712673  -0.767222  1.246947
C    -2.179346  -2.155590  1.724229
O    -1.604762  -2.204067  2.908186
H    -3.670222  -0.358368  3.032313
H    -3.713074  -0.952261  0.836247
C    -1.836991  -0.144993  0.144999
C    -2.536097  0.904297  -0.747801
C    -3.142382  0.391977  -2.068055
N    -4.369322  -0.413597  -1.944971
C    -4.428787  -1.692688  -1.537520
N    -5.585039  -2.180142  -1.046563
N    -3.365604  -2.507620  -1.552798
H    -1.464632  -0.974021  -0.467835
H    -0.932834  0.285639  0.587207
H    -1.794463  1.660099  -1.044971
H    -3.304214  1.449235  -0.177620
H    -2.390088  -0.162424  -2.648413
H    -3.415102  1.250244  -2.693243
H    -5.245732  0.058003  -2.145665
H    -5.734648  -3.182803  -1.065174
H    -6.400159  -1.590655  -0.927212
H    -2.575186  -2.186639  -2.103018
N    -2.367252  -3.151056  0.927795
C    -1.870146  -4.467389  1.316969
H    -3.069645  -2.950028  -0.616087
H    -1.968637  -5.155629  0.471175
H    -2.452560  -4.880211  2.155626
H    -0.813702  -4.437138  1.621432
Ba    -1.265203  -1.756759  5.173574
