36
Energy: -246330.049237 eV PBE+vdW (tier 2 basis)
C    0.523512  -0.018321  0.429442
C    -0.111527  -0.256518  1.767094
O    0.414403  -1.038884  2.597550
H    0.570794  -0.973860  -0.110554
H    1.557666  0.318467  0.576293
H    -0.007157  0.712539  -0.189595
N    -1.261510  0.402720  2.026919
C    -2.142725  0.271851  3.205316
C    -1.442675  0.805137  4.479219
O    -0.651982  0.091670  5.145355
H    -1.601716  1.007312  1.285792
H    -2.991997  0.936184  2.989903
C    -2.678887  -1.153546  3.393997
C    -3.780183  -1.270615  4.466079
C    -3.865186  -2.660175  5.123599
N    -2.913932  -2.837709  6.229737
C    -1.608242  -3.159405  6.122024
N    -0.785508  -2.867199  7.225315
N    -0.966928  -3.617594  5.072875
H    -1.839487  -1.809851  3.635894
H    -3.064945  -1.497374  2.424470
H    -4.755658  -1.038809  4.015783
H    -3.633086  -0.530552  5.268155
H    -3.733206  -3.464202  4.385121
H    -4.862456  -2.811361  5.552351
H    -3.278701  -2.670188  7.161670
H    -0.254588  -3.677746  7.543066
H    -1.230279  -2.391845  8.007927
H    -1.587064  -3.972213  4.343053
N    -1.737054  2.057279  4.829765
C    -1.161608  2.755865  5.977190
H    -2.382861  2.577488  4.243341
H    -0.288205  3.347924  5.673709
H    -0.856663  2.022736  6.728736
H    -1.915204  3.425613  6.403196
Ba    0.990848  -1.850820  4.899213
