36
Energy: -246328.283843 eV PBE+vdW (tier 2 basis)
C    -2.561891  1.921904  1.946393
C    -3.127035  0.674334  2.552724
O    -3.463525  0.675261  3.783080
H    -2.772419  2.762346  2.614444
H    -2.986145  2.126677  0.957917
H    -1.471413  1.836267  1.824572
N    -3.287265  -0.455614  1.835318
C    -2.322141  -1.029501  0.889308
C    -1.060862  -1.399085  1.671244
O    -0.865640  -0.967353  2.866409
H    -3.845162  -1.160862  2.317953
H    -2.794279  -2.007456  0.566125
C    -2.064163  -0.224749  -0.399695
C    -3.320629  0.084691  -1.225315
C    -4.040953  -1.122736  -1.860589
N    -5.080120  -1.747622  -1.048877
C    -4.955190  -2.974288  -0.446711
N    -6.148644  -3.615259  -0.207601
N    -3.774501  -3.403364  -0.081226
H    -1.380064  -0.815792  -1.022542
H    -1.523584  0.706220  -0.183770
H    -2.999868  0.747963  -2.041558
H    -4.049081  0.661314  -0.635286
H    -3.317066  -1.900141  -2.141731
H    -4.517522  -0.781903  -2.789402
H    -6.025848  -1.417256  -1.199459
H    -6.107482  -4.530525  0.224011
H    -6.907581  -3.504702  -0.872162
H    -3.811951  -4.375442  0.229943
N    -0.173746  -2.226080  1.135964
C    -0.253626  -2.968248  -0.127078
H    0.656053  -2.383804  1.705896
H    0.210964  -3.947765  0.028014
H    0.293712  -2.446111  -0.922194
H    -1.299960  -3.121076  -0.415538
Ba    -1.639408  -0.314680  5.086898
