36
Energy: -246328.504878 eV PBE+vdW (tier 2 basis)
C    0.680945  1.178139  0.944575
C    0.467021  0.667009  2.330090
O    1.457891  0.543547  3.119709
H    -0.251540  1.301382  0.387240
H    1.335792  0.477543  0.410092
H    1.199966  2.144672  0.997128
N    -0.774956  0.366763  2.721216
C    -1.133875  -0.235033  4.019031
C    -0.724587  0.693671  5.179303
O    0.335062  0.489460  5.846063
H    -1.490995  0.260323  1.974292
H    -2.232225  -0.249483  4.011308
C    -0.634839  -1.692623  4.186626
C    -1.747710  -2.749525  4.084328
C    -2.536167  -2.757716  2.761210
N    -1.693336  -2.851412  1.584442
C    -1.423594  -1.880223  0.650217
N    -2.392799  -0.836583  0.570086
N    -0.321909  -1.933739  -0.010843
H    -0.161959  -1.803848  5.173979
H    0.126074  -1.894834  3.417524
H    -2.460753  -2.628757  4.915164
H    -1.287207  -3.737885  4.230531
H    -3.156143  -1.855009  2.678693
H    -3.243359  -3.600247  2.788202
H    -1.040652  -3.627855  1.527750
H    -2.303464  -0.333315  -0.311784
H    -3.358257  -1.160400  0.657219
H    -0.307380  -1.294482  -0.808735
N    -1.514893  1.716179  5.483435
C    -2.778398  2.107721  4.851049
H    -1.197544  2.277612  6.273001
H    -2.649071  2.267424  3.774543
H    -3.101387  3.050841  5.300027
H    -3.561531  1.359816  5.030562
Ba    2.609598  -0.065491  5.125684
