36
Energy: -246329.288492 eV PBE+vdW (tier 2 basis)
C    0.931682  0.873840  1.145485
C    0.421164  0.817644  2.548421
O    1.225212  0.783380  3.531546
H    1.027107  1.925979  0.837398
H    0.267719  0.373147  0.431866
H    1.923882  0.414620  1.105072
N    -0.894138  0.805679  2.796045
C    -1.999821  1.099504  1.884588
C    -1.849894  2.535690  1.320785
O    -1.214058  3.405237  1.941638
H    -1.146416  0.741133  3.779992
H    -1.964560  0.378600  1.053811
C    -3.340958  0.888421  2.638867
C    -4.025206  2.063922  3.369470
C    -3.238610  2.964223  4.337433
N    -2.337657  2.251912  5.259423
C    -1.067196  2.601406  5.570906
N    -0.326725  3.415432  4.673136
N    -0.369883  2.161391  6.592849
H    -3.185749  0.046150  3.330886
H    -4.073465  0.514502  1.911891
H    -4.882179  1.625409  3.901417
H    -4.470313  2.746851  2.630842
H    -3.959075  3.543107  4.933920
H    -2.637312  3.685381  3.780177
H    -2.785906  1.619132  5.920048
H    -0.680305  3.436458  3.693722
H    -0.232756  4.368329  5.030087
H    -0.921044  1.674450  7.303013
N    -2.473902  2.769951  0.159812
C    -2.495856  4.083469  -0.484689
H    -2.926873  1.997354  -0.317663
H    -2.741191  4.857356  0.250472
H    -3.255631  4.075110  -1.270832
H    -1.520229  4.318257  -0.928925
Ba    2.006066  1.971942  5.522797
