36
Energy: -246329.822873 eV PBE+vdW (tier 2 basis)
C    -0.281455  0.742779  0.431102
C    -0.714602  0.622071  1.862232
O    -0.034918  -0.034648  2.689869
H    -0.957435  1.341924  -0.187731
H    -0.198135  -0.262901  -0.001513
H    0.721255  1.189282  0.399427
N    -1.856311  1.251493  2.212763
C    -2.508082  1.299829  3.535504
C    -1.494128  1.577861  4.671649
O    -0.998005  0.666724  5.382062
H    -2.341596  1.742378  1.467649
H    -3.136434  2.199986  3.486188
C    -3.477452  0.121993  3.830087
C    -3.131626  -1.275563  3.261148
C    -3.158904  -2.418223  4.278297
N    -2.051123  -2.271054  5.233493
C    -1.464644  -3.330565  5.941928
N    -2.096449  -4.520116  5.957686
N    -0.286012  -3.051712  6.447252
H    -4.456477  0.420592  3.435675
H    -3.615544  0.088463  4.921069
H    -2.144630  -1.277129  2.782716
H    -3.847538  -1.524135  2.467317
H    -3.022246  -3.367537  3.744687
H    -4.134834  -2.460387  4.791124
H    -2.122138  -1.430701  5.807387
H    -3.088082  -4.599348  5.765040
H    -1.649766  -5.329909  6.372822
H    0.066123  -3.766993  7.085443
N    -1.216135  2.864305  4.884806
C    -0.316842  3.354870  5.926919
H    -1.663139  3.556584  4.290866
H    -0.650920  4.347203  6.244430
H    0.713174  3.432590  5.553386
H    -0.346623  2.673531  6.782194
Ba    0.693112  -1.167181  4.854590
