36
Energy: -246329.970554 eV PBE+vdW (tier 2 basis)
C    0.485237  1.650145  1.196352
C    0.204351  0.737263  2.353511
O    1.114499  0.024947  2.844355
H    -0.384783  2.225760  0.863476
H    0.857862  1.049168  0.356106
H    1.288459  2.344750  1.474615
N    -1.063131  0.723442  2.826625
C    -1.627296  -0.137045  3.885893
C    -1.042158  0.262714  5.257622
O    0.095889  -0.130789  5.622551
H    -1.719816  1.334055  2.351123
H    -2.696936  0.102718  3.898758
C    -1.481298  -1.634307  3.554430
C    -1.904796  -2.582259  4.679314
C    -1.624446  -4.068543  4.372571
N    -0.309905  -4.332519  3.770703
C    0.873644  -3.905645  4.258986
N    1.961988  -3.865693  3.366368
N    1.112088  -3.383224  5.436469
H    -0.443222  -1.832865  3.265139
H    -2.079124  -1.821591  2.650183
H    -2.984363  -2.501693  4.873064
H    -1.407966  -2.292819  5.615132
H    -2.356975  -4.445424  3.648838
H    -1.756639  -4.665625  5.287519
H    -0.299187  -4.913211  2.939160
H    2.782485  -4.353970  3.723929
H    1.768150  -4.135192  2.403896
H    0.367572  -3.554800  6.113056
N    -1.772776  1.042513  6.056123
C    -3.099044  1.621984  5.822560
H    -1.319589  1.270142  6.940115
H    -3.101443  2.283487  4.947563
H    -3.360190  2.224123  6.697214
H    -3.865156  0.844977  5.709375
Ba    2.275524  -1.096785  4.794476
