36
Energy: -246329.712005 eV PBE+vdW (tier 2 basis)
C    1.403953  1.841183  1.738722
C    0.659185  1.297331  2.916582
O    1.089991  1.440906  4.089312
H    1.569132  2.916392  1.885197
H    0.890230  1.681070  0.785029
H    2.395022  1.369697  1.694010
N    -0.499178  0.638322  2.692085
C    -1.319096  0.126691  3.786059
C    -0.743755  -1.166780  4.403763
O    -0.214994  -1.071220  5.547446
H    -0.837664  0.563637  1.737260
H    -1.196125  0.854933  4.596920
C    -2.819714  0.098725  3.472009
C    -3.484125  1.477167  3.622805
C    -3.261419  2.163231  4.983911
N    -2.190929  3.185557  4.928565
C    -1.543888  3.637833  6.057375
N    -1.483380  4.983411  6.203416
N    -0.966119  2.783702  6.891978
H    -3.295820  -0.603707  4.172639
H    -3.012113  -0.303596  2.467077
H    -4.562422  1.342119  3.469611
H    -3.156043  2.151633  2.817040
H    -2.996221  1.441990  5.767505
H    -4.197484  2.642854  5.307844
H    -2.402257  3.929916  4.267076
H    -0.878226  5.402860  6.899163
H    -2.159658  5.597431  5.763842
H    -0.811486  3.255292  7.789560
N    -0.790111  -2.339663  3.778111
C    -1.375128  -2.679796  2.481153
H    -0.391556  -3.108591  4.316236
H    -0.899107  -3.597459  2.122879
H    -1.181985  -1.896582  1.741717
H    -2.455038  -2.856705  2.561964
Ba    0.924671  0.954429  6.560679
