36
Energy: -246329.095173 eV PBE+vdW (tier 2 basis)
C    0.931338  1.009889  -0.017427
C    0.429176  1.049057  1.393238
O    1.170783  0.628341  2.355385
H    1.854356  1.599998  -0.095088
H    0.204014  1.399289  -0.736711
H    1.174370  -0.026082  -0.289781
N    -0.781472  1.519570  1.612970
C    -1.489695  1.646537  2.883249
C    -2.967314  1.843215  2.429628
O    -3.170965  2.274992  1.293858
H    -1.385725  1.856807  0.841687
H    -1.359958  0.719158  3.461042
C    -0.962503  2.874109  3.666013
C    -1.420141  3.021499  5.123388
C    -1.122590  1.844515  6.061036
N    0.274894  1.420365  5.962584
C    0.823193  0.327677  6.553063
N    0.087034  -0.323081  7.478728
N    2.027923  -0.075655  6.140312
H    -1.252687  3.780098  3.115456
H    0.136464  2.840717  3.618947
H    -2.500627  3.214230  5.171810
H    -0.948408  3.928842  5.529574
H    -1.753856  0.973024  5.824510
H    -1.373605  2.156877  7.088481
H    0.941309  2.097104  5.610135
H    0.421076  -1.192227  7.876620
H    -0.673406  0.134635  7.968165
H    2.457883  -0.683965  6.842930
N    -3.927917  1.569929  3.331251
C    -5.352813  1.747397  3.050342
H    -3.667897  1.114222  4.198189
H    -5.849376  2.186413  3.922462
H    -5.827558  0.788439  2.805906
H    -5.454501  2.421072  2.195241
Ba    2.925970  -0.222437  3.740237
