36
Energy: -246327.625532 eV PBE+vdW (tier 2 basis)
C    -0.408166  -0.207916  0.720607
C    -0.417999  -0.114192  2.211545
O    0.650242  -0.235861  2.882983
H    -0.083166  0.748919  0.282047
H    -1.385016  -0.470632  0.303074
H    0.333959  -0.959607  0.426136
N    -1.577005  0.134175  2.865469
C    -2.553056  1.139586  2.427402
C    -1.783920  2.464885  2.225356
O    -0.732930  2.677951  2.930610
H    -1.509431  0.036759  3.879202
H    -3.021775  0.820001  1.487679
C    -3.623172  1.263879  3.541389
C    -4.826583  2.156787  3.228908
C    -5.883985  1.508459  2.309138
N    -6.793335  2.496920  1.740371
C    -6.602710  2.994050  0.449333
N    -6.525403  1.994558  -0.520553
N    -6.469881  4.266255  0.282893
H    -3.115923  1.628929  4.450093
H    -3.964203  0.239301  3.759419
H    -4.503273  3.116590  2.801608
H    -5.304024  2.415453  4.184887
H    -6.445051  0.753621  2.881952
H    -5.414671  0.973932  1.470507
H    -7.025199  3.264410  2.367978
H    -7.174078  1.220071  -0.394171
H    -6.524476  2.336135  -1.476927
H    -6.555342  4.540919  -0.700704
N    -2.182166  3.370633  1.350382
C    -3.272179  3.337795  0.371239
H    -1.630914  4.230286  1.364642
H    -3.667036  2.325983  0.252116
H    -2.875050  3.677565  -0.592267
H    -4.101678  4.000258  0.666056
Ba    1.344226  1.888148  3.968640
