36
Energy: -246327.665829 eV PBE+vdW (tier 2 basis)
C    0.481326  0.431449  1.249876
C    0.041558  0.717202  2.649487
O    0.858634  1.183978  3.504641
H    0.442338  1.346454  0.638127
H    -0.123897  -0.338739  0.760677
H    1.529150  0.110407  1.279551
N    -1.235399  0.493409  3.025317
C    -2.389320  0.824749  2.195962
C    -2.566842  2.374674  2.256073
O    -1.684492  3.109125  2.808326
H    -1.397102  0.566478  4.030235
H    -2.134875  0.585420  1.152206
C    -3.637745  0.021045  2.585960
C    -4.116527  0.199242  4.032430
C    -5.488940  -0.473288  4.301750
N    -5.544290  -1.896909  4.025900
C    -5.580803  -2.433155  2.731492
N    -6.344019  -1.678047  1.829567
N    -4.984232  -3.491844  2.318246
H    -3.412613  -1.035784  2.384711
H    -4.456867  0.252379  1.886910
H    -4.214854  1.270442  4.287436
H    -3.382712  -0.232595  4.734956
H    -6.257849  0.039001  3.708971
H    -5.754768  -0.315881  5.355731
H    -5.055480  -2.488980  4.690025
H    -6.441366  -2.196508  0.958314
H    -7.258986  -1.410197  2.189227
H    -4.373149  -3.901060  3.030701
N    -3.645626  2.876775  1.683594
C    -3.988120  4.295006  1.582011
H    -4.311860  2.211072  1.296348
H    -4.363967  4.500239  0.573905
H    -3.097780  4.899435  1.768759
H    -4.766386  4.551217  2.312276
Ba    0.390758  3.524222  4.090759
