36
Energy: -246329.077979 eV PBE+vdW (tier 2 basis)
C    -1.485462  2.436522  -0.055148
C    -0.589509  2.035927  1.081251
O    0.506996  2.574896  1.286817
H    -1.879663  3.440782  0.155291
H    -2.329223  1.755988  -0.215690
H    -0.891528  2.510767  -0.973001
N    -1.037196  1.025591  1.896985
C    -0.489131  0.738792  3.226124
C    0.902033  0.051470  3.214164
O    1.180217  -0.871186  4.058971
H    -1.946970  0.633459  1.682435
H    -0.304224  1.709748  3.723415
C    -1.514294  -0.037740  4.061954
C    -2.054986  -1.331504  3.419877
C    -2.470484  -2.397016  4.439146
N    -1.266272  -3.063929  4.971339
C    -1.273888  -3.917173  6.086147
N    -2.453318  -4.262328  6.627548
N    -0.075471  -4.223569  6.537684
H    -2.350424  0.636767  4.292703
H    -1.045364  -0.265701  5.029645
H    -1.314280  -1.773555  2.733656
H    -2.936101  -1.111264  2.801644
H    -3.143013  -3.125354  3.957417
H    -3.013374  -1.935742  5.276135
H    -0.715610  -3.477239  4.218208
H    -2.487848  -4.794937  7.489915
H    -3.324108  -4.170123  6.116922
H    -0.078107  -4.972940  7.232106
N    1.787493  0.518991  2.365876
C    3.160294  0.044079  2.255599
H    1.473438  1.379551  1.838712
H    3.186397  -1.048998  2.174325
H    3.757016  0.357238  3.123838
H    3.603989  0.477428  1.355189
Ba    1.470073  -2.171240  6.066002
