36
Energy: -246329.21984 eV PBE+vdW (tier 2 basis)
C    0.041619  -0.189156  0.151533
C    -0.508607  -1.188785  1.125135
O    -0.225295  -2.432112  0.990778
H    -0.382777  -0.391565  -0.841819
H    1.130306  -0.302619  0.070714
H    -0.192652  0.844800  0.423826
N    -1.288362  -0.742582  2.091830
C    -2.016698  -1.483792  3.117449
C    -2.831621  -0.362565  3.836069
O    -2.543052  0.814551  3.600691
H    -1.482101  0.271656  2.210285
H    -2.704588  -2.191720  2.628847
C    -1.091626  -2.264242  4.072973
C    -0.133159  -1.404186  4.912741
C    1.115254  -2.164378  5.381945
N    2.139828  -2.293524  4.329571
C    2.250981  -3.278631  3.424462
N    3.123130  -3.056559  2.322409
N    1.593205  -4.411506  3.349369
H    -0.527009  -2.970778  3.453542
H    -1.717556  -2.877303  4.737850
H    -0.654793  -1.017936  5.799566
H    0.192877  -0.517257  4.349026
H    0.864741  -3.162585  5.768876
H    1.596043  -1.632598  6.211543
H    2.843648  -1.561736  4.309269
H    3.903016  -3.717209  2.326811
H    3.487167  -2.106990  2.244788
H    1.066644  -4.637000  4.194712
N    -3.778619  -0.767803  4.696555
C    -4.624313  0.159138  5.448481
H    -3.994139  -1.757457  4.755984
H    -4.684087  -0.158505  6.495327
H    -5.635173  0.195016  5.022909
H    -4.179053  1.155986  5.392698
Ba    1.017878  -4.482597  0.799055
