36
Energy: -246328.379054 eV PBE+vdW (tier 2 basis)
C    -0.045338  0.904243  0.226933
C    -0.012661  0.565368  1.681382
O    0.965707  0.915222  2.411282
H    -0.002963  1.996502  0.115191
H    -0.935987  0.528199  -0.286796
H    0.850631  0.497336  -0.260541
N    -1.036808  -0.115568  2.210771
C    -1.170721  -0.411484  3.649112
C    0.005391  -1.269597  4.146528
O    0.818818  -0.714981  4.976156
H    -1.824102  -0.339565  1.606570
H    -1.046855  0.542056  4.185065
C    -2.590523  -0.934859  3.951697
C    -3.037729  -0.898941  5.429930
C    -2.816385  -2.175184  6.255358
N    -1.408165  -2.457627  6.502445
C    -0.710529  -3.619184  6.244575
N    -1.439805  -4.677260  5.727438
N    0.586197  -3.735925  6.316475
H    -2.731960  -1.942957  3.538334
H    -3.267515  -0.273108  3.389488
H    -4.118962  -0.702052  5.440492
H    -2.583569  -0.036577  5.944638
H    -3.254039  -3.024863  5.717794
H    -3.366793  -2.081885  7.204440
H    -0.901605  -1.777919  7.058442
H    -0.877366  -5.524388  5.694691
H    -2.354167  -4.847202  6.136133
H    1.009476  -2.883270  6.694268
N    0.236137  -2.504872  3.739350
C    -0.527027  -3.319679  2.794458
H    0.835055  -3.043521  4.402091
H    0.159079  -4.049457  2.351766
H    -0.940013  -2.708151  1.988541
H    -1.323727  -3.869045  3.313868
Ba    2.462945  0.924793  4.336662
