36
Energy: -246328.777784 eV PBE+vdW (tier 2 basis)
C    -4.555919  -2.398075  1.128753
C    -3.168810  -2.267494  1.670119
O    -2.209188  -2.926971  1.146752
H    -4.557674  -2.107607  0.069453
H    -5.280281  -1.784493  1.673203
H    -4.869455  -3.449213  1.175867
N    -2.963225  -1.449588  2.698808
C    -1.643291  -1.185901  3.280861
C    -1.174759  -2.432825  4.061360
O    -0.325066  -3.218283  3.524483
H    -3.765112  -0.921744  3.114284
H    -0.940368  -1.084215  2.440868
C    -1.597260  0.118260  4.118623
C    -2.544536  1.257530  3.691567
C    -3.886396  1.314202  4.441150
N    -4.754568  0.129835  4.238173
C    -4.988792  -0.891782  5.189766
N    -4.023291  -1.002774  6.218627
N    -5.889678  -1.792174  5.116084
H    -0.558719  0.469493  4.066167
H    -1.768896  -0.112470  5.176401
H    -2.723024  1.239765  2.605521
H    -2.037892  2.213110  3.885412
H    -4.446155  2.192124  4.095407
H    -3.708333  1.487288  5.512343
H    -5.618227  0.359545  3.752491
H    -4.403873  -1.641696  6.919636
H    -3.787633  -0.117614  6.667926
H    -6.521730  -1.684818  4.318412
N    -1.712108  -2.660823  5.242979
C    -1.408181  -3.816930  6.081601
H    -2.451967  -2.011418  5.583382
H    -1.442106  -3.509837  7.131987
H    -0.408612  -4.193005  5.847995
H    -2.147300  -4.614402  5.924460
Ba    -0.141428  -4.157847  1.289887
