36
Energy: -246329.631687 eV PBE+vdW (tier 2 basis)
C    -1.114831  0.037680  -0.095277
C    -1.241892  -0.438418  1.321560
O    -0.672436  -1.492190  1.699186
H    -1.531701  -0.730640  -0.760880
H    -0.051709  0.138376  -0.348464
H    -1.621434  0.988442  -0.291434
N    -1.993985  0.314912  2.155129
C    -2.387750  0.017644  3.549135
C    -1.146057  0.052953  4.461242
O    -0.397393  -0.949545  4.585459
H    -2.423206  1.136545  1.741084
H    -3.033201  0.857765  3.832647
C    -3.237854  -1.262214  3.648186
C    -3.914320  -1.539245  5.007536
C    -3.164989  -2.470039  5.979940
N    -2.803565  -3.732776  5.318662
C    -1.543763  -4.149457  5.041922
N    -0.492233  -3.740963  5.884074
N    -1.141238  -4.844277  4.004261
H    -2.648022  -2.129237  3.324859
H    -4.023065  -1.144044  2.889301
H    -4.896898  -1.990641  4.806288
H    -4.140784  -0.602785  5.540008
H    -3.801447  -2.671769  6.852078
H    -2.251075  -1.988524  6.346436
H    -3.512092  -4.098190  4.686513
H    0.083307  -4.543751  6.139374
H    -0.762509  -3.227034  6.718806
H    -1.904716  -5.192429  3.419660
N    -0.880222  1.183684  5.120582
C    -1.602838  2.459538  5.092659
H    -0.036690  1.145272  5.690612
H    -1.070972  3.160449  5.742041
H    -2.624382  2.354648  5.478538
H    -1.624703  2.887666  4.082930
Ba    0.626708  -2.927056  3.309023
