36
Energy: -246327.885207 eV PBE+vdW (tier 2 basis)
C    -0.669397  0.483634  2.225977
C    -1.215257  -0.049116  3.512220
O    -0.539536  0.001195  4.582867
H    -1.413141  1.093670  1.700502
H    -0.388841  -0.341518  1.551584
H    0.224150  1.079895  2.430303
N    -2.442180  -0.624914  3.539422
C    -2.912789  -1.588527  2.522080
C    -1.779394  -2.628007  2.317670
O    -1.057323  -2.942155  3.333716
H    -2.779728  -0.804649  4.483032
H    -3.700674  -2.153446  3.047184
C    -3.560479  -0.998935  1.255522
C    -4.747551  -1.865216  0.773366
C    -5.079844  -1.766756  -0.740450
N    -4.755551  -2.969916  -1.508124
C    -3.484721  -3.500664  -1.597148
N    -2.441811  -2.528812  -1.528220
N    -3.116729  -4.724784  -1.700200
H    -2.813752  -0.877182  0.459363
H    -3.914915  0.010372  1.501206
H    -5.633152  -1.594312  1.365068
H    -4.555123  -2.926197  0.995519
H    -4.590488  -0.887991  -1.187895
H    -6.153082  -1.596881  -0.878912
H    -5.490656  -3.669570  -1.532348
H    -1.622445  -2.931074  -1.986064
H    -2.682295  -1.653297  -1.994516
H    -3.897452  -5.384988  -1.672185
N    -1.608805  -3.177557  1.139721
C    -0.692401  -4.284490  0.863515
H    -2.080951  -2.787394  0.287711
H    0.311260  -3.909391  0.619646
H    -1.093329  -4.833132  0.002225
H    -0.630218  -4.946431  1.732187
Ba    0.218856  -2.267842  5.290454
