36
Energy: -246328.235564 eV PBE+vdW (tier 2 basis)
C    0.303543  -1.671049  2.097273
C    -0.229204  -0.536659  2.909348
O    0.349611  0.593983  2.908839
H    0.305990  -1.377457  1.038223
H    -0.274619  -2.593930  2.209722
H    1.347465  -1.862868  2.378222
N    -1.337592  -0.725400  3.637840
C    -2.021715  0.345538  4.376972
C    -1.200458  0.776307  5.611671
O    -0.554228  1.876914  5.534977
H    -1.792731  -1.633507  3.588623
H    -2.011554  1.232783  3.724759
C    -3.473009  -0.007679  4.708001
C    -4.407887  -0.199300  3.508387
C    -5.856419  -0.514433  3.962665
N    -5.978890  -1.666560  4.849378
C    -5.588067  -1.634618  6.190315
N    -5.924609  -0.460185  6.856688
N    -4.930642  -2.547122  6.827656
H    -3.862769  0.790108  5.357240
H    -3.494594  -0.917010  5.320985
H    -4.429053  0.702678  2.875259
H    -4.054802  -1.022995  2.865266
H    -6.476268  -0.696838  3.075410
H    -6.279802  0.367775  4.458886
H    -5.810291  -2.565427  4.407631
H    -5.810542  -0.570161  7.861206
H    -6.838670  -0.079825  6.623694
H    -4.673852  -3.327508  6.216299
N    -1.146546  0.063986  6.727191
C    -1.712379  -1.251703  7.061200
H    -0.608161  0.515695  7.466676
H    -2.777998  -1.203431  7.326077
H    -1.156011  -1.637533  7.920463
H    -1.580692  -1.953534  6.231728
Ba    0.965806  2.753157  3.852582
