36
Energy: -246328.657665 eV PBE+vdW (tier 2 basis)
C    0.985710  0.263340  0.672847
C    0.563974  0.300181  2.100803
O    1.384829  0.692484  2.998428
H    1.401093  1.245204  0.409629
H    1.801411  -0.465604  0.562127
H    0.176998  0.015733  -0.026522
N    -0.668740  -0.087943  2.440188
C    -1.233934  0.036582  3.792023
C    -0.662786  -1.054642  4.726379
O    0.400551  -0.824471  5.380720
H    -1.362618  -0.285750  1.694002
H    -0.873351  0.986077  4.219244
C    -2.769021  0.077844  3.732732
C    -3.346218  1.225965  2.872019
C    -4.005498  0.745336  1.570216
N    -3.089067  0.005226  0.681818
C    -2.322740  0.629759  -0.339143
N    -2.063827  1.977343  -0.139284
N    -1.736426  0.006237  -1.295643
H    -3.131484  0.160693  4.765724
H    -3.154590  -0.880374  3.344965
H    -2.562773  1.963918  2.644733
H    -4.107916  1.763515  3.451673
H    -4.476151  1.596098  1.052431
H    -4.830275  0.063092  1.816108
H    -3.503194  -0.850824  0.321913
H    -1.621062  2.387883  -0.958259
H    -2.828710  2.550249  0.204382
H    -1.950274  -0.994226  -1.317899
N    -1.299418  -2.210535  4.823784
C    -0.878989  -3.337001  5.657168
H    -2.150804  -2.322795  4.280001
H    -1.769440  -3.855670  6.025492
H    -0.297222  -2.965240  6.504708
H    -0.270370  -4.041167  5.074854
Ba    2.444924  0.501538  5.123276
