36
Energy: -246329.647085 eV PBE+vdW (tier 2 basis)
C    0.476150  0.485789  1.405615
C    -0.034680  0.485697  2.811872
O    0.693876  0.844002  3.774383
H    0.234821  1.442970  0.916975
H    0.050914  -0.323739  0.801529
H    1.566838  0.397603  1.428960
N    -1.318983  0.111241  3.068942
C    -2.445502  0.429992  2.206616
C    -2.618863  1.978116  2.171272
O    -2.037064  2.719097  3.011045
H    -1.532132  0.048893  4.071564
H    -2.207118  0.115516  1.179839
C    -3.726333  -0.337200  2.640269
C    -3.967769  -0.485281  4.149022
C    -4.186695  0.821888  4.934556
N    -4.003558  0.657661  6.373260
C    -2.803310  0.396970  6.952343
N    -2.833060  -0.184288  8.173305
N    -1.667385  0.716652  6.325832
H    -3.658314  -1.346190  2.213122
H    -4.594844  0.136167  2.159853
H    -3.135299  -1.043854  4.603122
H    -4.845114  -1.133324  4.281799
H    -5.204658  1.201135  4.781142
H    -3.520041  1.618956  4.584316
H    -4.835061  0.489224  6.928218
H    -2.001464  -0.231084  8.747701
H    -3.680472  -0.577658  8.564969
H    -0.897400  0.224169  6.790717
N    -3.389556  2.480240  1.214223
C    -3.660608  3.910100  1.045456
H    -3.805223  1.839392  0.544078
H    -2.730554  4.455561  0.845870
H    -4.130148  4.319935  1.947230
H    -4.339158  4.036435  0.198060
Ba    -0.483903  2.711692  5.047662
