36
Energy: -246329.506094 eV PBE+vdW (tier 2 basis)
C    -0.401342  -0.139584  -0.192285
C    -0.628222  -0.641323  1.207721
O    -0.074742  -1.798014  1.496260
H    -1.058493  0.700618  -0.436762
H    -0.590391  -0.946791  -0.910650
H    0.650235  0.155408  -0.321932
N    -1.335395  0.074239  2.045204
C    -1.511301  -0.508496  3.382961
C    -2.298893  -1.828097  3.320831
O    -1.774102  -2.924929  3.688501
H    -0.937802  1.970887  1.648564
H    -0.527459  -0.788190  3.805137
C    -2.177083  0.468082  4.375274
C    -1.520876  1.858443  4.401954
C    -2.316790  2.868394  3.554017
N    -1.541009  4.028312  3.120280
C    -0.763944  4.025728  2.028791
N    -0.160074  5.163598  1.642491
N    -0.594885  2.900130  1.329022
H    -2.140264  0.007495  5.371661
H    -3.248160  0.575907  4.141509
H    -0.487867  1.793788  4.029837
H    -1.450658  2.226692  5.433495
H    -3.179458  3.247656  4.115730
H    -2.719146  2.381424  2.655337
H    -1.517545  4.847593  3.717391
H    0.521329  5.170989  0.894884
H    -0.422141  6.059545  2.033782
H    -0.144324  2.942156  0.423982
N    -3.544325  -1.775269  2.860829
C    -4.446493  -2.915586  2.736186
H    -3.872817  -0.871462  2.531320
H    -4.446329  -3.307516  1.709971
H    -5.463119  -2.599265  2.991616
H    -4.130836  -3.701148  3.427750
Ba    0.264888  -3.796988  2.632746
