36
Energy: -246329.337705 eV PBE+vdW (tier 2 basis)
C    0.511269  -0.409614  1.119447
C    0.285813  0.320127  2.404936
O    1.234315  0.625482  3.170493
H    -0.304007  -1.101860  0.879832
H    1.457377  -0.955671  1.186958
H    0.606456  0.309091  0.290129
N    -0.975459  0.709327  2.757917
C    -2.011118  1.127791  1.818290
C    -1.475628  2.334309  1.012674
O    -0.617624  3.090983  1.553861
H    -1.056951  1.048051  3.727547
H    -2.262588  0.290280  1.153136
C    -3.278932  1.603781  2.558462
C    -3.922228  0.609300  3.533611
C    -3.292543  0.526532  4.931249
N    -3.213034  1.818679  5.626180
C    -2.080112  2.331526  6.174942
N    -2.237678  3.002598  7.340642
N    -0.890708  2.196002  5.573931
H    -4.015892  1.873075  1.790454
H    -3.047080  2.541115  3.090866
H    -3.940471  -0.405026  3.107853
H    -4.976930  0.899133  3.648502
H    -2.285193  0.097471  4.918760
H    -3.900703  -0.153677  5.545504
H    -4.084371  2.150260  6.030801
H    -1.500193  3.591331  7.705982
H    -3.041771  2.853453  7.939940
H    -0.181916  2.212987  6.318089
N    -1.940698  2.594383  -0.204180
C    -2.948328  1.872692  -0.982392
H    -1.575689  3.453387  -0.616017
H    -3.944331  2.310981  -0.836827
H    -2.975103  0.814504  -0.707024
H    -2.686218  1.942167  -2.042984
Ba    0.793701  3.101782  3.664833
