36
Energy: -246329.349831 eV PBE+vdW (tier 2 basis)
C    -1.684997  -1.113950  0.659588
C    -2.108374  -1.130481  2.093186
O    -2.201119  -2.241368  2.714691
H    -0.800216  -1.753433  0.550219
H    -1.456978  -0.114606  0.278311
H    -2.475495  -1.557252  0.037742
N    -2.389711  -0.011101  2.753581
C    -2.505751  1.379780  2.312338
C    -2.566168  2.190207  3.630801
O    -3.059552  1.655551  4.644078
H    -2.618316  -0.106323  3.748430
H    -1.607698  1.653667  1.740456
C    -3.754913  1.669177  1.432828
C    -5.142802  1.770374  2.094908
C    -5.817226  0.480299  2.577865
N    -5.203843  -0.025145  3.812711
C    -5.133715  -1.285476  4.248964
N    -5.681020  -2.340192  3.474489
N    -4.490248  -1.709162  5.321963
H    -3.781117  0.926485  0.620687
H    -3.563205  2.632391  0.938428
H    -5.816937  2.198924  1.340219
H    -5.133360  2.504483  2.915624
H    -5.746567  -0.275665  1.779561
H    -6.885147  0.678817  2.752086
H    -4.611701  0.651757  4.319626
H    -6.398117  -2.839250  4.003712
H    -6.073939  -2.057139  2.578263
H    -4.199594  -0.951291  5.944098
N    -2.128327  3.449876  3.578217
C    -2.179725  4.383813  4.702462
H    -1.696966  3.773846  2.717488
H    -2.705572  5.298203  4.404204
H    -1.164108  4.642175  5.025811
H    -2.711702  3.905875  5.528699
Ba    -3.229520  -3.746853  4.332953
