36
Energy: -246329.758806 eV PBE+vdW (tier 2 basis)
C    0.887900  -1.354569  2.536921
C    0.627048  0.125078  2.479434
O    1.581439  0.935552  2.440278
H    1.453317  -1.650675  1.643463
H    -0.018068  -1.966373  2.600284
H    1.524930  -1.569411  3.404750
N    -0.668982  0.503989  2.476905
C    -1.332335  1.827852  2.445587
C    -0.893156  2.721399  1.268135
O    0.252755  3.227230  1.175462
H    -1.325787  -0.269297  2.513832
H    -2.374210  1.551153  2.235693
C    -1.430407  2.592302  3.797347
C    -0.264973  3.434040  4.337092
C    0.849015  2.671174  5.080119
N    2.192731  3.075938  4.613063
C    2.619305  4.438512  4.694415
N    2.150070  5.197487  5.702559
N    3.388805  4.803919  3.707746
H    -1.750377  1.858631  4.553183
H    -2.289371  3.268178  3.671810
H    -0.702908  4.174462  5.018610
H    0.166725  4.030442  3.521067
H    0.790909  1.595061  4.882332
H    0.731054  2.782848  6.170753
H    2.922219  2.460551  4.977887
H    2.389786  6.181083  5.766735
H    1.739796  4.777327  6.528552
H    3.798318  5.734349  3.819822
N    -1.836200  2.982788  0.360928
C    -1.630865  3.864200  -0.787769
H    -2.744225  2.540556  0.458858
H    -2.600848  4.065697  -1.249870
H    -0.972801  3.391278  -1.527795
H    -1.182263  4.808852  -0.461120
Ba    2.719214  3.070157  1.767736
