36
Energy: -246327.399067 eV PBE+vdW (tier 2 basis)
C    -0.431424  0.337539  -0.179025
C    -0.051106  0.301038  1.265918
O    1.088744  0.719433  1.640723
H    -1.419727  0.789589  -0.322396
H    -0.475774  -0.678294  -0.601355
H    0.317047  0.912266  -0.731412
N    -0.895930  -0.184827  2.206389
C    -1.710978  -1.400128  2.065115
C    -0.738642  -2.580552  1.783581
O    0.522447  -2.426019  1.888273
H    -0.571802  -0.002594  3.155090
H    -2.112868  -1.576773  3.074972
C    -2.921073  -1.286264  1.101813
C    -4.163377  -2.099026  1.494495
C    -4.823990  -1.666616  2.819628
N    -6.168975  -2.182484  2.916378
C    -7.206973  -1.557611  2.188759
N    -8.426747  -2.156086  2.411856
N    -7.104852  -0.546134  1.398518
H    -2.619010  -1.537806  0.076199
H    -3.210634  -0.225631  1.093729
H    -3.989390  -3.189653  1.527196
H    -4.899084  -1.961179  0.689807
H    -4.792898  -0.559474  2.893778
H    -4.266078  -2.051406  3.686268
H    -6.448398  -2.507717  3.837113
H    -9.180982  -1.766666  1.856076
H    -8.451030  -3.164768  2.512652
H    -6.201918  -0.072817  1.473427
N    -1.263785  -3.747407  1.460646
C    -0.497067  -4.971008  1.216019
H    -2.279160  -3.793681  1.379069
H    0.139769  -4.856224  0.330542
H    -1.200813  -5.789353  1.044212
H    0.126288  -5.210832  2.085142
Ba    2.607118  -1.129753  2.210332
