36
Energy: -246328.199557 eV PBE+vdW (tier 2 basis)
C    0.307564  -1.329133  0.601037
C    0.121424  -0.381034  1.739784
O    1.121330  0.142163  2.323912
H    0.853543  -0.816130  -0.202797
H    -0.635634  -1.715600  0.201485
H    0.933182  -2.170981  0.926146
N    -1.122209  -0.081638  2.136538
C    -1.419316  0.916538  3.168940
C    -0.965209  0.435778  4.565934
O    0.065391  1.014262  5.065844
H    -1.905761  -0.489217  1.631572
H    -0.734477  1.754845  2.980720
C    -2.863550  1.490652  3.090593
C    -3.922105  0.689943  2.326656
C    -5.335150  1.323449  2.444592
N    -5.683243  1.753842  3.784425
C    -5.760083  0.885489  4.861520
N    -5.811680  1.501255  6.094164
N    -5.662977  -0.408004  4.808585
H    -2.785761  2.487869  2.636794
H    -3.219214  1.661038  4.115830
H    -3.967127  -0.345579  2.688827
H    -3.693173  0.653202  1.249181
H    -6.065136  0.606782  2.030663
H    -5.385186  2.216027  1.808199
H    -6.124681  2.662207  3.867765
H    -6.218005  0.933567  6.829902
H    -6.036471  2.487536  6.145395
H    -5.781031  -0.750631  3.853228
N    -1.563190  -0.526079  5.246774
C    -2.688111  -1.392878  4.893172
H    -1.168093  -0.666483  6.176760
H    -2.621015  -2.289902  5.516248
H    -2.614667  -1.703504  3.846001
H    -3.675668  -0.916744  5.072812
Ba    2.299273  1.235105  4.159941
