36
Energy: -246329.238089 eV PBE+vdW (tier 2 basis)
C    -1.401238  -0.116928  0.451769
C    -0.910077  -0.194906  1.869476
O    0.391303  -0.184164  2.028993
H    -1.006025  -0.963065  -0.126280
H    -1.019354  0.797881  -0.021118
H    -2.493097  -0.115625  0.391233
N    -1.788805  -0.267672  2.833903
C    -1.367909  -0.415640  4.237152
C    -0.345439  0.636712  4.685573
O    0.882307  0.366148  4.870388
H    -3.338793  -0.868761  2.692653
H    -2.271039  -0.209391  4.831826
C    -0.932416  -1.854244  4.573680
C    -1.900531  -2.932843  4.065522
C    -3.209374  -3.145616  4.828430
N    -4.192060  -2.029247  4.918415
C    -4.931713  -1.534768  3.891035
N    -6.245696  -1.328597  4.094581
N    -4.357908  -1.221368  2.733183
H    -0.785295  -1.942758  5.660745
H    0.048157  -2.058100  4.116949
H    -1.388775  -3.904632  4.131515
H    -2.101134  -2.786651  2.996305
H    -2.982535  -3.388114  5.874552
H    -3.716627  -4.023196  4.399534
H    -4.680049  -2.009207  5.809125
H    -6.790075  -0.747668  3.467340
H    -6.754400  -1.833915  4.810623
H    -4.962423  -0.997962  1.949240
N    -0.779057  1.879300  4.895544
C    -2.142148  2.389202  4.749977
H    -0.073101  2.526352  5.242317
H    -2.633284  1.915389  3.894359
H    -2.089175  3.466324  4.563498
H    -2.727817  2.224457  5.664691
Ba    2.450659  -0.238297  3.088060
