36
Energy: -246327.941485 eV PBE+vdW (tier 2 basis)
C    -0.699908  0.941447  -0.181852
C    -0.864283  0.240824  1.128679
O    -0.085714  -0.703018  1.466239
H    -0.000015  1.785961  -0.076721
H    -1.645841  1.330300  -0.573269
H    -0.260939  0.241609  -0.901039
N    -1.835890  0.629536  1.983943
C    -2.152810  2.033625  2.251764
C    -0.890878  2.707694  2.846777
O    0.101410  1.984534  3.221081
H    -1.950734  0.014757  2.790305
H    -2.407567  2.533188  1.304913
C    -3.340048  2.155832  3.216035
C    -4.691601  1.681944  2.653195
C    -5.882695  2.419292  3.305749
N    -6.017065  3.798206  2.869803
C    -5.309324  4.871239  3.376075
N    -5.313218  5.994593  2.567039
N    -4.581115  4.897483  4.452336
H    -3.423876  3.212175  3.500411
H    -3.099127  1.622987  4.151862
H    -4.816495  0.597419  2.790784
H    -4.733852  1.865741  1.568298
H    -5.815209  2.371380  4.403984
H    -6.812136  1.898869  3.044089
H    -6.671355  3.971694  2.116255
H    -5.164318  6.858548  3.079130
H    -6.022423  6.068944  1.846001
H    -4.734691  4.073565  5.036680
N    -0.844771  4.020455  2.979725
C    -1.850430  5.030580  2.624756
H    -0.004587  4.367505  3.442501
H    -2.400484  4.734942  1.725287
H    -1.323744  5.966543  2.416434
H    -2.572653  5.181009  3.449792
Ba    1.471174  -0.037554  3.270322
