36
Energy: -246328.828993 eV PBE+vdW (tier 2 basis)
C    0.194394  1.033034  1.011696
C    -0.165726  -0.043803  1.988428
O    0.705043  -0.864946  2.402961
H    -0.113703  2.016640  1.386600
H    -0.321716  0.873520  0.052347
H    1.274364  1.027542  0.843878
N    -1.443071  -0.152854  2.424031
C    -2.620872  -0.042493  1.532269
C    -2.351745  -0.862546  0.241111
O    -1.555181  -1.907265  0.395298
H    -1.543904  -0.833515  3.174033
H    -3.404282  -0.594303  2.076538
C    -3.134072  1.389293  1.314112
C    -4.650714  1.413568  1.085725
C    -5.208147  2.755587  0.614569
N    -4.573298  3.355885  -0.582665
C    -4.573964  2.861739  -1.837092
N    -4.647379  3.727355  -2.865344
N    -4.482983  1.550814  -2.067824
H    -2.612531  1.847012  0.462365
H    -2.883023  1.985091  2.202996
H    -5.170851  1.180912  2.027705
H    -4.943466  0.621655  0.384835
H    -5.079347  3.509941  1.400778
H    -6.288889  2.656691  0.434660
H    -4.429762  4.358726  -0.524994
H    -4.393946  3.449167  -3.805731
H    -5.032203  4.656862  -2.746365
H    -4.662397  1.223159  -3.010275
N    -2.922104  -0.498888  -0.855438
C    -2.735989  -1.331137  -2.039998
H    -3.966068  0.884438  -1.435661
H    -3.666453  -1.348274  -2.622919
H    -2.460399  -2.367151  -1.803820
H    -1.952759  -0.904097  -2.685574
Ba    0.275234  -3.066877  1.263577
