36
Energy: -246328.517161 eV PBE+vdW (tier 2 basis)
C    -2.756520  -0.207137  0.522118
C    -1.936464  -0.091563  1.768393
O    -0.748128  0.372280  1.716803
H    -3.443827  -1.064736  0.550826
H    -2.092071  -0.297179  -0.342876
H    -3.351508  0.709651  0.392169
N    -2.498706  -0.467799  2.917123
C    -1.868231  -0.617661  4.239452
C    -1.403552  0.724869  4.821466
O    -0.274201  1.220874  4.520633
H    -3.417070  -0.979684  2.870292
H    -2.696810  -0.964266  4.868694
C    -0.769079  -1.700888  4.302620
C    -1.146671  -3.011460  3.596528
C    -2.412494  -3.746768  4.126703
N    -3.304438  -4.224902  3.069769
C    -4.052579  -3.362531  2.280841
N    -4.672605  -2.293117  3.001101
N    -4.258511  -3.395574  1.017471
H    -0.543678  -1.877135  5.365684
H    0.165202  -1.324460  3.858322
H    -0.281303  -3.684731  3.657517
H    -1.290762  -2.811949  2.524712
H    -2.989680  -3.107255  4.808091
H    -2.121433  -4.616509  4.727325
H    -2.935062  -5.012480  2.543236
H    -5.441354  -1.951127  2.420883
H    -5.052991  -2.602800  3.897211
H    -3.728858  -4.130804  0.542003
N    -2.198240  1.366084  5.670357
C    -3.533711  0.985318  6.143057
H    -1.807503  2.230796  6.043686
H    -3.956616  1.840404  6.677835
H    -3.483632  0.137950  6.838783
H    -4.196754  0.748687  5.303466
Ba    1.190038  1.451306  2.582642
