36
Energy: -246329.478906 eV PBE+vdW (tier 2 basis)
C    -0.563532  -1.942277  1.143797
C    -1.511910  -1.928979  2.299242
O    -1.503289  -2.887656  3.140790
H    0.426649  -2.241842  1.507923
H    -0.484119  -0.979928  0.629774
H    -0.880464  -2.703511  0.416610
N    -2.374014  -0.933897  2.486253
C    -2.723534  0.226740  1.670082
C    -3.588716  1.104606  2.613867
O    -4.195224  0.567069  3.562990
H    -2.942811  -0.960861  3.337921
H    -1.806825  0.770784  1.398760
C    -3.485532  -0.126834  0.364405
C    -4.955916  -0.577155  0.437307
C    -5.278046  -1.941204  1.063303
N    -5.320397  -1.873475  2.525278
C    -4.988889  -2.862387  3.359153
N    -4.724937  -2.500781  4.711510
N    -4.764096  -4.130119  3.090132
H    -2.895385  -0.881036  -0.177525
H    -3.453128  0.771873  -0.268675
H    -5.314795  -0.619298  -0.600290
H    -5.577644  0.196397  0.916621
H    -4.529193  -2.693650  0.767371
H    -6.252597  -2.286786  0.688397
H    -5.410951  -0.939207  2.931204
H    -5.406941  -2.919657  5.347058
H    -4.696736  -1.490336  4.870798
H    -5.072422  -4.413997  2.159089
N    -3.664931  2.401485  2.308177
C    -4.476147  3.373965  3.039246
H    -3.097498  2.748439  1.540200
H    -5.195607  3.848975  2.361763
H    -3.832140  4.145622  3.477523
H    -5.011173  2.853013  3.836833
Ba    -2.628776  -4.557956  4.504944
