36
Energy: -246328.281127 eV PBE+vdW (tier 2 basis)
C    -0.441144  -1.201554  0.552178
C    -0.463967  -0.905694  2.015043
O    0.588052  -1.009566  2.719017
H    0.553103  -1.009715  0.137431
H    -1.206287  -0.669820  -0.026900
H    -0.633551  -2.281212  0.437229
N    -1.618956  -0.539245  2.621346
C    -2.539364  0.442351  2.050516
C    -1.789825  1.792490  1.909196
O    -0.656840  1.973864  2.478896
H    -1.556491  -0.519727  3.640150
H    -2.799492  0.123477  1.032330
C    -3.812787  0.569045  2.914939
C    -4.860218  -0.541885  2.734894
C    -5.797278  -0.391108  1.519358
N    -5.179173  -0.625827  0.215816
C    -4.428021  0.257449  -0.522578
N    -4.687935  1.637777  -0.298870
N    -3.488612  -0.019897  -1.363163
H    -4.276984  1.542743  2.707294
H    -3.500801  0.615957  3.971692
H    -5.497547  -0.547258  3.631394
H    -4.376289  -1.531074  2.708533
H    -6.271353  0.600689  1.532907
H    -6.620432  -1.110326  1.620147
H    -4.992747  -1.599981  -0.001067
H    -4.459091  2.128667  -1.165297
H    -5.657818  1.834548  -0.051545
H    -3.354712  -1.029139  -1.474085
N    -2.383576  2.699813  1.168899
C    -1.877774  4.042478  0.904288
H    -3.271424  2.402429  0.695468
H    -2.722470  4.738148  0.863410
H    -1.351736  4.070327  -0.059477
H    -1.195713  4.351666  1.700791
Ba    1.440579  1.193046  3.447351
