36
Energy: -246329.196567 eV PBE+vdW (tier 2 basis)
C    -1.182878  0.176052  -0.315992
C    -0.910604  -0.730128  0.848350
O    0.019336  -1.609101  0.769734
H    -1.489947  -0.433614  -1.176843
H    -0.265734  0.709823  -0.599138
H    -1.968754  0.909715  -0.111002
N    -1.655822  -0.584657  1.926564
C    -1.675425  -1.345534  3.172582
C    -2.827696  -0.649076  3.968648
O    -3.251877  0.436245  3.561707
H    -2.350860  0.185153  1.999136
H    -1.959463  -2.386753  2.952720
C    -0.337017  -1.352773  3.946276
C    0.327171  0.016906  4.095475
C    1.633159  -0.005571  4.909320
N    2.554936  -1.103227  4.564692
C    3.053266  -1.355195  3.343956
N    3.612286  -2.641110  3.116620
N    2.990597  -0.603488  2.271030
H    0.342475  -2.049247  3.434239
H    -0.526534  -1.791602  4.937497
H    -0.346663  0.721527  4.604312
H    0.503173  0.451365  3.101503
H    1.409701  -0.141378  5.974162
H    2.151802  0.961128  4.823618
H    2.865207  -1.692092  5.330557
H    4.601344  -2.585939  2.866549
H    3.490821  -3.307637  3.878801
H    2.713199  0.359653  2.464120
N    -3.265129  -1.282877  5.068494
C    -4.342418  -0.765301  5.912007
H    -2.921983  -2.217556  5.263423
H    -4.056760  -0.838126  6.967266
H    -5.268865  -1.330084  5.747862
H    -4.513085  0.282189  5.649998
Ba    2.293068  -2.305876  0.424201
