36
Energy: -246329.734453 eV PBE+vdW (tier 2 basis)
C    0.197752  -0.587758  0.249973
C    0.052557  -0.230363  1.695871
O    1.047735  0.085736  2.396197
H    -0.753676  -0.812872  -0.243173
H    0.862080  -1.457659  0.160093
H    0.687671  0.243174  -0.274536
N    -1.187513  -0.253795  2.234176
C    -1.458744  0.145126  3.616523
C    -1.050338  -0.969067  4.610241
O    0.050767  -0.829578  5.212419
H    -1.966650  -0.503759  1.631846
H    -0.726802  0.927645  3.833132
C    -2.858630  0.770409  3.778411
C    -2.897468  2.247239  3.336517
C    -2.552656  3.281054  4.432854
N    -1.359380  2.989159  5.234487
C    -0.066600  3.005997  4.826981
N    0.202063  3.444101  3.555651
N    0.946639  2.531072  5.538116
H    -3.171184  0.676961  4.829285
H    -3.597070  0.196501  3.201723
H    -3.909717  2.495761  2.989680
H    -2.248806  2.378638  2.456775
H    -3.380883  3.344671  5.149200
H    -2.472503  4.285599  3.989747
H    -1.518335  2.588627  6.151520
H    1.126756  3.845082  3.437344
H    -0.521002  3.949363  3.054904
H    0.672701  2.401266  6.516547
N    -1.800005  -2.049262  4.821859
C    -3.083464  -2.428443  4.230315
H    -1.404925  -2.693518  5.506102
H    -3.110625  -2.201045  3.159859
H    -3.923623  -1.936558  4.736112
H    -3.200366  -3.510632  4.340516
Ba    2.208737  0.408336  4.613450
