36
Energy: -246328.523963 eV PBE+vdW (tier 2 basis)
C    -2.047850  -1.935296  0.520340
C    -1.458480  -1.427380  1.800745
O    -0.415291  -0.699947  1.770210
H    -1.281838  -2.514869  -0.013052
H    -2.312243  -1.088571  -0.126550
H    -2.934340  -2.559352  0.671711
N    -2.068792  -1.771013  2.936628
C    -1.615455  -1.648129  4.334801
C    -1.638992  -0.223629  4.888656
O    -1.072235  0.740402  4.271750
H    -2.844689  -2.441078  2.838788
H    -2.373791  -2.212006  4.887186
C    -0.241631  -2.299535  4.643290
C    0.114766  -3.613699  3.917497
C    -0.978274  -4.701675  3.734781
N    -1.979734  -4.774012  4.786247
C    -3.272377  -4.312931  4.709497
N    -3.830170  -4.306344  3.409069
N    -3.833414  -3.837005  5.772047
H    -0.235205  -2.460949  5.730968
H    0.570971  -1.583905  4.444695
H    0.956277  -4.044282  4.478059
H    0.517065  -3.389069  2.918642
H    -0.475122  -5.673700  3.634936
H    -1.504100  -4.537843  2.788181
H    -1.663674  -4.886392  5.745016
H    -4.834870  -4.142017  3.433620
H    -3.634376  -5.147580  2.864346
H    -4.842850  -3.711553  5.661632
N    -2.194562  0.007986  6.068420
C    -2.852092  -0.890667  7.022568
H    -2.098521  0.977984  6.373492
H    -3.796994  -0.432852  7.337108
H    -2.210995  -1.011740  7.905354
H    -3.066091  -1.879563  6.594110
Ba    0.467593  1.394889  2.538583
