36
Energy: -246328.918538 eV PBE+vdW (tier 2 basis)
C    -2.593477  0.315570  0.483110
C    -1.919146  0.039665  1.795973
O    -0.607109  -0.024047  1.774419
H    -2.318990  -0.457736  -0.247230
H    -2.237829  1.273310  0.079230
H    -3.681629  0.354815  0.582222
N    -2.662973  -0.122074  2.857540
C    -2.050907  -0.458567  4.158197
C    -1.011223  0.594162  4.587539
O    0.239640  0.379444  4.557343
H    -4.229593  -0.997880  2.864379
H    -2.866638  -0.353149  4.890067
C    -1.520092  -1.914109  4.261482
C    -2.056627  -2.755549  5.440352
C    -3.395943  -3.499390  5.263796
N    -4.617872  -2.692660  5.425579
C    -5.085711  -1.808138  4.533931
N    -5.909437  -0.820301  4.927860
N    -4.735078  -1.850639  3.235940
H    -0.426033  -1.880251  4.365144
H    -1.721392  -2.427691  3.310849
H    -2.094822  -2.148884  6.358789
H    -1.320296  -3.546040  5.646488
H    -3.465962  -4.282761  6.027367
H    -3.424052  -4.031409  4.301130
H    -5.100212  -2.769403  6.315906
H    -6.517398  -0.391835  4.238247
H    -6.143991  -0.682793  5.903954
H    -4.278382  -2.708501  2.941579
N    -1.459699  1.781617  4.993597
C    -2.847034  2.234030  5.091151
H    -0.735344  2.431259  5.294397
H    -3.279970  1.977966  6.067992
H    -3.442446  1.799115  4.282336
H    -2.863123  3.323106  4.982692
Ba    1.571668  -0.053023  2.527383
