36
Energy: -246329.017825 eV PBE+vdW (tier 2 basis)
C    -1.440323  1.313391  -0.407738
C    -1.212096  1.289451  1.077761
O    -0.843274  2.247931  1.735474
H    -2.373916  1.857467  -0.609447
H    -1.509976  0.316571  -0.858899
H    -0.631828  1.877893  -0.885147
N    -1.435549  0.049441  1.714517
C    -1.476185  0.039971  3.162992
C    -0.338324  -0.763606  3.781868
O    -0.320773  -0.966965  5.040759
H    -1.953122  -0.654908  1.196542
H    -1.216222  1.092100  3.415477
C    -2.874183  -0.233847  3.756186
C    -3.496253  -1.623371  3.540274
C    -3.060144  -2.758420  4.467378
N    -3.483841  -2.498747  5.889589
C    -3.258630  -3.603321  6.773341
N    -4.275380  -4.459148  6.971146
N    -2.077614  -3.630359  7.329614
H    -3.536201  0.516780  3.303868
H    -2.872403  0.024629  4.828278
H    -3.315835  -1.968739  2.510658
H    -4.591796  -1.525942  3.604001
H    -1.973377  -2.905771  4.465491
H    -3.512118  -3.698119  4.113040
H    -4.473919  -2.238692  5.890256
H    -4.202913  -5.219514  7.640316
H    -5.107194  -4.444991  6.391648
H    -1.889353  -4.475050  7.873674
N    0.632708  -1.161905  2.981751
C    1.872436  -1.815057  3.381466
H    0.497117  -0.906111  2.001567
H    2.715868  -1.121693  3.270270
H    2.047706  -2.691336  2.747382
H    1.797913  -2.128932  4.425491
Ba    -1.248072  -1.148991  7.252871
