36
Energy: -246329.248466 eV PBE+vdW (tier 2 basis)
C    -1.537360  0.835490  -1.124293
C    -0.755023  1.116236  0.134608
O    0.483520  0.774156  0.154349
H    -1.616348  1.752345  -1.726626
H    -2.558069  0.483268  -0.931993
H    -1.002735  0.093919  -1.724833
N    -1.239486  1.646923  1.273355
C    -2.682981  1.659113  1.535815
C    -3.150710  0.185704  1.702148
O    -2.296848  -0.673399  2.060999
H    -0.515266  3.435571  0.977998
H    -2.774831  2.028084  2.574999
C    -3.532733  2.624827  0.664864
C    -3.924879  3.918182  1.391710
C    -2.765666  4.850975  1.763748
N    -2.123488  5.479355  0.601304
C    -0.845900  5.346240  0.213102
N    -0.318152  6.266842  -0.611864
N    -0.099589  4.318632  0.631736
H    -4.451209  2.145570  0.296661
H    -2.974227  2.869335  -0.247566
H    -4.460553  3.678859  2.323623
H    -4.644489  4.476703  0.774502
H    -1.988466  4.334006  2.340672
H    -3.141869  5.658567  2.407182
H    -2.663819  6.193741  0.122170
H    0.555177  6.100702  -1.096532
H    -0.743662  7.178328  -0.730742
H    0.893337  4.314769  0.432869
N    -4.435187  -0.119501  1.549330
C    -5.017376  -1.438182  1.797760
H    -5.068627  0.622609  1.269752
H    -5.677845  -1.401291  2.673007
H    -4.210548  -2.151292  1.980685
H    -5.597292  -1.755420  0.923719
Ba    0.208681  -0.301237  2.376444
