36
Energy: -246328.823815 eV PBE+vdW (tier 2 basis)
C    0.184253  -0.072328  0.398539
C    0.083381  -0.083972  1.892753
O    1.113577  -0.238242  2.611910
H    0.296358  0.962386  0.037288
H    -0.700850  -0.501797  -0.083452
H    1.075945  -0.631708  0.099062
N    -1.122912  0.096234  2.480575
C    -2.073099  1.114797  2.015848
C    -1.402459  2.519278  2.059912
O    -0.276282  2.621357  2.739004
H    -1.090173  -0.004225  3.495492
H    -2.289897  0.913378  0.958086
C    -3.375557  1.016692  2.836325
C    -4.379308  -0.025393  2.296308
C    -5.552693  0.588087  1.513133
N    -5.084408  1.569117  0.525065
C    -5.439564  2.868775  0.464802
N    -6.704543  3.224629  0.737332
N    -4.501154  3.759236  0.139128
H    -3.833579  2.013468  2.866361
H    -3.113572  0.786396  3.879921
H    -4.815920  -0.606332  3.119130
H    -3.855192  -0.761742  1.667377
H    -6.225332  1.116027  2.201969
H    -6.135251  -0.203549  1.022268
H    -4.242468  1.343895  0.006421
H    -6.953148  4.196433  0.877628
H    -7.463362  2.559384  0.643933
H    -4.771751  4.693063  -0.149436
N    -1.984126  3.462313  1.403745
C    -1.374117  4.790138  1.437926
H    -3.518125  3.591931  0.496834
H    -1.984537  5.489273  0.855207
H    -0.363969  4.784499  1.000056
H    -1.293234  5.178957  2.463939
Ba    1.771737  1.953642  3.649009
