36
Energy: -246329.209504 eV PBE+vdW (tier 2 basis)
C    -0.133827  -1.011904  -0.201995
C    -0.156694  -0.318661  1.121946
O    0.939946  -0.004034  1.693408
H    0.563735  -0.477950  -0.859634
H    -1.112839  -1.070991  -0.685923
H    0.263483  -2.029300  -0.079457
N    -1.294741  -0.005288  1.733686
C    -2.687957  -0.326301  1.434905
C    -3.479978  0.554061  2.432972
O    -2.899278  0.971508  3.456468
H    -1.230287  0.554811  2.591431
H    -2.917106  -0.019856  0.404958
C    -3.017699  -1.842562  1.587698
C    -3.545205  -2.389569  2.928247
C    -2.756583  -2.146910  4.225853
N    -1.318048  -2.418927  4.113166
C    -0.294283  -1.660599  4.546517
N    -0.508649  -0.295054  4.859254
N    0.967100  -2.028873  4.630676
H    -2.117865  -2.398529  1.290156
H    -3.772524  -2.093068  0.830258
H    -3.670302  -3.473579  2.785958
H    -4.560914  -2.011496  3.117801
H    -2.886258  -1.116871  4.566557
H    -3.175318  -2.792478  5.012161
H    -1.064901  -3.361462  3.824847
H    -0.363210  -0.119289  5.854618
H    -1.413776  0.098470  4.567652
H    1.112616  -3.036976  4.547246
N    -4.768085  0.809274  2.182810
C    -5.579160  0.381991  1.044504
H    -5.228147  1.359691  2.905942
H    -6.414187  1.080075  0.933264
H    -5.988433  -0.626652  1.192928
H    -5.001294  0.406758  0.113895
Ba    2.220480  0.073433  3.760058
