36
Energy: -246329.30013 eV PBE+vdW (tier 2 basis)
C    -1.557462  -0.735290  2.010271
C    -1.644048  0.184463  3.189459
O    -1.036122  -0.081901  4.263498
H    -0.714637  -0.446648  1.362712
H    -2.470129  -0.738398  1.403812
H    -1.355674  -1.747909  2.374344
N    -2.367489  1.328771  3.113693
C    -2.434581  2.152206  1.917988
C    -1.024988  2.764365  1.681156
O    -0.128936  2.655972  2.563262
H    -2.449281  1.821876  4.014203
H    -2.625580  1.480479  1.067643
C    -3.623273  3.162851  1.956040
C    -3.437716  4.638291  2.368531
C    -3.415210  5.032048  3.856787
N    -2.111924  4.877487  4.506729
C    -1.676793  3.895765  5.320831
N    -2.578731  2.907064  5.687323
N    -0.425826  3.740816  5.718377
H    -4.406382  2.693251  2.569650
H    -4.043753  3.182230  0.943252
H    -4.297342  5.173166  1.939109
H    -2.557256  5.080466  1.875909
H    -4.185972  4.488099  4.418925
H    -3.690498  6.091905  3.940265
H    -1.401015  5.541736  4.216613
H    -3.563849  3.158684  5.668439
H    -2.331211  2.462063  6.568248
H    0.125321  4.582934  5.526006
N    -0.765492  3.365824  0.520132
C    -1.636480  3.526477  -0.645993
H    0.180132  3.736788  0.441201
H    -2.275366  4.414308  -0.555523
H    -2.262145  2.639843  -0.796087
H    -1.004105  3.644159  -1.530949
Ba    0.787257  1.607680  4.758633
