36
Energy: -246327.431473 eV PBE+vdW (tier 2 basis)
C    0.625357  0.534793  0.498692
C    0.056565  -0.380521  1.533512
O    0.201650  -1.638634  1.428061
H    -0.172517  0.965124  -0.126588
H    1.302177  -0.032218  -0.146614
H    1.166226  1.371634  0.955880
N    -0.630267  0.098558  2.598214
C    -1.646289  1.159822  2.543770
C    -2.748693  0.706074  1.544300
O    -2.756184  -0.479345  1.076986
H    -0.815343  -0.619711  3.296706
H    -2.120576  1.135066  3.537592
C    -1.123385  2.596975  2.328308
C    0.006550  3.008006  3.278449
C    -0.377175  2.981281  4.779612
N    0.420772  3.838725  5.616821
C    0.276221  5.233156  5.547593
N    1.272056  5.905102  6.233039
N    -0.635865  5.894274  4.921079
H    -1.968736  3.282854  2.505727
H    -0.827318  2.748020  1.281730
H    0.290279  4.036401  3.014873
H    0.900058  2.386510  3.114516
H    -0.303746  1.959232  5.182845
H    -1.432290  3.286810  4.896538
H    1.357309  3.511213  5.832998
H    1.099747  6.904920  6.282411
H    1.566391  5.508242  7.120277
H    -1.253267  5.297015  4.368804
N    -3.690978  1.574196  1.223900
C    -4.834046  1.282732  0.354418
H    -3.620863  2.511547  1.611687
H    -5.463073  2.174918  0.302507
H    -5.422290  0.452674  0.762731
H    -4.492113  1.027289  -0.655588
Ba    -1.866565  -2.760541  0.708740
