36
Energy: -246329.436559 eV PBE+vdW (tier 2 basis)
C    -1.056866  -0.767234  3.804993
C    -0.342184  -0.471637  2.508264
O    0.772544  0.170784  2.575953
H    -0.863126  0.051209  4.506304
H    -0.650289  -1.682357  4.259624
H    -2.139360  -0.901648  3.691143
N    -0.737965  -0.861348  1.298340
C    -1.708287  -1.905082  1.077471
C    -0.918995  -3.159692  0.624484
O    0.272838  -3.033745  0.234941
H    -7.905948  0.831099  -0.391083
H    -2.267949  -2.168451  1.993035
C    -2.700104  -1.492364  -0.042260
C    -3.473005  -0.197531  0.248624
C    -4.592667  -0.355051  1.286685
N    -5.315268  0.894068  1.560995
C    -6.458275  1.297049  0.989785
N    -7.124640  2.341263  1.504318
N    -6.955638  0.665157  -0.082003
H    -3.398323  -2.315541  -0.256130
H    -2.115152  -1.339724  -0.960631
H    -3.901154  0.174547  -0.694877
H    -2.765230  0.573108  0.588924
H    -4.192416  -0.694458  2.251546
H    -5.326931  -1.114001  0.979651
H    -4.890589  1.536917  2.221794
H    -7.859546  2.805453  0.983937
H    -6.932851  2.684467  2.437690
H    -6.388798  0.041114  -0.640122
N    -1.488947  -4.368814  0.638019
C    -2.828446  -4.752346  1.068861
H    -0.887521  -5.111828  0.284777
H    -2.780420  -5.743265  1.532725
H    -3.525963  -4.799198  0.221365
H    -3.211882  -4.049446  1.815180
Ba    1.738024  -0.940854  0.578382
