36
Energy: -246328.902067 eV PBE+vdW (tier 2 basis)
C    -0.323772  -0.851468  0.613352
C    -0.634474  -0.940894  2.073259
O    -0.027251  -1.810216  2.787082
H    0.723890  -0.535731  0.505140
H    -0.958653  -0.152706  0.063355
H    -0.398585  -1.847493  0.159976
N    -1.513887  -0.144820  2.666435
C    -2.292865  0.992928  2.187601
C    -2.235612  1.968046  3.404267
O    -2.038916  1.464147  4.520993
H    -1.517694  -0.109679  3.704610
H    -1.831436  1.419982  1.289885
C    -3.780861  0.652788  1.938122
C    -4.133059  -0.461703  0.929734
C    -4.488030  -1.845006  1.508290
N    -3.368024  -2.793304  1.635298
C    -2.868280  -3.377338  2.740673
N    -3.031001  -2.749117  3.992734
N    -2.109013  -4.451895  2.779883
H    -4.254696  1.584601  1.600390
H    -4.249710  0.435529  2.911937
H    -3.357757  -0.572483  0.157423
H    -5.027581  -0.131573  0.384677
H    -5.224281  -2.327532  0.850907
H    -4.980758  -1.746949  2.484957
H    -3.081183  -3.230625  0.763099
H    -3.525688  -3.343763  4.658164
H    -3.446794  -1.819905  3.972040
H    -2.123755  -4.998005  1.916196
N    -2.446862  3.277780  3.214190
C    -2.710425  4.003545  1.976183
H    -2.456142  3.816684  4.078761
H    -2.219037  4.981151  2.024987
H    -3.786798  4.162078  1.822101
H    -2.299634  3.471225  1.112310
Ba    -0.162701  -3.671945  4.315619
