36
Energy: -246327.959749 eV PBE+vdW (tier 2 basis)
C    -0.834659  1.666233  -0.515978
C    -0.441019  0.765774  0.606317
O    0.781499  0.510751  0.841165
H    -0.191574  2.553709  -0.545500
H    -1.889273  1.959479  -0.502791
H    -0.642974  1.117173  -1.452158
N    -1.386405  0.198290  1.389939
C    -2.536373  0.939627  1.919162
C    -1.976346  2.144958  2.702584
O    -0.776845  2.108099  3.155024
H    -1.013624  -0.509776  2.024135
H    -3.161693  1.300489  1.084284
C    -3.367696  0.027716  2.856326
C    -3.840571  -1.318013  2.264703
C    -5.139864  -1.314829  1.435922
N    -5.087857  -0.534671  0.203668
C    -5.292472  0.831032  0.144390
N    -6.231786  1.329865  1.037720
N    -4.654104  1.670892  -0.617148
H    -4.231799  0.606417  3.209502
H    -2.753409  -0.179555  3.748385
H    -4.002521  -2.002729  3.110620
H    -3.037595  -1.777849  1.665935
H    -5.971014  -0.956442  2.055163
H    -5.383264  -2.353553  1.174576
H    -4.444584  -0.882988  -0.500203
H    -6.543295  2.256442  0.757754
H    -7.020416  0.717394  1.227835
H    -3.995395  1.182321  -1.230995
N    -2.727769  3.211156  2.907618
C    -4.073954  3.486983  2.391027
H    -2.302037  3.927620  3.494967
H    -4.227701  4.569309  2.424623
H    -4.164358  3.147511  1.350844
H    -4.838875  2.998988  3.005780
Ba    1.587139  1.497854  2.957728
