36
Energy: -246329.338937 eV PBE+vdW (tier 2 basis)
C    -0.134779  -0.475886  0.177615
C    -0.290341  -0.179614  1.642727
O    0.831110  0.052889  2.285121
H    0.381129  -1.437366  0.047417
H    0.498252  0.291262  -0.285986
H    -1.088215  -0.512718  -0.354031
N    -1.479429  -0.162205  2.195236
C    -1.494768  0.198735  3.623036
C    -0.875497  -0.905758  4.496689
O    0.208564  -0.674950  5.123095
H    -2.930634  -0.272691  0.968032
H    -0.800990  1.042265  3.771929
C    -2.883427  0.659264  4.184192
C    -4.087485  0.594133  3.242483
C    -4.043530  1.650439  2.125457
N    -4.962080  1.354112  1.024466
C    -4.753250  0.374342  0.133968
N    -5.663106  0.149677  -0.830922
N    -3.649304  -0.374894  0.211200
H    -2.766808  1.691795  4.542217
H    -3.122683  0.078138  5.085286
H    -5.001643  0.739138  3.835080
H    -4.173437  -0.406857  2.800978
H    -3.029925  1.744511  1.711963
H    -4.319207  2.638316  2.512835
H    -5.843948  1.851836  0.984997
H    -5.530810  -0.577837  -1.521159
H    -6.456129  0.764101  -0.964210
H    -3.490617  -1.088468  -0.488639
N    -1.438353  -2.107133  4.610464
C    -2.658543  -2.606723  3.984166
H    -0.955686  -2.734816  5.251375
H    -2.561619  -3.689039  3.851615
H    -2.784207  -2.145354  3.000810
H    -3.539260  -2.409339  4.609710
Ba    2.282153  0.158748  4.096352
