36
Energy: -246328.516137 eV PBE+vdW (tier 2 basis)
C    -0.426090  -1.289085  -0.180014
C    -0.632191  -0.741853  1.173858
O    0.360335  -0.355022  1.874238
H    -1.335761  -1.301519  -0.790189
H    -0.087122  -2.354965  -0.043603
H    0.373906  -0.749477  -0.696858
N    -1.885731  -0.684726  1.667369
C    -2.300085  -0.483692  3.070408
C    -2.129382  0.985082  3.502930
O    -0.993259  1.460942  3.799134
H    -2.607195  -1.033733  1.043691
H    -3.379081  -0.693427  3.068729
C    -1.630687  -1.451770  4.074444
C    -2.316685  -2.821514  4.231552
C    -2.511051  -3.669323  2.969828
N    -1.279552  -3.833376  2.222414
C    -1.187131  -4.394017  0.952033
N    -2.377250  -4.858371  0.423449
N    -0.039402  -4.312690  0.357856
H    -1.625115  -0.969831  5.063230
H    -0.580652  -1.592412  3.782313
H    -3.304636  -2.685395  4.696177
H    -1.728354  -3.395068  4.964120
H    -3.258238  -3.205634  2.304065
H    -2.953226  -4.630073  3.293846
H    -0.413929  -3.927950  2.742245
H    -2.305369  -5.293494  -0.490398
H    -3.023578  -5.343327  1.039863
H    -0.012076  -4.847205  -0.513313
N    -3.231806  1.718476  3.586253
C    -3.282408  3.118820  4.006064
H    -4.111657  1.281759  3.325397
H    -2.411039  3.342340  4.626780
H    -4.196505  3.282599  4.585574
H    -3.289141  3.781637  3.131046
Ba    1.400487  1.074193  3.450572
