36
Energy: -246329.046463 eV PBE+vdW (tier 2 basis)
C    2.658001  2.240063  2.933306
C    1.219545  2.145466  3.346411
O    0.714109  3.027544  4.101104
H    2.794303  3.167968  2.360675
H    3.295110  2.318009  3.823028
H    2.995009  1.395189  2.323384
N    0.503339  1.113657  2.878920
C    -0.947731  0.892655  3.021978
C    -1.275397  0.190381  4.364880
O    -1.048638  0.952378  5.413570
H    1.009812  0.438993  2.313908
H    -1.388581  1.896528  3.123987
C    -1.519218  0.277090  1.728662
C    -0.732515  -0.898709  1.125072
C    -1.479000  -1.710636  0.045234
N    -2.851985  -2.130233  0.383961
C    -3.273562  -2.471965  1.610006
N    -4.565918  -2.324855  1.942916
N    -2.429003  -2.923100  2.558791
H    -1.599233  1.077361  0.978476
H    -2.548248  -0.021748  1.964633
H    -0.372029  -1.561521  1.921962
H    0.166280  -0.530124  0.605296
H    -0.873463  -2.586502  -0.231858
H    -1.580795  -1.105241  -0.864505
H    -3.544317  -2.051846  -0.355018
H    -4.928447  -2.851139  2.729682
H    -5.227448  -1.839499  1.348737
H    -1.561496  -3.307269  2.195857
N    -1.752750  -1.007320  4.421171
C    -2.039803  -1.541751  5.754235
H    -2.246933  -2.233187  3.362683
H    -2.404145  -2.570889  5.660009
H    -2.808964  -0.947805  6.270417
H    -1.143651  -1.549805  6.391388
Ba    -0.409703  3.003596  6.287292
