36
Energy: -246329.233318 eV PBE+vdW (tier 2 basis)
C    -0.165507  -0.388464  -0.468777
C    0.009921  -0.228882  1.008612
O    1.192463  -0.213437  1.496878
H    0.236965  -1.360075  -0.785666
H    0.435703  0.380451  -0.971810
H    -1.202184  -0.308330  -0.805834
N    -1.022154  -0.095941  1.827683
C    -2.460204  -0.148746  1.570609
C    -3.069344  0.530798  2.827709
O    -2.367749  0.610746  3.848955
H    -0.856017  0.122268  2.824490
H    -2.693584  0.438882  0.672873
C    -2.976946  -1.600187  1.373472
C    -3.238180  -2.451409  2.628300
C    -2.095905  -2.652769  3.631082
N    -0.901972  -3.268597  3.039749
C    0.360686  -2.960810  3.382388
N    1.413729  -3.546020  2.618929
N    0.777081  -2.104704  4.282295
H    -2.271361  -2.112091  0.702308
H    -3.920672  -1.547343  0.813835
H    -4.069760  -2.019074  3.204405
H    -3.605639  -3.433211  2.291560
H    -2.454607  -3.281349  4.460085
H    -1.802714  -1.687950  4.062739
H    -1.047264  -4.111777  2.490011
H    1.940972  -4.222016  3.175646
H    1.112335  -3.994384  1.753583
H    0.046788  -1.783144  4.919645
N    -4.334948  0.971168  2.773858
C    -5.272970  0.943200  1.655354
H    -4.666812  1.365045  3.652382
H    -5.961309  1.788409  1.754958
H    -5.862935  0.016369  1.639994
H    -4.751866  1.055673  0.698250
Ba    2.815517  -0.973870  3.102571
