36
Energy: -246329.039822 eV PBE+vdW (tier 2 basis)
C    -0.589432  1.892244  -0.720244
C    -0.219770  1.272837  0.591891
O    0.910487  1.497734  1.120767
H    -1.122466  2.841323  -0.550668
H    -1.239603  1.245414  -1.319266
H    0.326392  2.115391  -1.276278
N    -1.110685  0.484924  1.231638
C    -2.540986  0.811855  1.309933
C    -2.696148  2.187420  2.026724
O    -1.631849  2.648170  2.656336
H    -0.730875  0.053990  2.074932
H    -2.925757  0.928607  0.287601
C    -3.277267  -0.373219  1.972997
C    -4.789091  -0.448579  1.695448
C    -5.671526  0.259304  2.738846
N    -7.035182  0.495143  2.263720
C    -7.374454  1.471656  1.406272
N    -8.641771  1.536242  0.956624
N    -6.467563  2.360479  0.997641
H    -3.080507  -0.378370  3.057855
H    -2.812878  -1.284266  1.570819
H    -5.087665  -1.504162  1.645612
H    -4.993742  -0.032890  0.698020
H    -5.237012  1.221004  3.037290
H    -5.753525  -0.346017  3.649665
H    -7.748614  -0.181048  2.510171
H    -8.951425  2.298185  0.367769
H    -9.354708  0.898020  1.285497
H    -6.757033  3.093137  0.361428
N    -3.833677  2.788509  1.944656
C    -3.970235  4.069275  2.637011
H    -5.461454  2.380788  1.318041
H    -5.021928  4.378393  2.625798
H    -3.385694  4.857698  2.137696
H    -3.636509  4.017802  3.684005
Ba    0.640113  3.032472  3.076803
