36
Energy: -246328.971944 eV PBE+vdW (tier 2 basis)
C    0.465288  1.150163  0.301109
C    -0.062626  0.125874  1.262572
O    0.709501  -0.347854  2.180112
H    0.818076  2.029797  0.857079
H    -0.285393  1.478090  -0.424787
H    1.316993  0.730743  -0.252661
N    -1.314696  -0.250769  1.132413
C    -2.071277  -1.250593  1.879766
C    -3.293504  -1.487352  0.934332
O    -3.475939  -0.681375  0.015180
H    -1.922191  0.097487  0.356009
H    -1.467141  -2.165100  1.972143
C    -2.504389  -0.748341  3.291654
C    -2.155076  -1.692545  4.466939
C    -1.446564  -0.997405  5.629886
N    -0.128317  -0.533056  5.195889
C    0.872087  -0.080724  5.987870
N    0.638139  0.036803  7.309448
N    2.056567  0.187366  5.422818
H    -3.582822  -0.546141  3.286276
H    -2.040581  0.237045  3.440819
H    -1.516013  -2.519983  4.121981
H    -3.063817  -2.159669  4.864514
H    -1.321490  -1.711502  6.457054
H    -2.059655  -0.155503  5.996909
H    -0.021889  -0.349170  4.200170
H    1.386275  0.269199  7.949908
H    -0.292555  -0.037439  7.700566
H    2.669696  0.665665  6.086634
N    -4.107212  -2.531094  1.163677
C    -4.019226  -3.557267  2.192796
H    -4.902472  -2.569456  0.529236
H    -2.975053  -3.791082  2.429372
H    -4.480372  -4.474743  1.813118
H    -4.543945  -3.264838  3.113339
Ba    2.935968  -0.567529  3.172210
