36
Energy: -246328.220484 eV PBE+vdW (tier 2 basis)
C    0.035387  0.159336  0.054726
C    -0.168328  -0.144271  1.505677
O    0.771851  -0.655056  2.186003
H    -0.823676  0.646039  -0.418317
H    0.243704  -0.783154  -0.471586
H    0.922006  0.794916  -0.065667
N    -1.365281  0.138359  2.041240
C    -1.910920  -0.197127  3.375324
C    -1.268840  0.619424  4.511259
O    -0.051665  0.454308  4.830543
H    -2.036703  0.549397  1.398627
H    -2.964269  0.107881  3.310774
C    -1.910788  -1.702496  3.707862
C    -2.591713  -1.973995  5.050671
C    -2.804417  -3.467333  5.369571
N    -3.370916  -3.673627  6.697947
C    -4.604893  -3.055964  6.999940
N    -5.635352  -3.475970  6.170757
N    -4.633199  -2.175671  7.937090
H    -0.883561  -2.101421  3.700675
H    -2.438235  -2.218572  2.891822
H    -3.578427  -1.483387  5.071815
H    -2.014567  -1.523645  5.875224
H    -1.852556  -4.018177  5.321565
H    -3.463559  -3.915528  4.613175
H    -2.720355  -3.421791  7.441094
H    -6.560474  -3.144170  6.423001
H    -5.625158  -4.462035  5.922512
H    -5.590324  -1.917734  8.197173
N    -2.060852  1.448840  5.172331
C    -1.688717  2.226876  6.353150
H    -3.032736  1.503743  4.878040
H    -2.190126  1.815124  7.238638
H    -2.000751  3.268035  6.214594
H    -0.606370  2.182230  6.488972
Ba    2.010096  -0.690851  4.248932
