36
Energy: -246327.463134 eV PBE+vdW (tier 2 basis)
C    -0.543158  0.340457  -0.593835
C    -0.488071  0.850933  0.805809
O    0.672776  1.265319  1.270907
H    -0.141049  1.099801  -1.277671
H    -1.557225  0.078798  -0.907377
H    0.094894  -0.549776  -0.683848
N    -1.517733  0.914696  1.593913
C    -2.936908  0.590417  1.411266
C    -3.555465  1.452043  2.566304
O    -2.776425  1.756564  3.503383
H    -1.484949  1.321386  2.583320
H    -3.290611  0.937732  0.432174
C    -3.154069  -0.933924  1.601417
C    -4.590168  -1.433653  1.412374
C    -5.090759  -1.478058  -0.054684
N    -6.497813  -1.131324  -0.189968
C    -6.932464  0.115943  0.199735
N    -8.183505  0.194759  0.725389
N    -6.193819  1.199927  0.140161
H    -2.809887  -1.190384  2.614180
H    -2.481094  -1.460085  0.904659
H    -5.274486  -0.812249  2.004508
H    -4.654870  -2.440722  1.846069
H    -4.958780  -2.480241  -0.479625
H    -4.491128  -0.811883  -0.696834
H    -7.163588  -1.896093  -0.184147
H    -8.640959  1.097399  0.716245
H    -8.759219  -0.623492  0.869133
H    -5.411894  1.045451  -0.500292
N    -4.825696  1.799912  2.475893
C    -5.477704  2.589479  3.515839
H    -5.385549  1.584343  1.595386
H    -5.580004  2.011090  4.443013
H    -6.470724  2.870533  3.154126
H    -4.901052  3.495961  3.737606
Ba    2.519163  2.110047  2.263012
