36
Energy: -246329.736854 eV PBE+vdW (tier 2 basis)
C    -0.575573  2.004693  0.172896
C    -0.390967  1.323024  1.492631
O    0.687931  1.413457  2.131856
H    -1.577291  1.875997  -0.250357
H    0.165428  1.615622  -0.538355
H    -0.369633  3.076407  0.292652
N    -1.425020  0.603079  1.984983
C    -1.375549  -0.055635  3.291975
C    -0.531825  -1.353610  3.222453
O    0.654646  -1.299292  3.651082
H    -2.281714  0.559605  1.440471
H    -0.756051  0.595305  3.913421
C    -2.760446  -0.167941  3.955863
C    -3.325870  1.150207  4.522302
C    -2.772360  1.654702  5.868669
N    -1.397516  2.160296  5.818807
C    -0.247077  1.474641  6.028776
N    -0.328089  0.211609  6.552799
N    0.953281  1.914049  5.671274
H    -2.693944  -0.920983  4.755570
H    -3.487042  -0.569809  3.235958
H    -4.406341  1.008528  4.669505
H    -3.238984  1.955247  3.774873
H    -2.855308  0.878501  6.642349
H    -3.405546  2.479278  6.221204
H    -1.282392  3.062934  5.369039
H    0.499192  -0.085816  7.058773
H    -1.192862  -0.071924  6.999131
H    0.918409  2.912899  5.446394
N    -1.001305  -2.490021  2.710111
C    -2.307222  -2.795585  2.124908
H    -0.327794  -3.254815  2.738868
H    -2.190933  -3.671716  1.479965
H    -2.666462  -1.971638  1.500233
H    -3.051301  -3.030501  2.896044
Ba    2.341788  0.580887  3.867044
