36
Energy: -246329.249489 eV PBE+vdW (tier 2 basis)
C    -0.830604  0.426019  1.704994
C    -0.341996  0.335706  3.133888
O    0.276727  1.365691  3.601328
H    -0.568067  1.407597  1.300906
H    -1.920299  0.307385  1.644119
H    -0.370618  -0.347443  1.073332
N    -0.434066  -0.721581  3.944036
C    -0.646426  -2.089549  3.485832
C    0.703094  -2.578019  2.893458
O    1.772948  -2.093957  3.346046
H    -7.191632  -3.724009  4.726542
H    -0.734942  -2.688593  4.412491
C    -1.924891  -2.416708  2.675018
C    -3.185976  -1.878388  3.367077
C    -4.475447  -2.007377  2.546805
N    -4.982788  -3.378649  2.378201
C    -5.943371  -3.957590  3.112205
N    -6.520594  -5.089249  2.679648
N    -6.332428  -3.427708  4.279001
H    -2.004787  -3.513599  2.585243
H    -1.863338  -2.010710  1.655134
H    -3.050116  -0.808859  3.582600
H    -3.308282  -2.365919  4.347983
H    -4.328058  -1.603128  1.535579
H    -5.278298  -1.405490  2.994028
H    -4.635242  -3.913958  1.590033
H    -7.105414  -5.647905  3.289803
H    -6.464886  -5.374143  1.709389
H    -5.809752  -2.686286  4.726025
N    0.721471  -3.523841  1.953817
C    1.958361  -4.082955  1.405290
H    -0.160587  -3.876288  1.602742
H    1.699331  -4.860493  0.681874
H    2.567941  -4.520018  2.204726
H    2.543775  -3.303365  0.903362
Ba    1.869984  0.005784  4.883082
