36
Energy: -246328.905114 eV PBE+vdW (tier 2 basis)
C    -1.722253  0.153127  0.545427
C    -0.819693  0.349475  1.724630
O    0.422274  0.119757  1.615624
H    -2.763856  0.431163  0.736727
H    -1.685323  -0.905360  0.251373
H    -1.345361  0.733754  -0.306064
N    -1.376580  0.760933  2.872848
C    -0.787128  0.903294  4.223430
C    0.179303  2.092069  4.335904
O    1.267320  2.124830  3.659587
H    -2.375074  0.938099  2.822145
H    -1.644967  1.165608  4.851265
C    -0.177282  -0.411430  4.768823
C    -1.224286  -1.444042  5.242040
C    -1.711642  -1.314471  6.702317
N    -2.383478  -0.056349  7.032729
C    -1.736496  1.132256  7.272265
N    -0.473376  1.039783  7.825350
N    -2.168554  2.322964  6.943042
H    0.492220  -0.151153  5.601062
H    0.445238  -0.866542  3.985339
H    -0.790802  -2.450339  5.146332
H    -2.092687  -1.437310  4.562981
H    -0.869919  -1.470367  7.389665
H    -2.416544  -2.129493  6.910952
H    -3.326472  0.044271  6.670856
H    -0.173477  1.917971  8.238816
H    -0.306851  0.250058  8.441454
H    -3.108755  2.302164  6.540383
N    -0.148133  3.036959  5.186205
C    0.695117  4.196424  5.459076
H    -0.997008  2.886221  5.826028
H    0.192106  4.811432  6.210409
H    0.842461  4.791178  4.549446
H    1.677173  3.887300  5.840953
Ba    2.629180  1.019552  2.041520
