36
Energy: -246328.623604 eV PBE+vdW (tier 2 basis)
C    1.975004  0.798083  1.388477
C    1.211135  0.523306  2.642186
O    1.815825  0.468188  3.768997
H    2.412258  1.804914  1.448429
H    1.350412  0.722015  0.492675
H    2.813157  0.093256  1.313199
N    -0.105676  0.341449  2.560301
C    -0.945052  0.130911  3.748586
C    -0.620237  -1.226532  4.405597
O    0.012895  -1.223379  5.512115
H    -0.558724  0.495290  1.610383
H    -0.633975  0.865594  4.508849
C    -2.444152  0.336931  3.467478
C    -2.881598  1.820198  3.347992
C    -3.876681  2.097390  2.200071
N    -3.232984  2.214548  0.876816
C    -2.503258  1.140776  0.378846
N    -3.204072  -0.038926  0.254557
N    -1.228450  1.150129  0.092109
H    -3.000276  -0.137594  4.288242
H    -2.724854  -0.211090  2.560313
H    -2.005120  2.472122  3.201466
H    -3.338183  2.139778  4.295060
H    -4.392961  3.047885  2.378915
H    -4.659678  1.327746  2.166927
H    -2.702341  3.080112  0.802119
H    -2.751894  -0.710763  -0.358295
H    -4.200559  0.055037  0.081952
H    -0.849403  2.092201  0.230283
N    -0.965648  -2.384199  3.856805
C    -1.654368  -2.659917  2.593795
H    -0.726190  -3.196089  4.425721
H    -1.321185  -3.638957  2.235125
H    -1.400180  -1.911800  1.838792
H    -2.741809  -2.688022  2.735551
Ba    2.156878  -0.173119  6.052983
