36
Energy: -246329.918065 eV PBE+vdW (tier 2 basis)
C    -0.242207  1.431137  0.982668
C    -0.936406  1.164864  2.281174
O    -0.722443  1.872925  3.297176
H    -0.530102  0.741063  0.182702
H    0.843304  1.370620  1.136276
H    -0.463540  2.459427  0.666979
N    -1.811951  0.135471  2.334016
C    -2.612941  -0.157153  3.524747
C    -1.756325  -0.889879  4.585841
O    -1.323017  -0.209615  5.555969
H    -1.980521  -0.394591  1.483734
H    -2.804129  0.816548  3.993614
C    -3.973630  -0.760638  3.153414
C    -4.940191  -1.007439  4.323250
C    -5.440036  0.238315  5.090330
N    -4.684788  0.549637  6.308230
C    -3.797821  1.549774  6.487306
N    -3.029066  1.516092  7.673293
N    -3.462808  2.509647  5.660724
H    -3.848264  -1.703391  2.604551
H    -4.442551  -0.061210  2.443435
H    -4.514318  -1.724967  5.041800
H    -5.822673  -1.506062  3.900387
H    -6.480522  0.078298  5.398743
H    -5.458245  1.123595  4.440346
H    -4.935176  0.006291  7.128769
H    -3.177455  2.346554  8.247476
H    -3.119833  0.671945  8.236122
H    -4.113455  2.636162  4.884451
N    -1.442307  -2.182446  4.487270
C    -1.776989  -3.161906  3.452975
H    -0.858457  -2.514609  5.253866
H    -1.698640  -2.728062  2.451111
H    -2.780345  -3.581263  3.600310
H    -1.052072  -3.979025  3.515453
Ba    -0.813982  2.302570  5.791179
