36
Energy: -246327.084373 eV PBE+vdW (tier 2 basis)
C    -0.903760  -1.268937  0.475925
C    -0.400135  -0.458757  1.622044
O    0.777866  -0.756292  2.124205
H    -0.126905  -1.336689  -0.296318
H    -1.814874  -0.857783  0.033004
H    -1.114263  -2.292560  0.818169
N    -1.063900  0.524732  2.155518
C    -2.356012  1.129271  1.814497
C    -2.212205  2.514375  2.527161
O    -1.291788  2.625847  3.365904
H    -0.670558  1.144706  2.924651
H    -2.430241  1.269151  0.726477
C    -3.541743  0.269120  2.322480
C    -4.881692  0.577237  1.626718
C    -5.860269  1.470130  2.416898
N    -6.927587  2.007659  1.575220
C    -6.607528  2.824077  0.488387
N    -5.639127  3.819931  0.812319
N    -7.067948  2.793172  -0.703133
H    -3.622648  0.376076  3.415043
H    -3.277849  -0.782273  2.142189
H    -5.388509  -0.370300  1.397094
H    -4.691452  1.048818  0.649251
H    -5.329884  2.299589  2.902950
H    -6.329541  0.897793  3.228035
H    -7.655544  1.334593  1.350355
H    -5.563174  4.433223  -0.001248
H    -5.953192  4.374856  1.612563
H    -7.674685  1.986151  -0.873897
N    -3.053676  3.487709  2.203550
C    -2.991766  4.794962  2.853799
H    -3.842770  3.351698  1.543039
H    -1.948473  5.092999  2.997638
H    -3.485924  4.776925  3.834947
H    -3.492056  5.525526  2.211042
Ba    2.822816  -1.130350  3.026399
