36
Energy: -246328.127868 eV PBE+vdW (tier 2 basis)
C    0.965265  0.767683  0.460003
C    0.456013  0.264567  1.773493
O    1.242228  -0.309678  2.583692
H    0.208792  1.289770  -0.134834
H    1.344120  -0.087609  -0.117427
H    1.816582  1.438985  0.631508
N    -0.845508  0.442023  2.049914
C    -1.638597  -0.080372  3.184803
C    -1.287094  0.619851  4.508912
O    -0.203494  0.363194  5.114793
H    -1.380562  0.915797  1.328114
H    -2.673080  0.190952  2.934617
C    -1.590438  -1.614105  3.333461
C    -2.115709  -2.396494  2.127516
C    -3.634515  -2.244850  1.880844
N    -4.161079  -3.397298  1.190392
C    -4.344490  -4.604700  1.892450
N    -4.848047  -5.604507  1.094039
N    -4.090774  -4.822106  3.139091
H    -2.184255  -1.870492  4.225493
H    -0.559794  -1.939894  3.543878
H    -1.919471  -3.459382  2.322660
H    -1.557157  -2.143450  1.214183
H    -3.847927  -1.365380  1.257165
H    -4.149433  -2.073783  2.850897
H    -4.857483  -3.209681  0.475751
H    -4.939934  -6.501069  1.559056
H    -4.544705  -5.649517  0.127867
H    -3.930326  -3.955836  3.657847
N    -2.185541  1.459430  5.004083
C    -2.069970  2.178666  6.272716
H    -3.031341  1.618329  4.462401
H    -1.882086  3.243535  6.085990
H    -1.245995  1.756852  6.852232
H    -3.005998  2.073127  6.832226
Ba    1.936683  -0.779731  4.847748
