36
Energy: -246328.097672 eV PBE+vdW (tier 2 basis)
C    -0.844626  -0.342292  -2.425987
C    0.002312  -0.228036  -1.197845
O    1.266350  -0.340549  -1.298817
H    -1.268485  -1.354435  -2.512808
H    -0.208998  -0.166052  -3.299541
H    -1.674099  0.371560  -2.423000
N    -0.524785  0.016759  0.024446
C    -1.669720  -0.661553  0.653229
C    -1.243594  -2.112161  0.967776
O    -0.220265  -2.638917  0.401229
H    0.197286  0.266648  0.700896
H    -1.803504  -0.165110  1.636860
C    -3.032344  -0.542649  -0.062635
C    -3.630599  0.876023  0.044776
C    -4.910285  0.986838  0.926594
N    -4.976499  0.045576  2.036376
C    -3.977173  -0.124128  2.954749
N    -3.968525  -1.394853  3.584545
N    -2.970342  0.651345  3.185703
H    -3.704685  -1.261228  0.424335
H    -2.964309  -0.875128  -1.103082
H    -3.900411  1.252095  -0.950733
H    -2.863045  1.567476  0.417207
H    -5.797107  0.785310  0.314454
H    -5.008642  2.026200  1.275709
H    -5.803097  -0.536755  2.094892
H    -3.543387  -1.321662  4.509285
H    -4.880313  -1.845326  3.654183
H    -3.090048  1.568180  2.749585
N    -1.943838  -2.764300  1.873395
C    -1.665749  -4.140758  2.276675
H    -2.697913  -2.269649  2.402623
H    -2.479717  -4.478183  2.924195
H    -0.722844  -4.204353  2.836062
H    -1.610401  -4.797109  1.400913
Ba    2.046346  -2.527490  -0.489780
