36
Energy: -246328.103695 eV PBE+vdW (tier 2 basis)
C    1.723608  1.380124  0.619710
C    0.628161  2.267896  1.114613
O    0.770277  3.530109  1.126167
H    1.919522  1.624121  -0.434344
H    1.487936  0.313828  0.698973
H    2.648821  1.588747  1.172135
N    -0.510618  1.699712  1.530331
C    -1.758841  2.402519  1.875184
C    -1.656989  2.964629  3.312467
O    -1.030237  4.054266  3.503363
H    -0.565153  0.684518  1.477977
H    -1.817490  3.289765  1.225122
C    -2.979566  1.510752  1.607084
C    -3.282312  1.195914  0.132388
C    -2.324564  0.202119  -0.578014
N    -2.933072  -0.554643  -1.640393
C    -3.865212  -1.564085  -1.345419
N    -4.526708  -2.020451  -2.469276
N    -4.146399  -2.051438  -0.185758
H    -3.855028  2.023681  2.031888
H    -2.876160  0.557277  2.158654
H    -3.350494  2.130580  -0.445471
H    -4.287198  0.752137  0.110852
H    -1.932827  -0.527693  0.156170
H    -1.453794  0.726053  -0.999407
H    -3.097759  -0.054156  -2.508781
H    -5.113739  -2.826278  -2.275624
H    -3.981097  -2.117580  -3.320005
H    -3.681108  -1.560585  0.579211
N    -2.220288  2.292178  4.300405
C    -2.216260  2.675623  5.711944
H    -2.724174  1.442538  4.054468
H    -3.246131  2.685834  6.086959
H    -1.778267  3.670418  5.814917
H    -1.632189  1.951157  6.293039
Ba    0.552144  5.563506  2.417506
