36
Energy: -246328.970196 eV PBE+vdW (tier 2 basis)
C    -1.757916  1.343212  -0.572809
C    -1.238221  -0.032975  -0.307406
O    -0.911112  -0.788619  -1.254591
H    -1.989011  1.911391  0.330302
H    -2.614103  1.320774  -1.257669
H    -0.951290  1.872443  -1.105013
N    -0.980386  -0.451449  0.982270
C    -1.988748  -0.686699  2.041537
C    -2.032831  -2.224894  2.192601
O    -2.132358  -2.950354  1.167388
H    -0.298981  -1.209883  0.953343
H    -1.653353  -0.229842  2.985341
C    -3.385963  -0.157055  1.652472
C    -4.596314  -0.659627  2.469634
C    -5.780616  -1.092045  1.582661
N    -5.520649  -2.336444  0.849537
C    -5.008212  -2.521634  -0.386967
N    -4.753639  -1.412537  -1.206586
N    -4.615875  -3.666562  -0.901088
H    -3.525798  -0.433407  0.600313
H    -3.362818  0.937934  1.683469
H    -4.949464  0.127575  3.148569
H    -4.331821  -1.509874  3.114952
H    -6.065405  -0.297593  0.878035
H    -6.668412  -1.261816  2.205207
H    -5.570296  -3.182121  1.410153
H    -5.114431  -0.518226  -0.883300
H    -5.062317  -1.590410  -2.161935
H    -4.912185  -4.476919  -0.352275
N    -1.953101  -2.711538  3.427886
C    -1.983870  -4.128926  3.783933
H    -1.824883  -2.044395  4.184895
H    -2.759807  -4.305420  4.537970
H    -1.013928  -4.433405  4.196184
H    -2.198648  -4.716522  2.888467
Ba    -2.068007  -3.113769  -1.414896
