36
Energy: -246329.380017 eV PBE+vdW (tier 2 basis)
C    0.340343  -1.426643  0.657481
C    0.150076  -0.729564  1.972625
O    1.229443  -0.242657  2.540435
H    0.734954  -0.721531  -0.087085
H    -0.590578  -1.866902  0.287647
H    1.087490  -2.224239  0.763518
N    -1.051343  -0.629119  2.487420
C    -1.125281  0.111301  3.746226
C    -0.323544  -0.544913  4.886848
O    0.554233  0.160538  5.485901
H    -2.448655  -0.601581  1.405945
H    -0.591883  1.072066  3.620112
C    -2.556558  0.542644  4.143890
C    -3.636673  -0.493275  4.479620
C    -4.208029  -1.321304  3.320631
N    -4.919399  -0.520183  2.320443
C    -4.504239  -0.271119  1.067803
N    -5.392697  0.212954  0.178467
N    -3.239806  -0.493269  0.710272
H    -2.912213  1.193802  3.329763
H    -2.451133  1.206926  5.014282
H    -3.290964  -1.189456  5.256009
H    -4.470875  0.050317  4.949280
H    -4.923300  -2.053846  3.719871
H    -3.433647  -1.889397  2.794737
H    -5.840747  -0.177570  2.573045
H    -5.091933  0.578539  -0.715743
H    -6.390421  0.137363  0.332657
H    -2.999086  -0.446342  -0.272331
N    -0.474972  -1.814975  5.262960
C    -1.262392  -2.894778  4.673448
H    0.105843  -2.067447  6.062115
H    -2.116053  -3.154453  5.311583
H    -0.623646  -3.780497  4.574203
H    -1.601621  -2.600680  3.678760
Ba    2.538909  0.807461  4.166615
