36
Energy: -246328.577336 eV PBE+vdW (tier 2 basis)
C    -0.582869  -0.284637  -0.148711
C    -0.408354  -0.111739  1.324827
O    0.732282  0.157334  1.816631
H    -0.296581  0.650730  -0.649676
H    -1.606982  -0.543579  -0.436211
H    0.101896  -1.063192  -0.509501
N    -1.476839  -0.235855  2.120695
C    -1.480513  0.034615  3.567528
C    -0.760791  -1.092362  4.334988
O    0.453703  -0.890196  4.684033
H    -2.377752  -0.428591  1.688092
H    -0.841141  0.918044  3.725860
C    -2.894633  0.335665  4.058970
C    -3.457827  1.696386  3.639391
C    -4.988951  1.730028  3.827905
N    -5.446851  1.389922  5.163143
C    -5.952594  0.143480  5.484491
N    -6.763544  0.149678  6.601766
N    -5.593640  -0.901878  4.796592
H    -2.897296  0.271113  5.156597
H    -3.599285  -0.445537  3.738013
H    -3.254036  1.907019  2.576027
H    -2.981549  2.503938  4.216892
H    -5.450878  1.019136  3.128030
H    -5.356592  2.733589  3.574599
H    -5.676942  2.152072  5.787970
H    -7.168990  -0.737439  6.874728
H    -7.377121  0.943758  6.753527
H    -6.162506  -1.710390  5.056244
N    -1.342943  -2.241334  4.641802
C    -2.685194  -2.750101  4.323450
H    -0.743569  -2.864733  5.182161
H    -2.712971  -3.800423  4.625733
H    -2.873327  -2.700476  3.244854
H    -3.478115  -2.198173  4.849713
Ba    2.389049  0.078413  3.588825
