36
Energy: -246329.068621 eV PBE+vdW (tier 2 basis)
C    -0.113862  -1.242142  1.072944
C    -0.274025  -0.294719  2.226857
O    0.674735  0.042452  2.947931
H    0.472195  -0.737016  0.292260
H    -1.062684  -1.575874  0.637918
H    0.468286  -2.111496  1.398813
N    -1.539346  0.188362  2.461798
C    -1.818212  1.363483  3.290257
C    -1.699355  1.108192  4.810808
O    -2.553199  1.602975  5.625619
H    -2.265807  -0.103784  1.818409
H    -1.010906  2.094212  3.091969
C    -3.134712  2.037547  2.854801
C    -4.404883  1.177919  2.703929
C    -5.171552  0.729039  3.947150
N    -5.886797  1.882427  4.604761
C    -6.839599  1.473771  5.594076
N    -8.117430  1.328254  5.204117
N    -6.353245  1.323310  6.796009
H    -2.933798  2.489884  1.873679
H    -3.321056  2.890341  3.523713
H    -4.187813  0.261180  2.135456
H    -5.099950  1.728986  2.049559
H    -4.517338  0.263519  4.693244
H    -5.910439  -0.029555  3.645109
H    -6.347900  2.432463  3.875012
H    -8.849831  1.104502  5.870998
H    -8.380870  1.321939  4.225126
H    -7.012800  0.929972  7.470624
N    -0.641864  0.446140  5.217882
C    -0.324051  0.172306  6.613102
H    0.048910  0.214671  4.453378
H    -1.176028  -0.296963  7.119789
H    -0.051589  1.095298  7.143342
H    0.527587  -0.512415  6.644479
Ba    -4.218666  2.836348  6.808470
