36
Energy: -246329.017967 eV PBE+vdW (tier 2 basis)
C    -0.435108  0.626933  -0.089549
C    -0.524911  0.511825  1.410124
O    0.631220  0.562704  2.042862
H    0.071218  1.566904  -0.346470
H    -1.413806  0.611207  -0.574883
H    0.176662  -0.184525  -0.510375
N    -1.691534  0.367778  1.968872
C    -1.846607  0.452002  3.416095
C    -0.996535  -0.477048  4.291243
O    -0.395046  -1.502309  3.842459
H    -3.244461  0.149423  0.997741
H    -1.590233  1.478120  3.734067
C    -3.350488  0.226790  3.723854
C    -3.851559  -1.130035  3.213314
C    -5.328893  -1.147780  2.815633
N    -5.780574  -0.048925  1.932525
C    -5.339233  0.268430  0.700061
N    -6.219471  0.794658  -0.172714
N    -4.066542  0.090109  0.335525
H    -3.881652  1.046530  3.220479
H    -3.564325  0.343626  4.793524
H    -3.723083  -1.908847  3.979072
H    -3.240361  -1.452833  2.360553
H    -5.960584  -1.056794  3.707977
H    -5.571949  -2.111646  2.344315
H    -6.691858  0.331721  2.164679
H    -5.908547  1.315431  -0.983730
H    -7.218124  0.672487  -0.055835
H    -3.852111  0.197244  -0.649423
N    -0.897749  -0.209052  5.600987
C    -1.454754  0.896388  6.380035
H    -0.414817  -0.932538  6.131340
H    -0.771562  1.115584  7.207180
H    -2.436125  0.638279  6.798926
H    -1.549856  1.797568  5.767291
Ba    1.800564  -1.320809  2.735117
