36
Energy: -246328.536356 eV PBE+vdW (tier 2 basis)
C    -2.724214  1.274217  -1.745730
C    -1.847543  0.387462  -0.919054
O    -0.745281  -0.047022  -1.367970
H    -2.489801  2.331307  -1.536921
H    -3.788482  1.119707  -1.537458
H    -2.520574  1.090562  -2.805225
N    -2.217004  0.081598  0.347217
C    -2.744378  1.102399  1.269245
C    -1.721366  2.268638  1.353439
O    -0.459962  1.880201  1.252537
H    -1.585149  -0.583693  0.793331
H    -3.706524  1.459231  0.882492
C    -2.971563  0.427044  2.642509
C    -3.739482  1.235490  3.716027
C    -2.924113  1.859959  4.857827
N    -2.110497  2.998745  4.427982
C    -1.785419  4.070620  5.150634
N    -1.974195  4.113034  6.477250
N    -1.268402  5.134033  4.509301
H    -1.995492  0.103650  3.041527
H    -3.537654  -0.491717  2.435541
H    -4.436196  0.544554  4.208849
H    -4.376396  2.002735  3.255081
H    -2.281870  1.092926  5.321000
H    -3.633212  2.204329  5.625324
H    -1.884229  3.077540  3.426156
H    -2.249600  3.290351  6.996815
H    -1.846527  4.970112  7.000558
H    -0.820482  5.890683  5.009816
N    -2.013729  3.507691  1.569552
C    -3.371536  4.030453  1.497914
H    -1.180643  5.108962  3.496725
H    -3.361280  4.915605  0.848145
H    -3.707634  4.380668  2.486159
H    -4.136822  3.338749  1.112871
Ba    1.190429  1.042326  -0.185609
