36
Energy: -246328.226014 eV PBE+vdW (tier 2 basis)
C    1.471728  -1.416704  2.852114
C    0.598312  -1.373578  4.065979
O    1.104936  -1.355810  5.230419
H    1.725142  -0.394774  2.528644
H    0.997564  -1.932044  2.010007
H    2.407876  -1.921195  3.113896
N    -0.744684  -1.333009  3.931492
C    -1.426342  -0.530256  2.920553
C    -1.147137  0.972425  3.224397
O    -0.454506  1.301580  4.256012
H    -1.256528  -1.439505  4.807935
H    -0.972353  -0.752821  1.943830
C    -2.946505  -0.830995  2.885146
C    -3.490600  -1.413482  1.572917
C    -3.129317  -0.685692  0.274752
N    -3.260655  0.801463  0.287325
C    -4.551122  1.376243  0.569083
N    -5.161537  1.937768  -0.521924
N    -4.926441  1.396673  1.797748
H    -3.511677  0.087231  3.096532
H    -3.175947  -1.540961  3.692770
H    -4.582309  -1.449796  1.679875
H    -3.160978  -2.455835  1.443914
H    -3.729768  -1.127035  -0.537200
H    -2.077801  -0.875992  0.008248
H    -2.914931  1.158069  -0.605188
H    -4.985071  1.575954  -1.452453
H    -6.066716  2.378330  -0.398705
H    -5.873455  1.768577  1.908878
N    -1.664223  1.836141  2.388930
C    -1.609761  3.285248  2.526778
H    -2.262375  1.455454  1.591565
H    -1.317544  3.729609  1.568196
H    -0.886061  3.570228  3.294199
H    -2.605273  3.660741  2.797934
Ba    0.862819  0.886577  6.246630
