36
Energy: -246328.393271 eV PBE+vdW (tier 2 basis)
C    0.614440  -1.046577  0.830903
C    -0.063654  0.060907  1.566445
O    0.586028  0.778809  2.408543
H    -0.041008  -1.505906  0.083456
H    0.945221  -1.810272  1.548809
H    1.518053  -0.656818  0.343965
N    -1.353203  0.290710  1.330298
C    -2.020783  1.443258  1.943758
C    -2.082610  1.322328  3.480763
O    -1.478986  2.222865  4.155291
H    -1.825199  -0.266909  0.538742
H    -1.333347  2.295079  1.816340
C    -3.307500  1.912300  1.224639
C    -4.613844  1.078946  1.227597
C    -5.301734  0.983812  -0.156070
N    -4.808112  -0.138597  -0.987057
C    -3.427829  -0.209744  -1.186152
N    -2.902381  0.828616  -1.905620
N    -2.624548  -1.111996  -0.682454
H    -2.987788  2.092491  0.188278
H    -3.524342  2.908174  1.636094
H    -4.441573  0.051293  1.567911
H    -5.319881  1.519069  1.944802
H    -5.201370  1.927087  -0.710018
H    -6.377366  0.817351  -0.028407
H    -5.164839  -1.026642  -0.638400
H    -3.523183  1.284509  -2.566007
H    -1.954586  0.691294  -2.239102
H    -3.158673  -1.815251  -0.164939
N    -2.685509  0.335547  4.135112
C    -3.333633  -0.886859  3.662500
H    -2.657742  0.454623  5.148104
H    -4.424934  -0.794178  3.713254
H    -3.022197  -1.713234  4.311770
H    -3.024051  -1.114431  2.640702
Ba    0.965024  2.467477  4.075214
