36
Energy: -246326.940134 eV PBE+vdW (tier 2 basis)
C    -0.142888  -1.155800  0.419722
C    -0.227879  -0.267503  1.615234
O    0.868814  -0.001649  2.274199
H    0.645455  -0.791100  -0.251210
H    -1.082900  -1.220306  -0.134742
H    0.143781  -2.167501  0.740494
N    -1.347649  0.256868  2.036699
C    -2.718491  0.181741  1.520072
C    -3.357743  1.442666  2.183250
O    -2.793958  1.919568  3.180884
H    -1.374732  0.912325  2.855581
H    -2.716489  0.280691  0.424867
C    -3.404699  -1.138624  1.944050
C    -4.823693  -1.316059  1.398438
C    -5.350997  -2.754833  1.581234
N    -6.686424  -2.947867  1.035482
C    -6.976835  -2.742101  -0.316217
N    -5.959882  -3.139232  -1.184538
N    -8.045124  -2.211872  -0.798388
H    -3.399065  -1.197324  3.043262
H    -2.774199  -1.966803  1.581700
H    -4.846399  -1.091099  0.319482
H    -5.518923  -0.625632  1.896891
H    -5.389999  -3.018013  2.647457
H    -4.652062  -3.463554  1.113377
H    -7.445843  -2.672191  1.650091
H    -6.277258  -3.074075  -2.149188
H    -5.559463  -4.052616  -0.982964
H    -8.687330  -1.876241  -0.075407
N    -4.476467  1.920422  1.629068
C    -5.223475  3.058196  2.161587
H    -4.843266  1.457766  0.803300
H    -6.214979  2.737706  2.504628
H    -5.341876  3.824161  1.386437
H    -4.666771  3.474515  3.004836
Ba    2.774970  0.558271  3.414690
