36
Energy: -246329.170036 eV PBE+vdW (tier 2 basis)
C    1.361134  0.202818  2.043598
C    0.073012  0.888944  2.423551
O    0.001492  1.309768  3.668370
H    1.619169  -0.576623  2.773702
H    1.314254  -0.255022  1.050773
H    2.182370  0.932985  2.070036
N    -0.853233  1.009783  1.517084
C    -2.070917  1.778792  1.727847
C    -2.867288  1.545859  3.015250
O    -2.785465  0.483246  3.708319
H    1.171192  1.013144  -1.146077
H    -1.805882  2.850105  1.729410
C    -3.023900  1.545964  0.513576
C    -3.262935  0.058854  0.169949
C    -2.536348  -0.410041  -1.095783
N    -1.106744  -0.113349  -0.993429
C    -0.247304  -0.199301  -1.999393
N    -0.576329  -0.805285  -3.152842
N    0.990067  0.323938  -1.863586
H    -2.583687  2.072695  -0.344873
H    -3.983491  2.042449  0.699812
H    -4.332941  -0.121673  0.008683
H    -2.969876  -0.582950  1.013231
H    -2.955157  0.102428  -1.977662
H    -2.702416  -1.491989  -1.224310
H    -0.809730  0.304751  -0.060206
H    -1.416976  -1.362238  -3.229833
H    0.034648  -0.777431  -3.959099
H    1.699600  0.191790  -2.572338
N    -3.723828  2.497415  3.413336
C    -4.023994  3.797776  2.813238
H    -4.316571  2.215652  4.192408
H    -3.121967  4.252670  2.392457
H    -4.405714  4.457984  3.598304
H    -4.785827  3.714548  2.027185
Ba    -1.044142  0.201384  5.425733
