36
Energy: -246329.933394 eV PBE+vdW (tier 2 basis)
C    0.122226  0.300020  0.844645
C    -0.624419  0.631216  2.097171
O    -0.516136  1.759020  2.645450
H    -0.131126  1.040242  0.074146
H    -0.087851  -0.704587  0.463075
H    1.199865  0.393884  1.034196
N    -1.432521  -0.312332  2.628016
C    -2.255378  -0.080642  3.814370
C    -1.458651  -0.359235  5.104387
O    -0.850800  0.609082  5.635705
H    -1.497944  -1.209365  2.154551
H    -2.407019  1.003654  3.848576
C    -3.653465  -0.686868  3.697339
C    -4.517465  0.074761  2.675479
C    -4.560651  1.599648  2.858060
N    -4.979110  1.995391  4.207188
C    -4.557302  3.113946  4.868106
N    -5.480391  3.688817  5.679194
N    -3.312648  3.573209  4.759330
H    -4.121396  -0.634018  4.690664
H    -3.617485  -1.753840  3.425864
H    -5.538664  -0.330729  2.719764
H    -4.171396  -0.120729  1.649975
H    -5.255071  2.020117  2.113697
H    -3.589228  2.069417  2.662795
H    -5.903004  1.668533  4.476435
H    -5.210791  4.391803  6.355250
H    -6.474178  3.536691  5.554044
H    -3.321959  4.536296  5.114414
N    -1.428941  -1.595023  5.590854
C    -0.688489  -2.011419  6.781871
H    -1.973840  -2.305869  5.110423
H    0.052483  -2.773683  6.512695
H    -1.380221  -2.429051  7.522911
H    -0.181277  -1.140913  7.203892
Ba    -0.716242  3.027555  4.799782
