36
Energy: -246328.789877 eV PBE+vdW (tier 2 basis)
C    -1.292703  1.210481  0.376703
C    -0.984042  0.371183  1.577657
O    -0.015868  -0.446497  1.546411
H    -2.122044  1.908803  0.529160
H    -1.538208  0.543503  -0.461618
H    -0.397054  1.773621  0.084680
N    -1.765234  0.516284  2.657804
C    -1.789783  -0.252429  3.922293
C    -0.575944  0.020792  4.818552
O    0.593085  -0.361920  4.472112
H    -2.496431  1.215184  2.568040
H    -2.669716  0.138609  4.445384
C    -2.020044  -1.770999  3.710136
C    -3.492018  -2.136008  3.431662
C    -4.406516  -2.256814  4.665467
N    -4.480853  -1.045351  5.478399
C    -3.646022  -0.827525  6.565564
N    -3.649930  0.511727  7.015781
N    -2.767884  -1.611840  7.080394
H    -1.663599  -2.297964  4.606361
H    -1.401092  -2.113084  2.867604
H    -3.518282  -3.107562  2.917586
H    -3.924511  -1.413029  2.721498
H    -4.092327  -3.110602  5.286110
H    -5.421174  -2.497682  4.325473
H    -5.373291  -0.562162  5.478860
H    -3.464245  0.565066  8.016616
H    -4.466370  1.065677  6.765649
H    -2.854911  -2.572931  6.745558
N    -0.817467  0.609484  5.969425
C    0.159171  0.805900  7.033560
H    -1.806458  0.788207  6.226597
H    0.069681  1.826262  7.423070
H    1.168860  0.647375  6.649110
H    -0.048245  0.092180  7.842418
Ba    1.882747  -1.371675  2.726495
