36
Energy: -246328.029509 eV PBE+vdW (tier 2 basis)
C    1.246106  1.105688  0.174579
C    1.121349  1.272284  1.650380
O    2.139841  1.613705  2.342083
H    2.139076  1.647811  -0.152771
H    0.355841  1.441246  -0.382910
H    1.389208  0.042304  -0.077098
N    -0.040688  1.077041  2.319383
C    -1.005219  -0.010646  2.116286
C    -0.361754  -1.306274  2.677342
O    0.850462  -1.328890  3.068560
H    0.016388  1.400729  3.284690
H    -1.864252  0.236822  2.759193
C    -1.512115  -0.152828  0.669423
C    -2.942932  -0.664853  0.487422
C    -3.446596  -0.323256  -0.933409
N    -3.692369  1.090980  -1.148616
C    -2.816101  1.949394  -1.785856
N    -3.436003  3.046833  -2.342169
N    -1.534275  1.720580  -1.762095
H    -0.826093  -0.775942  0.078862
H    -1.472039  0.843290  0.204143
H    -3.620628  -0.202855  1.222888
H    -3.017833  -1.759649  0.612058
H    -4.382347  -0.867389  -1.118200
H    -2.714485  -0.667029  -1.678328
H    -4.647285  1.412154  -1.050910
H    -2.846449  3.730108  -2.801253
H    -4.352792  2.935430  -2.761887
H    -1.049904  2.355634  -2.400008
N    -1.120847  -2.387443  2.731470
C    -0.676011  -3.695041  3.217859
H    -2.074089  -2.308470  2.383859
H    -0.337759  -3.621487  4.258075
H    0.140570  -4.080496  2.595728
H    -1.520400  -4.387068  3.167454
Ba    3.000308  -0.254584  3.657235
