36
Energy: -246329.841335 eV PBE+vdW (tier 2 basis)
C    -1.688788  -1.134788  -0.136066
C    -1.767616  -0.823601  1.330552
O    -2.035296  -1.730705  2.154551
H    -2.642048  -1.577053  -0.453769
H    -0.913043  -1.895252  -0.296322
H    -1.470226  -0.266062  -0.765683
N    -1.537481  0.459425  1.687406
C    -1.538434  1.137839  3.005854
C    -0.485554  0.544536  3.966959
O    -0.605936  -0.591986  4.489374
H    -1.335461  1.079292  0.909309
H    -1.197405  2.150463  2.753849
C    -2.936783  1.336715  3.647476
C    -3.547558  0.134767  4.368884
C    -4.998081  0.318132  4.821534
N    -5.397084  -0.616472  5.880122
C    -5.487670  -1.977370  5.770891
N    -6.476841  -2.550040  6.501618
N    -4.625162  -2.681076  5.045778
H    -3.605124  1.676950  2.842093
H    -2.850502  2.180240  4.349398
H    -2.950099  -0.088540  5.266877
H    -3.537607  -0.719419  3.681449
H    -5.674831  0.237415  3.955823
H    -5.135261  1.321225  5.245876
H    -5.977188  -0.207304  6.604063
H    -7.281543  -2.024281  6.820832
H    -6.496093  -3.550262  6.654165
H    -5.006351  -3.625505  4.929353
N    0.562154  1.322575  4.240216
C    1.641247  0.932962  5.148073
H    0.629046  2.228222  3.787542
H    2.306545  1.789301  5.284851
H    2.213085  0.095060  4.730381
H    1.230029  0.635539  6.119461
Ba    -2.030283  -2.712210  4.447361
