36
Energy: -246328.834437 eV PBE+vdW (tier 2 basis)
C    -0.896972  2.249494  1.443450
C    -0.527486  0.934963  1.712520
O    0.635482  0.651125  2.234081
H    -1.895687  2.553970  1.137172
H    -0.064175  1.553258  -0.746104
H    -0.112827  3.004063  1.381211
N    -1.393661  -0.154018  1.581783
C    -2.820464  -0.032026  1.786913
C    -3.132456  0.184667  3.304226
O    -2.239213  0.597784  4.089664
H    -0.972690  -0.989353  1.986364
H    -3.149998  0.901923  1.302849
C    -3.590838  -1.207959  1.148753
C    -3.202330  -1.567511  -0.295909
C    -3.361960  -0.467501  -1.360509
N    -2.240790  0.477714  -1.445284
C    -1.030222  0.223132  -1.963501
N    -0.851099  -0.785002  -2.828864
N    0.001275  0.993329  -1.597806
H    -4.669069  -0.982769  1.165117
H    -3.455569  -2.108900  1.766747
H    -3.844657  -2.407104  -0.597575
H    -2.172804  -1.950477  -0.327487
H    -4.261916  0.137146  -1.185818
H    -3.519008  -0.925414  -2.346528
H    -2.297238  1.331235  -0.900083
H    0.075324  -1.026051  -3.158965
H    -1.633838  -1.202077  -3.316727
H    0.872893  0.994300  -2.113064
N    -4.367417  -0.053409  3.736610
C    -4.796705  0.151164  5.121162
H    -5.051154  -0.409487  3.077821
H    -5.837078  -0.171062  5.213168
H    -4.724072  1.210642  5.394966
H    -4.175236  -0.438993  5.804611
Ba    0.007819  1.770158  4.286953
