36
Energy: -246328.997603 eV PBE+vdW (tier 2 basis)
C    -2.834125  2.338056  2.853422
C    -2.038222  1.101316  3.181276
O    -0.957647  1.300735  3.907295
H    -3.232392  2.767315  3.783265
H    -3.661580  2.131701  2.169062
H    -2.190795  3.108602  2.406042
N    -2.456986  -0.048586  2.737659
C    -1.856224  -1.309507  3.149348
C    -0.339604  -1.480916  3.008853
O    0.387737  -0.723260  2.293174
H    -3.997157  -0.258165  1.903495
H    -2.077570  -1.469792  4.219637
C    -2.584328  -2.421986  2.350154
C    -2.446510  -2.265217  0.823450
C    -3.740784  -2.593219  0.051458
N    -4.482018  -1.435320  -0.484244
C    -5.242925  -0.570577  0.211555
N    -6.285576  0.007956  -0.415441
N    -4.979387  -0.287025  1.489117
H    -3.639707  -2.357227  2.647992
H    -2.250750  -3.418820  2.662519
H    -1.644397  -2.917156  0.454276
H    -2.143407  -1.239112  0.572984
H    -4.425032  -3.182873  0.679320
H    -3.513467  -3.206504  -0.826737
H    -4.606972  -1.415973  -1.490459
H    -6.705207  -0.409156  -1.237626
H    -6.730851  0.835152  -0.037843
H    -5.697176  0.196076  2.018684
N    0.250098  -2.496762  3.654716
C    -0.322787  -3.504186  4.547310
H    1.233708  -2.615858  3.417612
H    0.440797  -3.794248  5.276454
H    -0.634306  -4.400029  3.994574
H    -1.181020  -3.101019  5.092875
Ba    1.215317  1.451082  3.108680
