36
Energy: -246328.354513 eV PBE+vdW (tier 2 basis)
C    -0.245381  -0.778746  -1.112797
C    -0.439208  0.434473  -0.195347
O    0.706401  1.074382  0.068047
H    -1.161383  -1.290677  -1.426333
H    0.395347  -1.518498  -0.618831
H    0.292663  -0.434993  -2.002533
N    -1.021066  0.063640  1.177328
C    -1.890163  -1.086627  1.465036
C    -0.959055  -2.327588  1.558302
O    0.240075  -2.163931  1.906639
H    -1.420403  0.912114  1.577567
H    -2.199776  -0.941416  2.516815
C    -3.195841  -1.240923  0.650259
C    -4.293974  -0.182125  0.884042
C    -4.082631  1.252651  0.364117
N    -3.761059  1.326335  -1.067137
C    -2.532386  1.134951  -1.571397
N    -2.382351  0.676626  -2.820971
N    -1.424635  1.429035  -0.841458
H    -3.669719  -2.190855  0.940637
H    -2.977634  -1.342604  -0.422310
H    -4.510366  -0.101919  1.961280
H    -5.217176  -0.570206  0.429806
H    -3.307373  1.783907  0.929038
H    -5.003551  1.828146  0.515319
H    -4.545149  1.367304  -1.714849
H    -1.510807  0.853585  -3.308261
H    -3.154839  0.292910  -3.354964
H    -1.555615  2.220822  -0.213241
N    -1.447779  -3.541549  1.326473
C    -0.663049  -4.767167  1.492098
H    -2.415601  -3.633579  1.040383
H    0.156630  -4.801374  0.764210
H    -1.321518  -5.624872  1.333189
H    -0.241820  -4.814651  2.502672
Ba    1.667491  -0.022979  1.952268
