36
Energy: -246328.79529 eV PBE+vdW (tier 2 basis)
C    -0.189224  -0.629990  0.364435
C    -0.159057  -0.098210  1.761861
O    0.869504  0.499847  2.202641
H    -0.071689  0.212402  -0.331865
H    -1.113156  -1.164736  0.121290
H    0.667227  -1.297612  0.205756
N    -1.247506  -0.257433  2.526574
C    -1.466574  0.321631  3.865972
C    -0.725551  -0.542136  4.917468
O    0.515544  -0.273502  5.107055
H    -2.034018  -0.753497  2.113900
H    -0.941846  1.289151  3.879595
C    -2.966979  0.564881  4.063279
C    -3.312982  1.345966  5.341304
C    -4.789030  1.198011  5.772799
N    -5.231866  -0.202362  5.897162
C    -4.381483  -1.130847  6.481059
N    -3.846822  -0.752113  7.687979
N    -3.984536  -2.257075  5.946913
H    -3.486335  -0.405280  4.058925
H    -3.327955  1.114225  3.180495
H    -3.096888  2.415249  5.201154
H    -2.680754  1.005947  6.174941
H    -5.461604  1.672504  5.047214
H    -4.938831  1.735988  6.719276
H    -5.683837  -0.562888  5.062883
H    -3.436226  -1.515527  8.215112
H    -4.395723  -0.112839  8.253328
H    -4.453688  -2.431510  5.054066
N    -1.312014  -1.532144  5.545657
C    -0.603337  -2.385050  6.498905
H    -2.355185  -1.742660  5.501494
H    0.227165  -2.909364  6.010575
H    -1.322013  -3.118609  6.875148
H    -0.206526  -1.791650  7.332561
Ba    2.438286  0.699509  4.045726
