36
Energy: -246328.987861 eV PBE+vdW (tier 2 basis)
C    0.265760  -0.801786  0.865898
C    0.268602  -0.653906  2.355728
O    1.155401  -1.262125  3.048309
H    1.033818  -0.130449  0.452086
H    -0.691196  -0.550698  0.399249
H    0.553741  -1.822322  0.591852
N    -0.618138  0.102181  2.986225
C    -1.684291  0.974741  2.492711
C    -1.509646  2.251293  3.370411
O    -1.031817  2.097483  4.501820
H    -0.433069  0.342533  3.975509
H    -1.551096  1.178105  1.424136
C    -3.094109  0.415213  2.796480
C    -3.556777  -0.893586  2.135752
C    -2.845773  -2.205045  2.511026
N    -2.597609  -2.328915  3.949887
C    -1.555449  -2.996064  4.473428
N    -1.183276  -2.703351  5.807626
N    -0.741024  -3.818889  3.854715
H    -3.815178  1.191739  2.503905
H    -3.185262  0.348550  3.892080
H    -3.512255  -0.811043  1.039691
H    -4.626336  -1.001996  2.370216
H    -1.869641  -2.283204  2.015111
H    -3.453273  -3.050406  2.153464
H    -3.278974  -1.923785  4.585313
H    -1.246299  -3.519828  6.417480
H    -1.663889  -1.911236  6.233443
H    -1.097515  -4.145783  2.955573
N    -1.932623  3.429953  2.888048
C    -2.447568  3.724122  1.552491
H    -1.829347  4.204833  3.539601
H    -1.706513  3.506270  0.771790
H    -2.674208  4.792766  1.504364
H    -3.377456  3.180238  1.339126
Ba    1.613754  -3.023041  4.626022
