36
Energy: -246328.628169 eV PBE+vdW (tier 2 basis)
C    -0.980624  0.482628  0.435270
C    -0.382295  0.121377  1.759723
O    0.845815  -0.181986  1.838535
H    -2.031120  0.785505  0.493703
H    -0.899457  -0.388697  -0.230207
H    -0.397150  1.290289  -0.024406
N    -1.190375  0.128408  2.829861
C    -0.946148  -0.336240  4.212259
C    -0.000398  0.582026  5.005951
O    1.211938  0.755514  4.643799
H    -2.149144  0.404980  2.639381
H    -1.929549  -0.247879  4.692012
C    -0.519746  -1.817030  4.304765
C    -0.593817  -2.361505  5.739643
C    -2.036059  -2.548688  6.293097
N    -2.194056  -2.172152  7.694140
C    -2.196245  -0.851925  8.121107
N    -2.901054  0.045084  7.258808
N    -1.659922  -0.341797  9.165784
H    0.498705  -1.942976  3.908715
H    -1.175139  -2.397067  3.637932
H    -0.040960  -1.696395  6.420659
H    -0.066034  -3.323730  5.771825
H    -2.341505  -3.597420  6.192889
H    -2.760565  -1.979719  5.693911
H    -1.740007  -2.799580  8.352435
H    -3.159665  0.856567  7.824486
H    -3.754849  -0.367416  6.879282
H    -1.107038  -1.014123  9.703512
N    -0.502630  1.109083  6.099660
C    0.233015  1.913190  7.071366
H    -1.475634  0.822741  6.366688
H    -0.110806  1.627993  8.072830
H    0.029609  2.980228  6.910677
H    1.307429  1.733189  6.974532
Ba    2.906155  0.269828  3.015123
