36
Energy: -246328.443265 eV PBE+vdW (tier 2 basis)
C    -1.526757  0.252753  -1.705907
C    -1.187459  -0.574368  -0.507025
O    -0.192738  -1.383788  -0.555387
H    -0.806663  1.084286  -1.757268
H    -2.543708  0.674205  -1.671697
H    -1.388796  -0.337634  -2.619409
N    -1.956219  -0.434865  0.567972
C    -1.828876  -0.948270  1.935552
C    -1.088113  -2.270593  2.120980
O    -1.222855  -3.264329  1.346760
H    -2.793454  0.211930  0.483016
H    -1.285391  -0.189100  2.525419
C    -3.262208  -1.119410  2.528575
C    -3.923853  0.140144  3.126982
C    -3.890152  1.442495  2.314368
N    -4.193311  1.211729  0.899245
C    -4.203139  2.263488  -0.068581
N    -3.885786  3.510992  0.410994
N    -4.396221  1.888802  -1.282137
H    -3.223926  -1.872435  3.327712
H    -3.884565  -1.561014  1.737410
H    -3.475224  0.360238  4.106391
H    -4.968647  -0.132258  3.338581
H    -2.891247  1.902170  2.368407
H    -4.588134  2.148002  2.798011
H    -5.001044  0.612148  0.733373
H    -4.173691  3.778402  1.346566
H    -3.914769  4.272245  -0.258572
H    -4.481582  2.675016  -1.930515
N    -0.364192  -2.355328  3.236134
C    0.259552  -3.576510  3.740217
H    -0.273534  -1.517893  3.804886
H    0.215413  -3.572828  4.834080
H    1.313870  -3.634353  3.437168
H    -0.285656  -4.447330  3.364493
Ba    -0.074562  -3.752722  -0.759616
