36
Energy: -246329.20224 eV PBE+vdW (tier 2 basis)
C    0.468751  0.829500  0.269513
C    0.308116  1.289208  1.682606
O    1.214250  1.924808  2.279939
H    0.154735  1.630267  -0.418404
H    -0.115047  -0.069659  0.045154
H    1.530732  0.641351  0.078915
N    -0.850708  1.032203  2.354991
C    -2.182631  1.136556  1.764384
C    -2.319446  2.550039  1.141800
O    -1.616764  3.493051  1.608990
H    -0.800848  1.342020  3.327828
H    -2.295300  0.358142  0.998000
C    -3.309690  0.978639  2.824250
C    -3.182014  -0.148688  3.863835
C    -2.189625  -0.003505  5.033925
N    -2.399853  1.104226  5.986531
C    -1.671383  2.259623  5.994343
N    -1.291139  2.744057  7.192634
N    -1.332813  2.909614  4.877221
H    -4.237112  0.806583  2.261243
H    -3.481922  1.941418  3.333078
H    -2.931945  -1.093389  3.356980
H    -4.184704  -0.296734  4.289867
H    -1.147373  0.030263  4.691862
H    -2.263481  -0.926166  5.624465
H    -2.811460  0.834236  6.874972
H    -1.047922  3.721490  7.287342
H    -1.333461  2.187677  8.037946
H    -2.049372  2.680124  4.183196
N    -3.188069  2.769683  0.160264
C    -4.102207  1.832715  -0.494387
H    -3.248965  3.744425  -0.134289
H    -4.176864  2.098404  -1.553913
H    -5.103084  1.885395  -0.046720
H    -3.728933  0.806879  -0.426694
Ba    0.293738  4.133709  3.221971
