36
Energy: -246328.33062 eV PBE+vdW (tier 2 basis)
C    0.104984  -1.235539  -0.071355
C    -0.000765  -0.506688  1.228340
O    1.037915  -0.072108  1.817112
H    0.585017  -0.577784  -0.809084
H    -0.862935  -1.564757  -0.462915
H    0.758902  -2.108889  0.052514
N    -1.213238  -0.311921  1.760834
C    -1.456881  0.497725  2.961346
C    -0.914630  -0.219670  4.215610
O    0.179047  0.212997  4.723399
H    -2.025063  -0.624150  1.233157
H    -0.807358  1.379096  2.865835
C    -2.929791  0.988241  3.104503
C    -3.886891  0.717499  1.936298
C    -5.346468  1.082992  2.298539
N    -5.884207  0.276303  3.385036
C    -5.741397  0.603533  4.732217
N    -6.117474  1.894630  5.040593
N    -5.252661  -0.288781  5.536195
H    -2.887783  2.070448  3.281410
H    -3.361481  0.557222  4.015487
H    -3.896955  -0.354510  1.663510
H    -3.592472  1.277145  1.034041
H    -5.972341  0.952991  1.405123
H    -5.408592  2.141455  2.580575
H    -5.812424  -0.729062  3.252528
H    -6.919199  2.270599  4.542270
H    -6.094460  2.147395  6.022147
H    -5.389912  -0.039736  6.519321
N    -1.527333  -1.257497  4.758074
C    -2.766247  -1.939638  4.371125
H    -1.081406  -1.595699  5.611086
H    -2.690174  -2.979179  4.706124
H    -2.880072  -1.943121  3.282835
H    -3.651417  -1.462227  4.848666
Ba    2.344898  0.651921  3.737684
