36
Energy: -246329.254492 eV PBE+vdW (tier 2 basis)
C    -0.334078  -0.725811  -0.701639
C    0.049273  -0.491043  0.724559
O    1.258531  -0.643269  1.098011
H    0.478568  -0.381058  -1.350346
H    -1.265414  -0.225476  -0.985335
H    -0.455544  -1.804834  -0.878392
N    -0.856083  -0.127372  1.629360
C    -2.312831  -0.068069  1.558129
C    -2.737734  0.607685  2.881724
O    -1.999847  0.512224  3.885019
H    -0.520268  0.056078  2.581234
H    -2.613624  0.572545  0.718108
C    -3.005163  -1.462951  1.378643
C    -2.294404  -2.731101  1.884781
C    -2.120263  -2.944869  3.400739
N    -1.109054  -2.100523  4.038746
C    0.215353  -2.278192  4.052990
N    0.799822  -3.402112  3.415033
N    1.107991  -1.439213  4.548180
H    -3.177644  -1.605004  0.303409
H    -4.005532  -1.404912  1.831424
H    -1.318923  -2.841103  1.383758
H    -2.898259  -3.576208  1.521884
H    -1.884243  -4.000506  3.598056
H    -3.064733  -2.752434  3.927113
H    -1.427140  -1.144691  4.272321
H    1.299036  -3.984347  4.089921
H    0.153254  -3.986852  2.888034
H    0.691890  -0.703823  5.124247
N    -3.906300  1.256824  2.912018
C    -4.821130  1.535389  1.803366
H    -4.135415  1.650712  3.822575
H    -5.216983  0.615039  1.356459
H    -4.340622  2.145849  1.027449
H    -5.667220  2.103371  2.199632
Ba    2.920136  -1.424855  2.707191
