36
Energy: -246327.850835 eV PBE+vdW (tier 2 basis)
C    -0.301293  0.399105  0.258576
C    -0.371056  0.108428  1.723219
O    0.674793  -0.174607  2.384058
H    -0.105740  1.470635  0.091802
H    -1.224189  0.134594  -0.268171
H    0.541124  -0.155300  -0.169116
N    -1.557187  0.172578  2.368346
C    -2.537594  1.233876  2.139236
C    -1.874694  2.586205  2.499006
O    -0.773201  2.600473  3.154918
H    -1.526985  -0.165768  3.330671
H    -2.819343  1.244471  1.075693
C    -3.794593  1.004805  2.994147
C    -4.636978  -0.207491  2.580964
C    -6.041808  -0.198074  3.230446
N    -6.892548  0.902402  2.789639
C    -6.704132  2.223384  3.193093
N    -6.377081  2.373268  4.538998
N    -6.769623  3.275340  2.443233
H    -4.405747  1.910506  2.925364
H    -3.501686  0.937591  4.055411
H    -4.130929  -1.150368  2.841135
H    -4.759678  -0.214657  1.485213
H    -5.951791  -0.177133  4.324168
H    -6.551239  -1.138177  2.982504
H    -7.207350  0.826379  1.826696
H    -6.461925  3.346741  4.820980
H    -6.883104  1.757333  5.170830
H    -6.946626  3.027910  1.465151
N    -2.455669  3.719793  2.147611
C    -3.685448  3.931308  1.374114
H    -1.989121  4.559237  2.491124
H    -3.602674  4.900553  0.872973
H    -4.586233  3.932814  2.014006
H    -3.794896  3.156439  0.607988
Ba    1.345314  1.640652  3.925657
