36
Energy: -246329.401451 eV PBE+vdW (tier 2 basis)
C    0.226168  0.018455  1.165419
C    -0.783616  -0.303436  2.221985
O    -0.447257  -0.846453  3.303775
H    0.649890  1.019383  1.341744
H    -0.189734  -0.010511  0.152470
H    1.050985  -0.697514  1.245782
N    -2.100638  -0.008784  2.018852
C    -2.558380  1.229520  1.402214
C    -2.336996  2.373013  2.430565
O    -2.052113  2.096497  3.628949
H    -2.681547  -0.326179  2.797139
H    -1.904184  1.427682  0.540979
C    -4.004083  1.117381  0.850289
C    -5.208117  1.335287  1.782861
C    -5.539492  0.234534  2.824563
N    -5.335281  0.672313  4.208080
C    -4.371526  0.254200  5.047988
N    -4.103195  1.061175  6.170889
N    -3.553401  -0.765639  4.909710
H    -4.072520  0.132867  0.364822
H    -4.099358  1.844315  0.033786
H    -6.081265  1.444660  1.126536
H    -5.117749  2.300752  2.304630
H    -4.953081  -0.676404  2.652367
H    -6.588478  -0.071027  2.727083
H    -6.001116  1.353486  4.561815
H    -4.205547  0.552226  7.049291
H    -4.592220  1.953787  6.210470
H    -3.881786  -1.480424  4.258351
N    -2.434191  3.641032  2.032350
C    -2.702037  4.171660  0.694336
H    -2.283660  4.324263  2.773215
H    -2.233775  5.157597  0.615890
H    -3.779166  4.281817  0.514509
H    -2.265702  3.530645  -0.078925
Ba    -1.224407  0.377214  5.415359
