36
Energy: -246328.128874 eV PBE+vdW (tier 2 basis)
C    0.144226  -0.062434  0.796918
C    -0.202418  -0.543883  2.160744
O    0.705185  -0.776159  3.027247
H    0.810016  0.809181  0.854603
H    -0.722257  0.148756  0.151226
H    0.740395  -0.862695  0.328920
N    -1.488127  -0.765059  2.516890
C    -2.593841  0.128576  2.187776
C    -2.436020  1.388474  3.060095
O    -1.476211  1.500802  3.894258
H    -1.585954  -1.268353  3.400437
H    -2.482192  0.424887  1.115368
C    -3.925346  -0.650782  2.324481
C    -5.247489  -0.010835  1.866787
C    -5.341721  0.502138  0.408919
N    -4.853678  -0.417048  -0.598424
C    -3.541739  -0.456960  -1.019947
N    -3.130424  -1.644074  -1.561433
N    -2.662159  0.502619  -0.871800
H    -4.051628  -0.967322  3.372669
H    -3.764889  -1.568589  1.741799
H    -5.558789  0.802747  2.542831
H    -6.014005  -0.786834  2.008949
H    -4.812621  1.460958  0.287086
H    -6.393052  0.731573  0.192227
H    -5.498894  -1.119284  -0.942351
H    -2.353606  -1.592154  -2.209768
H    -3.788828  -2.397457  -1.715470
H    -3.126502  1.398661  -0.706131
N    -3.300899  2.377702  2.894683
C    -3.266751  3.643907  3.628480
H    -4.037634  2.249139  2.207887
H    -4.144713  4.230642  3.346260
H    -2.363049  4.212163  3.376164
H    -3.291695  3.461335  4.708858
Ba    0.672877  0.807070  4.885879
