36
Energy: -246329.899519 eV PBE+vdW (tier 2 basis)
C    0.755837  0.913787  1.360968
C    -0.046310  0.840663  2.622503
O    0.395951  1.301203  3.706270
H    0.982171  1.967189  1.147560
H    0.250903  0.474335  0.494411
H    1.716680  0.405183  1.513570
N    -1.269699  0.270601  2.561788
C    -2.192598  0.217692  3.701523
C    -1.809852  -0.967338  4.617979
O    -0.990309  -0.770431  5.552658
H    -1.580820  -0.096134  1.666096
H    -1.966337  1.113077  4.289113
C    -3.650662  0.300083  3.225065
C    -4.739383  0.339819  4.313890
C    -4.763877  1.547523  5.269054
N    -3.740956  1.496121  6.317999
C    -2.596343  2.205581  6.446657
N    -2.281895  3.150008  5.487096
N    -1.674196  1.989081  7.368430
H    -3.877842  -0.539830  2.546036
H    -3.730137  1.201618  2.597567
H    -4.722095  -0.582244  4.916116
H    -5.709042  0.327452  3.796038
H    -5.744071  1.582887  5.763617
H    -4.683370  2.492086  4.714426
H    -3.865375  0.763514  7.010079
H    -1.768022  3.941783  5.863589
H    -3.010606  3.439334  4.842861
H    -2.027449  1.403738  8.129951
N    -2.333116  -2.163507  4.359056
C    -2.010931  -3.393959  5.080995
H    -2.986234  -2.236591  3.584201
H    -2.935658  -3.928554  5.324310
H    -1.482311  -3.136842  6.001901
H    -1.374607  -4.042508  4.465402
Ba    0.558920  1.160143  6.214575
