36
Energy: -246328.538604 eV PBE+vdW (tier 2 basis)
C    -0.839015  -0.773217  -0.094073
C    -0.841537  0.026489  1.169911
O    -0.068470  -0.303422  2.131339
H    -1.563060  -0.408960  -0.829203
H    -1.053396  -1.824028  0.141907
H    0.165832  -0.743939  -0.537104
N    -1.661158  1.071158  1.248106
C    -1.878413  1.912537  2.439924
C    -0.570373  2.597390  2.866385
O    0.127811  2.133844  3.825701
H    -2.379944  1.213911  0.487275
H    -2.539930  2.713922  2.092116
C    -2.594238  1.148288  3.580517
C    -4.129348  1.299278  3.633971
C    -4.959686  1.075332  2.345338
N    -5.157414  2.285529  1.543427
C    -4.410962  2.709803  0.464913
N    -3.884235  1.666368  -0.353044
N    -4.117736  3.914765  0.124532
H    -2.196990  1.495784  4.545559
H    -2.342425  0.079177  3.493338
H    -4.376710  2.297202  4.028031
H    -4.490409  0.591616  4.394138
H    -5.951367  0.707128  2.640342
H    -4.522404  0.289139  1.716313
H    -5.619667  3.044515  2.035993
H    -3.619074  2.089121  -1.244744
H    -4.561882  0.921254  -0.523351
H    -4.474276  4.610373  0.786132
N    -0.170441  3.690699  2.231774
C    -0.753017  4.397262  1.087678
H    0.702043  4.078083  2.593817
H    -1.776876  4.072838  0.871361
H    -0.134592  4.229152  0.196588
H    -0.766242  5.470518  1.308129
Ba    0.960799  -0.099407  4.287391
