36
Energy: -246329.33242 eV PBE+vdW (tier 2 basis)
C    0.077859  0.942246  1.538922
C    0.108267  -0.419278  2.154497
O    0.868774  -0.699188  3.114616
H    -0.654216  1.572112  2.068550
H    -0.187660  0.921243  0.476282
H    1.059228  1.410167  1.669231
N    -0.718950  -1.397460  1.684646
C    -2.097996  -1.193043  1.264409
C    -2.851693  -0.516806  2.434842
O    -2.454791  -0.734063  3.615229
H    -0.551987  -2.303641  2.132440
H    -2.116373  -0.574694  0.358106
C    -2.805210  -2.558629  1.007678
C    -1.918205  -3.683494  0.437992
C    -2.173516  -5.074722  1.062706
N    -2.427676  -5.088722  2.515044
C    -1.670313  -4.543957  3.485966
N    -2.265781  -4.395043  4.759953
N    -0.466652  -4.026025  3.386583
H    -3.664404  -2.373284  0.351801
H    -3.227524  -2.892027  1.966684
H    -0.855380  -3.427841  0.528176
H    -2.080006  -3.791946  -0.642061
H    -1.335620  -5.744420  0.818642
H    -3.068698  -5.525441  0.618633
H    -3.233495  -5.629555  2.812595
H    -1.782153  -4.943231  5.472625
H    -3.267688  -4.577223  4.802751
H    0.041769  -4.342988  2.558568
N    -3.919504  0.238277  2.195630
C    -4.543735  0.564217  0.911764
H    -4.385957  0.585301  3.033432
H    -3.796545  0.623799  0.114581
H    -5.023937  1.543767  0.998116
H    -5.306034  -0.178259  0.642538
Ba    -0.524099  -1.816955  4.967450
