36
Energy: -246328.886047 eV PBE+vdW (tier 2 basis)
C    -1.388168  0.978017  2.707349
C    -0.952916  -0.454560  2.651670
O    -0.444060  -1.016331  3.666714
H    -2.446682  1.035913  3.006032
H    -1.282177  1.485052  1.742323
H    -0.795461  1.497897  3.466604
N    -1.126534  -1.158585  1.510604
C    -2.353515  -1.066239  0.712333
C    -3.587290  -1.455897  1.580094
O    -3.349857  -1.979711  2.766475
H    -0.725433  -2.096102  1.551659
H    -2.492458  -0.019502  0.411611
C    -2.236311  -1.956822  -0.541662
C    -1.733977  -1.264603  -1.814172
C    -2.811145  -0.526652  -2.616596
N    -3.199813  0.807087  -2.110252
C    -4.460630  1.181742  -1.795094
N    -4.847342  2.435793  -2.099501
N    -5.289044  0.337404  -1.182122
H    -3.221757  -2.398980  -0.738338
H    -1.575810  -2.805525  -0.304018
H    -1.332652  -2.035472  -2.487559
H    -0.887014  -0.594774  -1.598019
H    -3.724505  -1.131637  -2.680645
H    -2.452061  -0.378135  -3.644686
H    -2.586180  1.568211  -2.387141
H    -5.680492  2.838859  -1.687705
H    -4.407502  2.955884  -2.849869
H    -6.270875  0.592865  -1.149756
N    -4.730958  -1.228927  1.038053
C    -5.961272  -1.594547  1.725748
H    -4.968989  -0.351592  -0.423024
H    -5.790566  -2.174416  2.641934
H    -6.593898  -2.184952  1.049228
H    -6.524797  -0.686997  1.988306
Ba    -2.148971  -2.549731  4.688470
