36
Energy: -246328.083597 eV PBE+vdW (tier 2 basis)
C    -0.356545  0.177536  -0.326152
C    -0.584803  0.457078  1.128366
O    0.260336  1.140973  1.786195
H    -0.441429  1.129050  -0.872041
H    -1.070336  -0.533793  -0.754652
H    0.664212  -0.189442  -0.487586
N    -1.695503  -0.038460  1.685747
C    -2.368533  0.279920  2.956993
C    -1.488729  0.208648  4.207450
O    -0.333390  -0.338304  4.207805
H    -2.281365  -0.581767  1.056457
H    -2.729861  1.319847  2.885691
C    -3.601567  -0.647812  3.087750
C    -3.301677  -2.151457  3.199419
C    -4.494984  -2.962774  3.761993
N    -4.667528  -2.849963  5.207303
C    -5.088037  -1.690201  5.853259
N    -6.103217  -0.995300  5.201568
N    -4.608816  -1.206484  6.952456
H    -4.252763  -0.449987  2.221161
H    -4.189913  -0.317450  3.950485
H    -2.433317  -2.327341  3.855002
H    -3.031976  -2.571084  2.216770
H    -4.341992  -4.025677  3.536683
H    -5.423617  -2.677425  3.249223
H    -3.977256  -3.365068  5.745332
H    -6.531290  -0.309567  5.818582
H    -6.802778  -1.575851  4.745928
H    -3.822911  -1.763494  7.299055
N    -1.955326  0.734293  5.333992
C    -3.212681  1.425609  5.640909
H    -1.361302  0.548040  6.141823
H    -3.695487  1.790593  4.731171
H    -2.980961  2.283445  6.282313
H    -3.881472  0.732038  6.184507
Ba    1.829461  0.516884  3.519891
