36
Energy: -246328.342466 eV PBE+vdW (tier 2 basis)
C    -0.257607  0.202782  0.669268
C    -0.890534  0.575550  1.974278
O    -0.271035  1.351372  2.773641
H    -0.962307  0.287663  -0.164948
H    0.596838  0.861715  0.490403
H    0.098281  -0.838068  0.691025
N    -2.099565  0.100030  2.336391
C    -2.569929  -1.278236  2.147790
C    -1.620394  -2.205049  2.913621
O    -0.543464  -1.748584  3.448948
H    -2.476728  0.555955  3.167452
H    -3.570644  -1.328828  2.678279
C    -2.884376  -1.693093  0.692252
C    -3.742305  -0.674949  -0.070730
C    -5.071813  -0.273711  0.589108
N    -5.972643  -1.375880  0.889148
C    -6.238104  -1.798972  2.167509
N    -7.400499  -2.517115  2.301843
N    -5.373532  -1.570317  3.124005
H    -3.440398  -2.637058  0.740924
H    -1.971034  -1.910900  0.122900
H    -3.941312  -1.100974  -1.065001
H    -3.181076  0.254940  -0.250865
H    -5.586650  0.427247  -0.083131
H    -4.896586  0.263960  1.530269
H    -6.621505  -1.659227  0.164890
H    -7.652181  -2.840429  3.227451
H    -8.189535  -2.309326  1.699328
H    -5.761628  -1.807633  4.038103
N    -1.914569  -3.485979  3.087569
C    -3.131963  -4.221737  2.729834
H    -1.197492  -4.012063  3.584492
H    -3.024149  -4.707069  1.751838
H    -3.996187  -3.547456  2.736315
H    -3.287941  -4.996426  3.487691
Ba    0.826794  -0.013283  4.486153
