36
Energy: -246328.159085 eV PBE+vdW (tier 2 basis)
C    -0.285304  3.021107  1.126229
C    -0.258849  1.638150  1.684801
O    0.782774  1.184128  2.256013
H    0.310020  3.002624  0.198429
H    0.222443  3.719656  1.800993
H    -1.286154  3.388777  0.876241
N    -1.343232  0.835848  1.581179
C    -2.704276  1.303206  1.839481
C    -2.766166  1.768748  3.304041
O    -1.844171  1.425269  4.128110
H    -1.159950  -0.131691  1.851804
H    -2.935989  2.165951  1.174654
C    -3.741041  0.196249  1.546592
C    -3.646118  -0.491408  0.171870
C    -3.705251  0.391801  -1.093589
N    -4.801255  1.341018  -1.134693
C    -4.705575  2.635703  -0.679619
N    -5.900701  3.266113  -0.424709
N    -3.595295  3.265078  -0.386161
H    -4.736352  0.645259  1.658497
H    -3.673942  -0.582669  2.323629
H    -4.471911  -1.217475  0.140556
H    -2.726945  -1.094483  0.102226
H    -3.787618  -0.268725  -1.966320
H    -2.755835  0.928772  -1.228097
H    -5.674721  1.030872  -1.544932
H    -5.877942  4.276494  -0.510785
H    -6.768478  2.830495  -0.714445
H    -2.805881  2.796905  -0.838374
N    -3.762597  2.533505  3.716086
C    -4.849090  3.119919  2.923447
H    -3.756160  2.741287  4.714198
H    -5.120648  4.076746  3.380283
H    -5.730520  2.467124  2.926995
H    -4.519815  3.305970  1.895245
Ba    0.466892  0.846876  4.678560
