36
Energy: -246329.05635 eV PBE+vdW (tier 2 basis)
C    -0.481990  -0.686357  -0.477234
C    -0.258608  -0.511134  0.998033
O    0.941908  -0.454544  1.449512
H    0.011367  0.126345  -1.027447
H    -1.541578  -0.699170  -0.750944
H    -0.027283  -1.633281  -0.798744
N    -1.329848  -0.424147  1.762242
C    -1.514006  -0.361953  3.212637
C    -3.012281  -0.794280  3.360586
O    -3.725415  -0.785969  2.353191
H    -2.281030  -0.519079  1.341388
H    -0.860434  -1.100820  3.701920
C    -1.274991  1.051685  3.804233
C    0.179135  1.269796  4.235383
C    0.594661  2.739515  4.396281
N    2.056183  2.851054  4.505446
C    2.888246  2.552630  3.490428
N    4.196716  2.158780  3.796667
N    2.563392  2.463295  2.215771
H    -1.949543  1.203499  4.658030
H    -1.579653  1.788438  3.046043
H    0.827999  0.814927  3.475823
H    0.376823  0.735797  5.177009
H    0.166873  3.192573  5.298005
H    0.237720  3.351562  3.553916
H    2.450921  3.059705  5.416937
H    4.905736  2.670221  3.272074
H    4.437948  2.103337  4.784448
H    1.662971  2.899308  2.008104
N    -3.421640  -1.125812  4.594074
C    -4.796944  -1.512652  4.907117
H    -2.741746  -1.144174  5.346760
H    -5.223199  -0.832211  5.653963
H    -4.824655  -2.538519  5.293458
H    -5.386292  -1.456937  3.988229
Ba    3.287940  0.117268  1.438363
