36
Energy: -246328.274451 eV PBE+vdW (tier 2 basis)
C    0.129416  -0.223389  0.257664
C    -0.225453  0.125112  1.668873
O    0.690770  0.501968  2.466144
H    0.254228  -1.311753  0.147763
H    1.086928  0.250236  0.018183
H    -0.631869  0.102175  -0.457458
N    -1.499602  0.081555  2.129380
C    -2.460476  -1.023953  1.972642
C    -1.940358  -2.231538  2.805473
O    -0.725943  -2.242846  3.230970
H    -1.570209  0.526430  3.044898
H    -3.374604  -0.682860  2.486453
C    -2.850919  -1.405610  0.530728
C    -3.699779  -0.375027  -0.231896
C    -5.107948  -0.087929  0.345757
N    -5.841557  -1.296370  0.744353
C    -5.638133  -1.880320  1.977291
N    -5.569030  -0.997476  3.048432
N    -5.430452  -3.144581  2.223320
H    -3.407408  -2.347991  0.600962
H    -1.960521  -1.655213  -0.057515
H    -3.810971  -0.756316  -1.257905
H    -3.170343  0.586065  -0.325978
H    -5.697630  0.451264  -0.406266
H    -5.042590  0.578445  1.213404
H    -5.970754  -1.972346  -0.004708
H    -5.698034  -1.477549  3.935528
H    -6.166941  -0.178315  2.973054
H    -5.456160  -3.709225  1.369903
N    -2.785214  -3.194446  3.088841
C    -2.426243  -4.377957  3.866855
H    -3.810070  -3.149187  2.769769
H    -3.309757  -5.019925  3.924742
H    -2.122840  -4.101295  4.885000
H    -1.609089  -4.930570  3.387202
Ba    1.341842  -1.281845  4.041989
