36
Energy: -246329.047568 eV PBE+vdW (tier 2 basis)
C    -2.159118  -0.843789  0.327318
C    -1.622373  -0.684214  1.721703
O    -0.565535  0.083472  1.843883
H    -3.029281  -1.504983  0.286905
H    -1.374004  -1.238398  -0.331578
H    -2.445038  0.138903  -0.071782
N    -2.219237  -1.309727  2.704093
C    -1.664596  -1.197293  4.074144
C    -1.581277  0.263535  4.552469
O    -0.481420  0.889159  4.663493
H    -3.450680  -2.707571  2.303841
H    -2.419775  -1.660355  4.727756
C    -0.333647  -1.979154  4.249859
C    -0.358345  -3.232107  5.157057
C    -1.557087  -4.193809  5.031969
N    -2.071215  -4.249922  3.651345
C    -3.375826  -4.429240  3.355130
N    -4.086318  -5.354204  4.014590
N    -3.911665  -3.638457  2.424201
H    0.432322  -1.312246  4.670921
H    0.025623  -2.254786  3.247525
H    -0.313105  -2.930212  6.212342
H    0.570835  -3.785548  4.965342
H    -2.380481  -3.873485  5.687976
H    -1.243732  -5.190560  5.371287
H    -1.604768  -3.639429  2.985429
H    -3.619777  -6.118416  4.489368
H    -5.090987  -5.421459  3.903961
H    -4.802795  -3.849913  1.990515
N    -2.718327  0.885646  4.858553
C    -4.078050  0.348127  4.815126
H    -2.604069  1.837150  5.203563
H    -4.191155  -0.321806  3.957251
H    -4.774711  1.183449  4.694270
H    -4.326859  -0.177947  5.746944
Ba    1.088326  1.363074  2.832398
