36
Energy: -246328.163546 eV PBE+vdW (tier 2 basis)
C    0.004244  0.323755  0.628265
C    -0.594167  1.101001  1.808968
O    0.351578  1.580468  2.629382
H    -0.685405  0.060696  -0.179039
H    0.444511  -0.615065  0.984824
H    0.811879  0.937299  0.215143
N    -1.504058  0.252003  2.715824
C    -2.382576  -0.862227  2.317686
C    -1.557033  -2.170418  2.474613
O    -0.343483  -2.107887  2.809922
H    -2.024395  0.913152  3.291930
H    -3.138187  -0.928664  3.121458
C    -3.170807  -0.718405  0.988334
C    -4.452375  0.131219  1.053152
C    -4.313513  1.650511  1.258959
N    -3.531609  2.316217  0.207093
C    -2.190514  2.323011  0.157103
N    -1.560468  2.418779  -1.020762
N    -1.454346  2.269836  1.296381
H    -3.470536  -1.714365  0.643343
H    -2.505502  -0.354235  0.196907
H    -5.107354  -0.240723  1.857581
H    -5.010928  -0.034704  0.120230
H    -3.876990  1.891251  2.236450
H    -5.307869  2.112119  1.255273
H    -4.042750  2.636388  -0.612665
H    -0.605057  2.757924  -1.042668
H    -2.039979  2.290628  -1.905437
H    -1.904575  2.731666  2.084929
N    -2.138571  -3.364638  2.332870
C    -3.545567  -3.718124  2.145644
H    -1.493032  -4.141872  2.466688
H    -4.205927  -2.945547  2.552630
H    -3.740565  -4.646234  2.693365
H    -3.784879  -3.887035  1.087455
Ba    0.924143  -0.234124  4.050415
