36
Energy: -246328.506405 eV PBE+vdW (tier 2 basis)
C    -2.152681  1.173959  -1.250518
C    -1.972734  0.478763  0.062036
O    -1.800701  -0.777618  0.107682
H    -2.359188  2.244827  -1.153260
H    -2.964764  0.698483  -1.814684
H    -1.234107  1.042160  -1.840284
N    -1.983961  1.222534  1.175939
C    -1.640733  0.791369  2.548633
C    -2.890512  0.128208  3.169194
O    -3.242280  -1.018099  2.722163
H    -2.137225  2.221216  1.054717
H    -0.888732  -0.008084  2.453962
C    -1.012269  2.005526  3.257452
C    -0.193047  1.765270  4.537465
C    -0.951428  1.352308  5.804424
N    -2.115491  2.220318  6.027890
C    -3.082692  1.949143  7.048804
N    -3.013000  0.667465  7.582702
N    -4.049219  2.725431  7.358326
H    -1.786580  2.769790  3.432933
H    -0.321144  2.448579  2.525347
H    0.342401  2.705312  4.738512
H    0.594263  1.020658  4.347148
H    -0.240971  1.367608  6.648384
H    -1.319944  0.319832  5.718158
H    -1.877047  3.211743  6.027745
H    -3.701782  0.556926  8.324715
H    -2.094248  0.346792  7.877526
H    -4.064301  3.595476  6.819891
N    -3.584229  0.758303  4.088179
C    -4.809377  0.219570  4.683344
H    -3.142683  1.566202  4.585947
H    -5.285537  1.016807  5.260239
H    -5.486458  -0.128490  3.896528
H    -4.573143  -0.610191  5.361992
Ba    -2.773601  -2.754066  1.118720
