36
Energy: -246329.407776 eV PBE+vdW (tier 2 basis)
C    0.318502  0.437220  0.247489
C    0.311362  0.427041  1.742347
O    1.373197  0.376833  2.411950
H    0.329098  1.475238  -0.120913
H    -0.552216  -0.070372  -0.182612
H    1.240088  -0.039360  -0.101711
N    -0.872090  0.514363  2.421558
C    -2.032750  1.284942  1.983637
C    -1.587385  2.752542  1.769208
O    -0.664440  3.224961  2.489662
H    -0.795388  0.314784  3.429351
H    -2.432107  0.864173  1.047808
C    -3.132911  1.289508  3.065555
C    -3.666197  -0.077788  3.512977
C    -2.831382  -0.821009  4.564652
N    -2.592093  -0.047550  5.790881
C    -1.366379  0.180447  6.331523
N    -1.302899  0.169896  7.684120
N    -0.299612  0.425807  5.559078
H    -3.966933  1.882458  2.667357
H    -2.765028  1.846025  3.943723
H    -3.803314  -0.747851  2.651170
H    -4.673590  0.081605  3.924408
H    -1.856487  -1.143730  4.184084
H    -3.364228  -1.742136  4.842756
H    -3.372476  -0.007956  6.440739
H    -0.492742  0.532644  8.169955
H    -2.001227  -0.300293  8.249171
H    0.524595  0.105172  6.082784
N    -2.234493  3.464292  0.855214
C    -2.023309  4.886160  0.583007
H    -2.951212  2.989457  0.311488
H    -2.937779  5.448904  0.806304
H    -1.765524  5.026492  -0.473219
H    -1.207697  5.250055  1.211722
Ba    1.045600  2.264875  4.117929
