36
Energy: -246329.966801 eV PBE+vdW (tier 2 basis)
C    1.324355  -1.121191  1.038948
C    0.194180  -1.011919  2.018469
O    0.087013  -1.827325  2.967914
H    1.324028  -0.339536  0.272169
H    1.267878  -2.102222  0.547928
H    2.276732  -1.090009  1.583579
N    -0.691608  -0.009665  1.823574
C    -1.937919  0.267106  2.568499
C    -1.601913  0.872242  3.947705
O    -1.138082  0.171063  4.879234
H    -0.507977  0.593988  1.028375
H    -2.441844  1.046613  1.979471
C    -2.878061  -0.955570  2.586048
C    -4.276311  -0.766611  3.189610
C    -4.402053  -0.717315  4.721880
N    -3.593184  -1.716763  5.443765
C    -3.720849  -3.110883  5.296712
N    -4.842737  -3.595404  4.725879
N    -2.668679  -3.796171  5.672731
H    -2.379904  -1.816097  3.047141
H    -3.003878  -1.239710  1.531847
H    -4.891756  -1.589055  2.802039
H    -4.746421  0.148950  2.799219
H    -5.471098  -0.776754  4.989465
H    -4.059258  0.252022  5.105905
H    -3.467552  -1.470229  6.423165
H    -4.933363  -4.589385  4.546362
H    -5.704871  -3.062143  4.734145
H    -2.835295  -4.803608  5.717141
N    -1.828526  2.181229  4.083332
C    -1.538979  2.957068  5.287335
H    -2.186007  2.689034  3.279646
H    -2.385019  3.616569  5.509642
H    -0.638722  3.567849  5.141570
H    -1.376015  2.271200  6.122218
Ba    -0.515232  -2.251296  5.366399
