36
Energy: -246327.849155 eV PBE+vdW (tier 2 basis)
C    0.129093  0.067067  0.327265
C    0.351128  0.396965  1.768104
O    1.511365  0.662414  2.207609
H    -0.043204  0.988453  -0.252169
H    -0.728107  -0.597101  0.174453
H    1.036678  -0.400949  -0.069229
N    -0.698859  0.443986  2.619148
C    -1.979255  1.063238  2.275510
C    -1.721540  2.554452  1.954320
O    -0.611392  3.099264  2.297517
H    -0.435055  0.548737  3.599242
H    -2.384051  0.578877  1.374820
C    -2.990973  0.889031  3.421839
C    -3.628490  -0.503746  3.453277
C    -4.890884  -0.578023  4.347673
N    -5.797786  0.561986  4.242271
C    -6.201037  1.160047  3.057644
N    -6.246269  0.307092  1.956256
N    -6.468015  2.414377  2.881634
H    -3.781654  1.638783  3.293006
H    -2.499810  1.138710  4.378220
H    -2.915380  -1.267287  3.797066
H    -3.909974  -0.770801  2.424933
H    -4.604242  -0.640951  5.405067
H    -5.409697  -1.523875  4.125536
H    -5.818536  1.183205  5.041518
H    -6.775383  0.731976  1.198351
H    -6.577371  -0.634700  2.152820
H    -6.347266  2.957323  3.741073
N    -2.647707  3.256699  1.327476
C    -3.953256  2.822966  0.815557
H    -2.425026  4.245553  1.211182
H    -4.171069  3.405552  -0.085125
H    -4.761399  2.978975  1.555694
H    -3.933689  1.760862  0.551990
Ba    1.782549  3.052693  2.800960
