36
Energy: -246329.451807 eV PBE+vdW (tier 2 basis)
C    0.550398  -1.567813  1.066172
C    0.008775  -0.629174  2.100926
O    0.796406  0.080472  2.794644
H    1.112330  -0.984945  0.323707
H    -0.225815  -2.143667  0.551392
H    1.261371  -2.259682  1.535276
N    -1.319138  -0.555774  2.255797
C    -2.031390  0.386740  3.139233
C    -1.998290  -0.097351  4.607576
O    -0.963196  0.355992  5.285854
H    -1.885098  -1.168177  1.675374
H    -1.428371  1.306531  3.132210
C    -3.389971  0.765619  2.528434
C    -4.428943  -0.356154  2.316903
C    -5.594066  -0.254191  3.315256
N    -6.472089  -1.422740  3.309483
C    -6.178200  -2.576207  3.929583
N    -7.063061  -3.589646  3.886494
N    -5.016098  -2.714784  4.568555
H    -3.175759  1.253541  1.567531
H    -3.814708  1.554215  3.166773
H    -3.965108  -1.349149  2.414157
H    -4.830500  -0.306479  1.296118
H    -6.219298  0.617190  3.085057
H    -5.207434  -0.111807  4.333336
H    -7.305970  -1.394636  2.734013
H    -6.861013  -4.480643  4.320741
H    -8.006376  -3.452783  3.546367
H    -4.859529  -3.544645  5.126794
N    -2.907241  -0.884022  5.079328
C    -2.765784  -1.260027  6.487954
H    -4.269936  -1.970576  4.596414
H    -3.713778  -1.674419  6.852145
H    -2.497369  -0.404772  7.123052
H    -1.987432  -2.028527  6.619604
Ba    1.273429  0.937563  5.048220
