36
Energy: -246329.962643 eV PBE+vdW (tier 2 basis)
C    -1.317072  0.885002  -0.008792
C    -1.322804  0.293111  1.369855
O    -1.136543  -0.938942  1.538983
H    -2.137012  0.432691  -0.583865
H    -0.382950  0.615355  -0.517187
H    -1.433300  1.973691  -0.024998
N    -1.542608  1.140305  2.397214
C    -1.753373  0.832564  3.826290
C    -0.430167  0.439182  4.511820
O    0.211838  -0.591865  4.192823
H    -1.673289  2.113716  2.140124
H    -2.071560  1.791592  4.258729
C    -2.915114  -0.160076  4.051959
C    -3.370519  -0.314518  5.516602
C    -2.805090  -1.532289  6.266396
N    -3.202411  -2.800570  5.657321
C    -2.421297  -3.566214  4.855238
N    -3.053336  -4.424896  3.996880
N    -1.100566  -3.496208  4.792740
H    -2.671475  -1.138061  3.619093
H    -3.749608  0.227684  3.452490
H    -4.467218  -0.383914  5.532819
H    -3.134196  0.587481  6.102872
H    -3.157176  -1.522328  7.306136
H    -1.709761  -1.494907  6.313748
H    -4.174090  -3.073158  5.771056
H    -2.589772  -5.310124  3.822373
H    -4.066706  -4.463412  3.976837
H    -0.732278  -3.040843  5.631624
N    -0.006757  1.246784  5.485251
C    1.224160  1.025239  6.244265
H    -0.539729  2.087183  5.684014
H    1.256024  1.737154  7.073138
H    2.104490  1.175225  5.606692
H    1.244863  0.004829  6.643259
Ba    0.226369  -2.665593  2.724653
