36
Energy: -246329.447086 eV PBE+vdW (tier 2 basis)
C    -1.208772  -2.506403  0.595816
C    -0.879492  -1.964000  1.948966
O    0.191540  -2.298198  2.543509
H    -0.663990  -3.441570  0.439223
H    -2.282739  -2.683401  0.464401
H    -0.892306  -1.787180  -0.174633
N    -1.709807  -1.108965  2.558902
C    -2.898062  -0.439921  2.028591
C    -2.539245  0.442636  0.800019
O    -1.406017  0.939886  0.665536
H    -1.413085  -0.835848  3.492016
H    -3.613720  -1.214063  1.710183
C    -3.583687  0.374747  3.155812
C    -3.010463  1.741039  3.582548
C    -1.622946  1.795121  4.239502
N    -0.562328  1.681470  3.236985
C    0.607379  1.053386  3.373352
N    1.305358  0.755400  2.158374
N    1.184508  0.580368  4.455644
H    -3.668411  -0.288932  4.031493
H    -4.618292  0.551483  2.832366
H    -3.720559  2.155472  4.311290
H    -3.028696  2.447469  2.737062
H    -1.504659  0.994508  4.990236
H    -1.515783  2.747766  4.778185
H    -0.849894  1.849771  2.266467
H    2.071946  1.415744  2.007407
H    0.674253  0.786452  1.348426
H    0.752711  0.888087  5.328554
N    -3.547515  0.641756  -0.058708
C    -3.467417  1.502576  -1.237220
H    -4.430321  0.170022  0.115609
H    -2.465404  1.936026  -1.283941
H    -4.211534  2.305293  -1.169730
H    -3.654782  0.917221  -2.145371
Ba    2.328454  -1.555126  3.491681
