36
Energy: -246329.255634 eV PBE+vdW (tier 2 basis)
C    -0.432558  -3.477672  0.028335
C    -0.526512  -1.986943  0.060754
O    0.290719  -1.274967  -0.617477
H    0.382612  -3.808981  0.688759
H    -0.174749  -3.797724  -0.987428
H    -1.356579  -3.971666  0.344717
N    -1.446826  -1.365456  0.788770
C    -2.343201  -1.817744  1.846879
C    -3.161093  -0.535927  2.175757
O    -2.679964  0.578367  1.898820
H    -1.465375  -0.336419  0.751994
H    -3.025281  -2.591503  1.465012
C    -1.595570  -2.382677  3.097920
C    -0.232248  -1.756032  3.424476
C    -0.237214  -0.301782  3.946722
N    1.019787  0.386218  3.628863
C    1.254691  1.014422  2.462612
N    2.608055  1.267982  2.107650
N    0.386086  1.357646  1.542988
H    -1.435165  -3.457163  2.936088
H    -2.273404  -2.313782  3.961160
H    0.405132  -1.792210  2.528890
H    0.265100  -2.400531  4.162301
H    -0.361948  -0.273381  5.035467
H    -1.063303  0.282609  3.527302
H    1.777466  0.320320  4.301511
H    2.806352  2.269511  2.068342
H    3.303046  0.811240  2.698273
H    -0.594174  1.293981  1.841828
N    -4.340601  -0.725767  2.774254
C    -5.227600  0.356182  3.198302
H    -4.664657  -1.679015  2.908844
H    -4.752043  1.310051  2.957177
H    -5.407520  0.296892  4.278403
H    -6.185909  0.284971  2.670230
Ba    1.553692  0.805027  -0.710080
