36
Energy: -246329.491757 eV PBE+vdW (tier 2 basis)
C    -0.072571  -0.120672  1.941285
C    0.088987  1.245245  1.328806
O    1.265859  1.767295  1.290878
H    -0.059867  -0.894505  1.158532
H    -1.012687  -0.232997  2.495891
H    0.771340  -0.315419  2.609890
N    -0.892306  1.965687  0.766991
C    -2.157542  1.360925  0.373371
C    -2.035797  0.949521  -1.118077
O    -1.077622  1.376173  -1.820104
H    -0.856318  3.384085  2.070140
H    -2.369866  0.434315  0.937451
C    -3.340989  2.341855  0.583601
C    -4.039585  2.221694  1.945171
C    -3.242806  2.617175  3.191967
N    -3.023437  4.066088  3.325899
C    -1.838767  4.692312  3.352191
N    -1.737280  5.883031  3.966292
N    -0.766755  4.154734  2.757314
H    -4.103836  2.173673  -0.189154
H    -2.970408  3.364979  0.415378
H    -4.369478  1.181659  2.094484
H    -4.965250  2.816409  1.918972
H    -2.264720  2.124081  3.236111
H    -3.794751  2.294255  4.085950
H    -3.830977  4.619878  3.597681
H    -0.947841  6.494562  3.798421
H    -2.424157  6.188770  4.645385
H    0.162372  4.422384  3.058521
N    -2.970286  0.141076  -1.611881
C    -3.040839  -0.319278  -2.997972
H    -3.693567  -0.186848  -0.977747
H    -3.995791  -0.017092  -3.444135
H    -2.957314  -1.412079  -3.035179
H    -2.218421  0.128495  -3.560213
Ba    0.968145  2.616923  -1.034191
