36
Energy: -246329.663865 eV PBE+vdW (tier 2 basis)
C    -0.964819  -1.934573  -0.146585
C    -0.781078  -1.252621  1.172844
O    0.359836  -0.978874  1.619616
H    -2.014093  -2.045109  -0.439805
H    -0.501115  -2.929472  -0.101149
H    -0.429736  -1.369706  -0.920733
N    -1.890806  -0.927213  1.880666
C    -1.807642  -0.254081  3.173727
C    -1.425055  -1.242046  4.302836
O    -0.221475  -1.288711  4.668764
H    -2.799587  -1.179771  1.502825
H    -0.923166  0.383958  3.103198
C    -2.994243  0.662078  3.494082
C    -3.098461  1.949232  2.645665
C    -1.786442  2.694120  2.321470
N    -0.868810  2.793006  3.467427
C    0.428828  2.395826  3.488987
N    1.105243  2.225892  2.265561
N    1.137945  2.039524  4.532121
H    -2.897669  0.930523  4.556451
H    -3.951405  0.121405  3.421531
H    -3.785273  2.629642  3.168044
H    -3.577729  1.738341  1.679352
H    -2.030453  3.693865  1.936086
H    -1.269868  2.157952  1.514786
H    -1.296077  2.928037  4.379208
H    2.019738  2.675867  2.306288
H    0.613502  2.532286  1.430037
H    0.673440  2.209129  5.426616
N    -2.375789  -2.005994  4.832567
C    -2.164734  -3.001465  5.883996
H    -3.325759  -1.888913  4.491238
H    -2.837005  -2.797443  6.725320
H    -1.127873  -2.943007  6.222401
H    -2.369203  -4.007234  5.496930
Ba    1.908497  -0.376973  3.570554
