36
Energy: -246329.376832 eV PBE+vdW (tier 2 basis)
C    -0.673399  -1.606733  0.658598
C    0.033776  -0.675588  1.592222
O    1.279563  -0.506430  1.533701
H    -1.011755  -1.057736  -0.234292
H    -1.545118  -2.085775  1.118272
H    0.034107  -2.371612  0.322883
N    -0.675747  0.016696  2.523391
C    -1.983699  0.605778  2.286239
C    -1.825432  1.711874  1.203117
O    -0.674588  2.098174  0.849271
H    -0.081299  0.562791  3.148349
H    -2.638279  -0.164672  1.853116
C    -2.637794  1.044108  3.628829
C    -1.755688  1.779246  4.650390
C    -1.504928  3.283226  4.397640
N    -0.244888  3.753430  4.962547
C    0.965876  3.515889  4.389702
N    2.065396  3.687932  5.154347
N    1.082351  3.106699  3.129117
H    -2.998164  0.120404  4.100482
H    -3.536616  1.637529  3.414176
H    -0.787230  1.271081  4.771118
H    -2.235942  1.668198  5.631904
H    -2.304258  3.884928  4.846344
H    -1.538370  3.530208  3.324548
H    -0.271938  4.178114  5.882863
H    2.967813  3.788365  4.710357
H    2.004658  3.937615  6.133309
H    0.162548  3.219681  2.690728
N    -2.911505  2.218841  0.621475
C    -4.320854  1.872061  0.813006
H    -2.712658  2.936670  -0.074654
H    -4.829749  1.946294  -0.153697
H    -4.807600  2.559284  1.517059
H    -4.430490  0.845562  1.175269
Ba    1.931537  1.903889  1.018707
