36
Energy: -246328.787201 eV PBE+vdW (tier 2 basis)
C    0.252030  -0.251507  1.392924
C    -0.364242  0.279415  2.519654
O    0.319276  0.939054  3.419803
H    -0.484998  1.363100  0.090539
H    -0.243099  -0.909030  0.684164
H    1.258203  0.087610  1.147106
N    -1.694521  0.040534  2.873495
C    -2.446475  -1.155912  2.534750
C    -1.653135  -2.445792  2.916185
O    -0.658568  -2.390534  3.685455
H    -1.880127  0.415001  3.799472
H    -3.300143  -1.161586  3.233784
C    -3.062975  -1.141186  1.115481
C    -3.984014  0.067891  0.869849
C    -3.317487  1.371081  0.419744
N    -2.877091  1.324462  -0.985811
C    -1.744025  1.845886  -1.485318
N    -1.716782  2.241519  -2.768945
N    -0.646338  1.962143  -0.730679
H    -3.679023  -2.042890  0.988075
H    -2.284051  -1.200859  0.342526
H    -4.549051  0.294486  1.786288
H    -4.746585  -0.211057  0.126864
H    -2.459356  1.616513  1.051026
H    -4.038590  2.196174  0.520530
H    -3.605346  1.132232  -1.668850
H    -0.840698  2.399524  -3.252161
H    -2.568217  2.447835  -3.277569
H    0.134875  2.516298  -1.059782
N    -2.104240  -3.615401  2.469012
C    -1.527118  -4.904786  2.849953
H    -2.913523  -3.621543  1.858595
H    -2.166303  -5.700814  2.459301
H    -1.472048  -4.989236  3.941238
H    -0.519988  -5.018887  2.430076
Ba    1.464213  -1.070754  4.087331
