36
Energy: -246328.658143 eV PBE+vdW (tier 2 basis)
C    0.197321  0.144018  0.234408
C    -0.033290  0.138473  1.709924
O    0.805718  0.688561  2.507334
H    -0.757324  0.127909  -0.313397
H    0.790553  -0.738223  -0.050158
H    0.775723  1.033378  -0.037221
N    -1.132081  -0.456934  2.165197
C    -1.640583  -0.373838  3.538942
C    -0.939341  -1.397650  4.451542
O    0.247715  -1.170318  4.842143
H    -1.833407  -0.840440  1.466640
H    -1.309951  0.598108  3.941632
C    -3.186339  -0.316432  3.528035
C    -4.098641  -1.505416  3.131533
C    -3.797568  -2.335655  1.866721
N    -3.228474  -1.572778  0.749835
C    -3.878718  -0.470622  0.106453
N    -5.218170  -0.322740  0.386303
N    -3.102575  0.292448  -0.572302
H    -3.425902  0.527431  2.864784
H    -3.502766  0.008380  4.529726
H    -5.096103  -1.057355  3.035428
H    -4.223675  -2.219644  3.964096
H    -4.713023  -2.889752  1.596036
H    -3.046447  -3.108049  2.091262
H    -2.786872  -2.164781  0.048589
H    -5.788288  -1.158732  0.477037
H    -5.695237  0.437920  -0.087442
H    -3.607987  1.005170  -1.104569
N    -1.577362  -2.494308  4.824990
C    -1.006360  -3.522465  5.696786
H    -2.537590  -2.606212  4.511928
H    -1.770999  -4.280007  5.886402
H    -0.690838  -3.082107  6.649913
H    -0.141324  -3.995400  5.216775
Ba    2.111596  0.387717  4.463659
