36
Energy: -246329.735708 eV PBE+vdW (tier 2 basis)
C    0.538648  1.059905  0.055237
C    0.220548  0.502046  1.412658
O    1.071959  0.556829  2.331365
H    0.770823  2.128387  0.156185
H    -0.265867  0.938966  -0.677607
H    1.444870  0.569124  -0.323087
N    -1.006848  -0.044984  1.564594
C    -1.672464  -0.700109  2.714875
C    -1.840174  0.259867  3.909290
O    -0.853425  0.673521  4.572694
H    -1.578590  -0.018479  0.726368
H    -2.674607  -0.903994  2.323189
C    -1.111962  -2.091291  3.113992
C    0.155527  -2.113530  3.968332
C    0.766767  -3.499204  4.189217
N    1.669051  -3.555830  5.344898
C    2.857090  -2.891245  5.482013
N    3.812081  -3.555779  6.179838
N    3.030415  -1.660663  5.012463
H    -0.949543  -2.642297  2.175359
H    -1.919490  -2.621661  3.642190
H    -0.069329  -1.692230  4.960922
H    0.918332  -1.510470  3.462114
H    1.284384  -3.831623  3.275162
H    -0.024753  -4.231203  4.396018
H    1.584524  -4.398157  5.902790
H    4.637884  -3.075996  6.514405
H    3.790695  -4.561816  6.294803
H    4.034549  -1.454940  5.029077
N    -3.077194  0.628059  4.250346
C    -4.357019  0.285909  3.621732
H    -3.113191  1.243930  5.061524
H    -4.404400  0.641920  2.585154
H    -5.149916  0.787499  4.183521
H    -4.550595  -0.793214  3.659649
Ba    1.688583  0.625280  4.748805
