36
Energy: -246329.94364 eV PBE+vdW (tier 2 basis)
C    -1.196509  1.472420  -0.215919
C    -0.873872  0.892499  1.129296
O    0.245827  1.085720  1.661156
H    -2.193635  1.210063  -0.584434
H    -0.444992  1.131162  -0.939814
H    -1.113347  2.566075  -0.160963
N    -1.833012  0.155888  1.728066
C    -1.799637  -0.528765  3.037211
C    -1.634829  0.503003  4.184886
O    -0.499610  0.910903  4.534971
H    -2.699746  0.057634  1.209350
H    -2.802032  -0.967518  3.119521
C    -0.765420  -1.669652  3.205292
C    -0.243824  -2.338114  1.934370
C    0.816135  -3.427039  2.213695
N    1.790110  -3.090380  3.262738
C    2.508310  -1.949707  3.333093
N    3.035918  -1.598900  4.588267
N    2.660180  -1.042812  2.398921
H    -1.226502  -2.419887  3.865029
H    0.081545  -1.274213  3.777880
H    0.170124  -1.577945  1.260041
H    -1.056547  -2.826402  1.378232
H    1.332274  -3.686915  1.277187
H    0.324694  -4.344013  2.560075
H    1.946937  -3.793999  3.976224
H    2.825592  -2.226668  5.361528
H    4.030842  -1.380543  4.552590
H    2.406134  -1.376203  1.468481
N    -2.753296  0.921486  4.773698
C    -2.796140  1.900696  5.859183
H    -3.638358  0.550360  4.441826
H    -3.675243  1.702622  6.479493
H    -2.860833  2.921575  5.460471
H    -1.891734  1.807608  6.467328
Ba    1.864630  1.193192  3.555544
