36
Energy: -246328.510434 eV PBE+vdW (tier 2 basis)
C    -1.726219  1.365546  0.781477
C    -1.271472  0.982190  2.145053
O    -0.060018  1.191651  2.515876
H    -1.590103  2.449210  0.655195
H    -2.778803  1.100546  0.599435
H    -1.079326  0.879017  0.038287
N    -2.133453  0.413896  2.988553
C    -1.743545  0.080849  4.354720
C    -0.653187  -1.014517  4.391063
O    0.482808  -0.681679  4.866380
H    -3.158278  0.273589  2.737166
H    -1.191373  0.947513  4.749500
C    -2.922863  -0.092651  5.347444
C    -4.169822  -0.949198  5.047063
C    -5.253446  -0.281770  4.190855
N    -4.851070  -0.155761  2.782249
C    -5.479116  0.763461  1.877808
N    -6.447623  1.569864  2.418855
N    -4.979731  0.782048  0.694580
H    -3.265160  0.928157  5.576396
H    -2.466276  -0.457146  6.279618
H    -4.632669  -1.163560  6.021121
H    -3.914131  -1.934476  4.637573
H    -5.439588  0.728491  4.580125
H    -6.189318  -0.854956  4.297981
H    -4.801066  -1.056740  2.306104
H    -7.055824  1.210660  3.147103
H    -6.904793  2.215407  1.783994
H    -5.502291  1.382398  0.052702
N    -0.814913  -2.251051  3.933794
C    -1.934542  -2.879386  3.236355
H    0.002578  -2.843349  4.081638
H    -1.532005  -3.500447  2.428083
H    -2.582847  -2.120756  2.795410
H    -2.508993  -3.521331  3.915191
Ba    1.914457  1.051182  3.860843
