36
Energy: -246330.117241 eV PBE+vdW (tier 2 basis)
C    -1.012977  -0.717275  -0.008532
C    -0.698764  -0.684335  1.457575
O    0.410998  -1.090002  1.885645
H    -1.991048  -0.295260  -0.261994
H    -0.977690  -1.761050  -0.349737
H    -0.233607  -0.173838  -0.557609
N    -1.656331  -0.205281  2.280328
C    -1.663224  -0.176723  3.757166
C    -0.603614  0.808307  4.306160
O    0.605194  0.481147  4.429457
H    -2.515818  0.093270  1.830020
H    -2.651030  0.228709  4.018775
C    -1.541766  -1.574226  4.382544
C    -1.656396  -1.580398  5.915563
C    -0.865509  -2.730383  6.554770
N    0.560985  -2.565956  6.279934
C    1.423458  -3.475654  5.748876
N    1.138728  -4.786069  5.936104
N    2.456431  -3.022498  5.046041
H    -0.584840  -2.016645  4.079617
H    -2.322560  -2.207014  3.939139
H    -2.706910  -1.656473  6.227188
H    -1.287037  -0.634022  6.344567
H    -1.188048  -3.692949  6.135741
H    -1.054334  -2.759350  7.637604
H    0.949075  -1.640001  6.420763
H    1.702304  -5.493161  5.480663
H    0.592332  -5.091479  6.733266
H    3.178202  -3.742861  4.959792
N    -1.047672  2.012400  4.661883
C    -0.207198  3.083637  5.194460
H    -2.035260  2.213511  4.535470
H    -0.800689  3.690554  5.884908
H    0.165205  3.724529  4.384540
H    0.641182  2.647144  5.728878
Ba    2.402966  -0.987014  3.399922
