36
Energy: -246328.622426 eV PBE+vdW (tier 2 basis)
C    0.957801  -0.628011  0.175778
C    0.230016  -0.768594  1.474412
O    0.396954  -1.812792  2.192194
H    0.763597  0.332868  -0.311227
H    0.647812  -1.444668  -0.490987
H    2.036435  -0.743161  0.344289
N    -0.579237  0.223049  1.832361
C    -1.507449  0.274928  2.977329
C    -0.723965  0.311176  4.300772
O    -0.358051  -0.757291  4.880658
H    -0.726491  1.009794  1.141113
H    -1.988496  1.252037  2.865851
C    -2.625480  -0.793240  2.998565
C    -3.378807  -1.058245  1.682813
C    -4.335760  0.027522  1.148785
N    -3.711559  1.300107  0.775698
C    -2.591495  1.402525  -0.021355
N    -2.455630  0.434363  -0.990423
N    -1.611400  2.256484  0.136939
H    -3.330033  -0.496801  3.791922
H    -2.203351  -1.754329  3.330005
H    -3.993197  -1.956438  1.844161
H    -2.662299  -1.327568  0.893856
H    -5.102617  0.266721  1.897110
H    -4.886235  -0.395163  0.293842
H    -3.838588  2.068151  1.423265
H    -1.775929  0.684700  -1.702360
H    -3.308539  0.037742  -1.372202
H    -1.832626  2.952891  0.854567
N    -0.425660  1.489279  4.835616
C    -0.722100  2.829383  4.317617
H    0.077313  1.438270  5.721053
H    -0.388371  2.934313  3.278830
H    -0.171055  3.553191  4.924577
H    -1.791724  3.061057  4.400316
Ba    0.529349  -2.953504  4.279746
