36
Energy: -246328.154432 eV PBE+vdW (tier 2 basis)
C    -0.103479  0.250982  -0.014863
C    -0.177633  -0.056958  1.448352
O    0.849504  -0.477968  2.060491
H    -1.027764  0.671182  -0.424549
H    0.131113  -0.679318  -0.552043
H    0.724477  0.945682  -0.204159
N    -1.356566  0.123867  2.062512
C    -1.803957  -0.270445  3.414797
C    -1.216850  0.613030  4.524901
O    0.047401  0.701906  4.670397
H    -2.098276  0.472956  1.462161
H    -2.885742  -0.098841  3.389154
C    -1.619813  -1.768041  3.755949
C    -2.304721  -2.060802  5.090586
C    -2.516444  -3.528400  5.496308
N    -3.272548  -3.591412  6.753228
C    -4.569481  -3.019625  6.732467
N    -5.469337  -3.782740  6.022237
N    -4.762380  -1.877092  7.304689
H    -0.553892  -2.043072  3.772736
H    -2.077362  -2.347802  2.940881
H    -3.305290  -1.602457  5.078259
H    -1.762218  -1.561938  5.910942
H    -1.563209  -4.056674  5.640299
H    -3.070114  -4.067512  4.715792
H    -2.759003  -3.139613  7.510012
H    -6.439142  -3.487629  6.027270
H    -5.334675  -4.788687  6.052681
H    -5.761047  -1.655406  7.380523
N    -2.013783  1.239982  5.376886
C    -3.474513  1.220891  5.527638
H    -1.506556  1.737603  6.110320
H    -3.970961  1.122505  4.557862
H    -3.778175  2.175482  5.968596
H    -3.785024  0.397007  6.191183
Ba    2.220762  -0.123856  4.008535
