36
Energy: -246328.822769 eV PBE+vdW (tier 2 basis)
C    0.733710  0.627124  0.327269
C    0.199056  -0.449274  1.215447
O    0.846145  -1.531146  1.387887
H    0.083538  1.506811  0.277284
H    0.864485  0.224422  -0.686365
H    1.725447  0.934374  0.684357
N    -0.974737  -0.263986  1.823056
C    -1.603881  -1.273023  2.681732
C    -3.145436  -1.373797  2.558059
O    -3.608283  -2.507389  2.434086
H    -1.449770  0.619899  1.665241
H    -1.295546  -2.240584  2.269058
C    -1.099587  -1.167213  4.137750
C    -1.729315  -2.142940  5.140881
C    -1.693552  -3.639777  4.806693
N    -0.378605  -4.176633  4.356114
C    0.766020  -4.173475  5.196982
N    0.604556  -3.939309  6.507704
N    1.903266  -4.357848  4.567219
H    -1.268117  -0.146587  4.508553
H    -0.004539  -1.290914  4.119399
H    -2.793658  -1.900447  5.276160
H    -1.260939  -1.945325  6.114683
H    -2.384926  -3.841122  3.978033
H    -2.076814  -4.211058  5.669505
H    -0.517025  -5.127493  4.007673
H    1.406073  -3.869762  7.125510
H    -0.304954  -4.014142  6.949003
H    2.699162  -4.496556  5.193354
N    -3.929638  -0.272376  2.643500
C    -3.574423  1.129331  2.826641
H    -4.918338  -0.486666  2.526825
H    -4.415516  1.646175  3.300471
H    -3.377442  1.643067  1.871038
H    -2.715740  1.246748  3.498451
Ba    1.616831  -3.733791  2.050212
