36
Energy: -246329.574664 eV PBE+vdW (tier 2 basis)
C    -1.613554  -0.300648  0.175086
C    -1.976301  -0.357836  1.633265
O    -1.788926  -1.462435  2.286763
H    -0.665079  0.239375  0.033971
H    -2.374435  0.218083  -0.421871
H    -1.479636  -1.315915  -0.208936
N    -2.457699  0.651313  2.355798
C    -2.538792  2.024701  1.889619
C    -1.428665  2.804853  2.627696
O    -0.849671  2.267105  3.618671
H    -3.630516  -2.313190  2.299891
H    -2.357304  2.109401  0.804408
C    -3.934426  2.623349  2.200680
C    -5.098601  1.999783  1.392432
C    -5.939508  0.921744  2.089983
N    -5.150947  -0.272716  2.399755
C    -5.549430  -1.544334  2.329214
N    -6.847749  -1.859609  2.203279
N    -4.628384  -2.522697  2.389381
H    -3.909145  3.699745  1.991086
H    -4.118827  2.535879  3.283059
H    -4.728672  1.605442  0.433358
H    -5.802637  2.801334  1.131488
H    -6.764124  0.643963  1.418562
H    -6.384698  1.328206  3.012477
H    -4.146864  -0.092729  2.565127
H    -7.144142  -2.810604  2.022972
H    -7.573769  -1.169278  2.342507
H    -4.906219  -3.493682  2.453780
N    -1.073951  4.026354  2.236394
C    -1.563864  4.819768  1.110956
H    -0.358384  4.456272  2.822122
H    -2.319367  5.546258  1.437927
H    -1.991613  4.176476  0.336402
H    -0.721150  5.365931  0.673922
Ba    -0.942732  -0.144801  4.329697
