36
Energy: -246328.00187 eV PBE+vdW (tier 2 basis)
C    -0.401741  0.430487  2.557282
C    -1.157914  -0.232857  3.665039
O    -0.689926  -0.240371  4.845410
H    -1.031181  1.157579  2.030284
H    -0.062288  -0.303202  1.811131
H    0.469570  0.942831  2.973694
N    -2.344917  -0.842127  3.435821
C    -2.640473  -1.688238  2.270312
C    -1.574676  -2.834453  2.240720
O    -0.762537  -2.954387  3.228553
H    -2.810247  -1.127876  4.295865
H    -3.598941  -2.168906  2.519395
C    -2.835508  -0.926768  0.934916
C    -4.002290  -1.473512  0.093415
C    -3.831005  -1.249900  -1.423663
N    -2.540926  -1.676777  -1.956621
C    -1.992750  -2.941016  -1.908446
N    -2.844131  -3.934332  -1.352705
N    -0.795864  -3.303910  -2.201615
H    -1.910025  -0.960815  0.343522
H    -3.025203  0.126603  1.175866
H    -4.944559  -1.000325  0.404354
H    -4.136095  -2.547227  0.285745
H    -3.917081  -0.180118  -1.652680
H    -4.671465  -1.732458  -1.950472
H    -1.996547  -0.987595  -2.459099
H    -2.478353  -4.847245  -1.625698
H    -3.818346  -3.862655  -1.646660
H    -0.211143  -2.534365  -2.536076
N    -1.538862  -3.648168  1.212954
C    -0.566576  -4.725955  1.029736
H    -2.226593  -3.582068  0.427953
H    0.299957  -4.564757  1.674774
H    -0.256302  -4.715522  -0.023289
H    -1.023981  -5.695197  1.268342
Ba    0.271951  -2.452692  5.372404
