36
Energy: -246328.898905 eV PBE+vdW (tier 2 basis)
C    -1.003015  3.498536  1.112309
C    -0.727556  2.154740  1.001174
O    0.483095  1.679330  0.865258
H    -2.005911  3.884970  1.277101
H    -1.778475  1.962017  -2.236260
H    -0.260933  4.208965  0.748002
N    -1.715639  1.140343  1.183321
C    -2.823364  1.333669  2.114037
C    -2.306651  1.665090  3.538533
O    -1.088964  1.515430  3.833955
H    -1.217483  0.268455  1.376473
H    -3.411702  2.200266  1.772818
C    -3.743714  0.089173  2.105121
C    -4.728334  -0.008577  0.921156
C    -4.224922  -0.598949  -0.401982
N    -3.231653  0.251681  -1.059028
C    -3.002004  0.315305  -2.370369
N    -3.618378  -0.504336  -3.234992
N    -2.145818  1.239804  -2.842707
H    -4.339732  0.087495  3.025759
H    -3.117091  -0.815345  2.170109
H    -5.181043  0.976509  0.728073
H    -5.554891  -0.660463  1.236804
H    -5.092416  -0.706602  -1.068226
H    -3.809050  -1.606480  -0.230486
H    -2.555400  0.707954  -0.414289
H    -3.583400  -0.338091  -4.233207
H    -4.119616  -1.324207  -2.920016
H    -1.774462  1.184082  -3.782448
N    -3.163441  2.120839  4.455338
C    -4.591528  2.408591  4.333280
H    -2.750225  2.259325  5.376478
H    -4.827308  3.274279  4.961084
H    -5.201852  1.559398  4.668394
H    -4.855264  2.657906  3.301040
Ba    1.125413  2.489733  3.034430
