36
Energy: -246329.228838 eV PBE+vdW (tier 2 basis)
C    0.378797  -0.042451  0.809857
C    -0.177026  -0.304600  2.183206
O    0.161106  -1.454064  2.727801
H    0.138406  0.968542  0.466669
H    -0.007328  -0.785299  0.097472
H    1.470926  -0.154518  0.822466
N    -0.946415  0.600420  2.722428
C    -1.545519  0.355762  4.051278
C    -0.519596  -0.068605  5.115385
O    -0.442649  -1.245475  5.584011
H    -2.237331  1.507023  -0.715927
H    -1.896762  1.341572  4.396496
C    -2.775298  -0.577177  3.960866
C    -4.122617  0.144524  3.715599
C    -4.107449  1.371459  2.787819
N    -3.417887  1.167798  1.514034
C    -3.965403  1.074600  0.307545
N    -5.288020  0.913541  0.130959
N    -3.168907  1.117620  -0.779237
H    -2.874839  -1.155050  4.890177
H    -2.592932  -1.300698  3.151937
H    -4.524605  0.497574  4.676780
H    -4.843694  -0.596660  3.341815
H    -3.600686  2.214527  3.278589
H    -5.133422  1.718181  2.609262
H    -2.382668  1.084769  1.630156
H    -5.904435  0.736932  0.912465
H    -5.722206  1.097926  -0.764848
H    -3.530052  0.920092  -1.703636
N    0.294842  0.894745  5.538633
C    1.348206  0.728283  6.534789
H    0.191181  1.810192  5.109233
H    1.440551  1.652224  7.114298
H    2.314466  0.515933  6.056836
H    1.083199  -0.091459  7.208422
Ba    0.242351  -3.180708  4.261805
