36
Energy: -246327.869896 eV PBE+vdW (tier 2 basis)
C    -0.248068  -0.175854  -0.227564
C    -0.118478  0.069133  1.241258
O    1.014085  0.410227  1.715533
H    0.544883  0.382454  -0.736311
H    -1.223833  0.119411  -0.621825
H    -0.105094  -1.244315  -0.452514
N    -1.160749  -0.040350  2.097850
C    -2.129141  -1.150177  2.165781
C    -1.369829  -2.392331  2.685622
O    -0.088644  -2.432282  2.650280
H    -0.920672  0.331746  3.017423
H    -2.860012  -0.858959  2.935343
C    -2.935911  -1.461145  0.895772
C    -3.845768  -0.330352  0.410565
C    -4.819973  0.246592  1.451476
N    -5.393372  -0.715287  2.413828
C    -6.237066  -1.756806  1.982047
N    -7.306786  -1.980169  2.830065
N    -5.886180  -2.463989  0.962250
H    -3.606255  -2.304930  1.115909
H    -2.280137  -1.806157  0.086749
H    -4.419622  -0.751114  -0.423028
H    -3.269512  0.518442  0.009611
H    -5.611216  0.784962  0.904022
H    -4.304909  0.999312  2.066519
H    -5.761123  -0.238471  3.232822
H    -7.943346  -2.723433  2.563021
H    -7.777336  -1.179942  3.241922
H    -6.603524  -3.144793  0.704359
N    -2.044369  -3.417845  3.175982
C    -3.490844  -3.570594  3.367288
H    -1.466457  -4.213785  3.445374
H    -3.654241  -4.111123  4.305329
H    -3.932076  -4.137623  2.538273
H    -3.984248  -2.594471  3.419466
Ba    2.163575  -1.478471  2.772796
