36
Energy: -246329.384921 eV PBE+vdW (tier 2 basis)
C    0.194919  -0.873429  0.602035
C    -0.107177  -0.206049  1.909192
O    0.821220  0.286336  2.609996
H    -0.680241  -1.336556  0.134679
H    0.972279  -1.633213  0.750182
H    0.607134  -0.122620  -0.086363
N    -1.388808  -0.153826  2.308417
C    -1.882930  0.590103  3.476790
C    -0.942449  0.443140  4.686340
O    -0.509138  1.563955  5.168076
H    -2.085638  -0.556161  1.687165
H    -1.845842  1.662889  3.233458
C    -3.348965  0.221676  3.775850
C    -4.054094  1.188089  4.740199
C    -3.706093  1.085504  6.229137
N    -4.143214  -0.186639  6.829225
C    -3.453383  -0.953480  7.688274
N    -4.128715  -1.745922  8.538414
N    -2.114756  -0.952180  7.709402
H    -3.427871  -0.812411  4.141510
H    -3.897266  0.252865  2.821593
H    -5.140276  1.053536  4.625130
H    -3.858778  2.227100  4.435893
H    -4.211560  1.902862  6.764934
H    -2.635135  1.211494  6.415122
H    -5.141254  -0.375246  6.781676
H    -3.674755  -2.515468  9.015312
H    -5.102313  -1.575848  8.760777
H    -1.636443  -1.396644  8.483286
N    -0.480117  -0.678663  5.212322
C    -0.781794  -2.002225  4.667212
H    -1.540999  -0.679216  6.895594
H    -0.045042  -2.295924  3.902019
H    -1.776979  -2.098818  4.213706
H    -0.708076  -2.741828  5.474017
Ba    1.795680  0.820847  4.853803
