36
Energy: -246329.35117 eV PBE+vdW (tier 2 basis)
C    -0.651373  -0.928724  0.011186
C    -0.558345  -0.239824  1.342031
O    0.471166  0.556342  1.510619
H    -1.472404  -1.650325  -0.023237
H    0.287962  -1.453884  -0.204613
H    -0.790264  -0.183329  -0.784029
N    -1.484094  -0.445614  2.244184
C    -1.354847  0.304326  3.497727
C    -0.141839  -0.140433  4.327568
O    0.811885  0.682080  4.518377
H    -3.149676  -1.066837  1.826028
H    -1.135991  1.366059  3.277067
C    -2.685560  0.263825  4.268120
C    -3.787112  0.965309  3.456643
C    -5.186889  0.382414  3.638669
N    -5.323471  -1.080549  3.430932
C    -5.081907  -1.785024  2.305332
N    -5.892453  -2.822023  2.020596
N    -4.057126  -1.498896  1.499560
H    -2.566480  0.735737  5.253156
H    -2.968709  -0.781006  4.452488
H    -3.528523  0.957011  2.389380
H    -3.851159  2.026987  3.734823
H    -5.891564  0.905943  2.975435
H    -5.530514  0.544306  4.668014
H    -5.977860  -1.527032  4.065561
H    -5.617390  -3.538879  1.359878
H    -6.830892  -2.877551  2.398267
H    -4.038726  -1.944014  0.588727
N    -0.043597  -1.366548  4.836966
C    -0.951505  -2.503247  4.698049
H    0.794876  -1.514878  5.396742
H    -1.640598  -2.566704  5.550211
H    -0.353193  -3.420085  4.665716
H    -1.508969  -2.419633  3.761157
Ba    2.041776  1.796104  2.695135
