36
Energy: -246329.902334 eV PBE+vdW (tier 2 basis)
C    -0.248613  -0.493578  0.683863
C    -1.236674  -0.300686  1.790638
O    -1.585340  0.849847  2.165055
H    -0.608065  0.032307  -0.210506
H    -0.069255  -1.545041  0.436099
H    0.703799  -0.025484  0.966748
N    -1.756255  -1.400174  2.379374
C    -2.777764  -1.327374  3.424042
C    -2.138788  -1.098074  4.811791
O    -2.096757  0.095925  5.223751
H    -1.460025  -2.310656  2.038306
H    -3.288375  -0.375619  3.258028
C    -3.860568  -2.408074  3.269681
C    -4.855920  -2.085993  2.138003
C    -5.890734  -0.988335  2.433139
N    -5.292531  0.344915  2.568765
C    -5.731499  1.354783  3.379099
N    -6.959011  1.223611  3.933414
N    -4.906005  2.366701  3.621691
H    -4.400789  -2.500788  4.224145
H    -3.408440  -3.392459  3.083406
H    -5.425826  -2.997628  1.912112
H    -4.314131  -1.848724  1.207472
H    -6.403373  -1.218711  3.377556
H    -6.649746  -0.996707  1.634453
H    -4.663967  0.649370  1.832185
H    -7.676445  0.655878  3.497671
H    -7.275925  1.896475  4.620594
H    -5.429887  3.162611  3.996402
N    -1.630150  -2.083564  5.546846
C    -1.553893  -3.516158  5.259022
H    -1.250787  -1.775790  6.441755
H    -0.757816  -3.944007  5.875527
H    -1.294075  -3.698238  4.211331
H    -2.493875  -4.027234  5.501734
Ba    -2.313267  2.364183  4.055827
