36
Energy: -246327.49817 eV PBE+vdW (tier 2 basis)
C    0.780065  1.496136  1.143690
C    0.398185  0.792181  2.405262
O    1.265266  0.513532  3.288582
H    0.747894  2.587509  1.292017
H    0.123265  1.245018  0.304136
H    1.814638  1.234256  0.896026
N    -0.893153  0.465700  2.635562
C    -2.021091  1.343871  2.328781
C    -1.802363  2.670403  3.098686
O    -0.974372  2.706598  4.070767
H    -1.037691  -0.145772  3.439859
H    -2.043199  1.544797  1.247853
C    -3.350422  0.689002  2.762820
C    -3.771513  -0.574804  1.999271
C    -2.953956  -1.864074  2.293319
N    -3.728071  -3.075136  2.304741
C    -4.578734  -3.368246  3.376340
N    -5.343959  -4.495705  3.164979
N    -4.703134  -2.696492  4.473862
H    -4.143477  1.441648  2.661739
H    -3.288967  0.473588  3.844821
H    -3.787066  -0.376364  0.916938
H    -4.813739  -0.771620  2.286689
H    -2.479043  -1.785735  3.290215
H    -2.139732  -1.985086  1.566100
H    -3.972339  -3.478952  1.406314
H    -5.889933  -4.764260  3.977390
H    -4.908991  -5.278015  2.686844
H    -4.199772  -1.808590  4.445694
N    -2.480308  3.756859  2.764334
C    -3.467032  3.943555  1.697124
H    -2.314607  4.562779  3.367967
H    -3.345318  3.192920  0.911765
H    -3.318527  4.934904  1.256153
H    -4.485959  3.884999  2.101040
Ba    0.963513  1.852423  5.347506
