36
Energy: -246327.333295 eV PBE+vdW (tier 2 basis)
C    0.101194  -0.466109  0.104470
C    0.108466  -0.023069  1.531777
O    1.193750  0.324829  2.093567
H    -0.666451  0.062641  -0.472903
H    -0.120341  -1.541707  0.024495
H    1.084086  -0.277587  -0.335771
N    -1.031609  0.006097  2.262642
C    -2.063674  -1.041974  2.252494
C    -1.368726  -2.380862  2.635808
O    -0.183366  -2.386060  3.104804
H    -0.910709  0.471423  3.160953
H    -2.714800  -0.789359  3.104559
C    -2.960644  -1.102023  0.991838
C    -4.427880  -1.471186  1.272586
C    -5.271792  -0.293162  1.810827
N    -6.674794  -0.613856  2.004855
C    -7.450267  -1.147746  0.954010
N    -7.181798  -0.552306  -0.280498
N    -8.310403  -2.092518  1.040127
H    -2.525841  -1.784819  0.248801
H    -2.945228  -0.101048  0.536548
H    -4.528380  -2.319936  1.973623
H    -4.885566  -1.801274  0.329991
H    -5.171181  0.546758  1.106238
H    -4.887530  0.073455  2.776045
H    -6.894987  -1.041231  2.898834
H    -7.825676  -0.903629  -0.986139
H    -7.172094  0.465594  -0.265530
H    -8.324674  -2.533781  1.963614
N    -2.051509  -3.500050  2.482919
C    -1.565460  -4.832554  2.848692
H    -2.989381  -3.424769  2.091416
H    -2.373785  -5.550024  2.686419
H    -1.271901  -4.854972  3.904488
H    -0.708208  -5.114287  2.225270
Ba    2.011303  -1.386753  3.662132
