36
Energy: -246329.564752 eV PBE+vdW (tier 2 basis)
C    0.127548  0.759336  0.064336
C    -0.349484  -0.212140  1.099469
O    0.425999  -1.058126  1.612771
H    0.471796  1.687176  0.547544
H    -0.649237  1.020705  -0.662845
H    0.988080  0.323658  -0.453431
N    -1.649009  -0.172993  1.504952
C    -2.394122  1.059430  1.698656
C    -1.617710  1.955834  2.711125
O    -0.710388  1.464886  3.434110
H    -1.930978  -0.941542  2.117090
H    -2.459255  1.596981  0.740619
C    -3.834750  0.765969  2.178386
C    -4.010076  0.292045  3.639763
C    -4.217049  -1.209364  3.897595
N    -3.091299  -2.111663  3.576828
C    -1.939917  -2.165453  4.307895
N    -0.953250  -3.067682  3.873124
N    -1.561001  -1.363070  5.264792
H    -4.279628  0.050841  1.470554
H    -4.409841  1.691950  2.048759
H    -4.921155  0.761373  4.035881
H    -3.198427  0.687004  4.268345
H    -5.061652  -1.567802  3.296432
H    -4.507466  -1.352442  4.950456
H    -3.359101  -2.973941  3.108095
H    -0.617209  -3.672418  4.621971
H    -1.148001  -3.597907  3.025950
H    -2.317482  -0.801280  5.657096
N    -1.974670  3.235258  2.763969
C    -1.406399  4.240623  3.661282
H    -2.696957  3.550103  2.120827
H    -0.928622  5.036121  3.076774
H    -0.663432  3.763650  4.303928
H    -2.198759  4.678872  4.279634
Ba    0.726274  -0.576012  4.125314
