36
Energy: -246329.077054 eV PBE+vdW (tier 2 basis)
C    1.898218  0.645856  0.671134
C    1.127283  0.379242  1.929166
O    1.661694  -0.324675  2.867285
H    2.833592  1.166414  0.917336
H    1.339992  1.253401  -0.048038
H    2.159071  -0.307106  0.190225
N    -0.083660  0.887543  2.029182
C    -1.103876  0.689531  3.058751
C    -2.404997  0.529936  2.210248
O    -2.389882  0.971791  1.057675
H    -0.542005  1.287205  1.187724
H    -0.872638  -0.215057  3.634956
C    -1.266266  1.940121  3.959097
C    -0.065699  2.405115  4.796293
C    0.261831  1.593315  6.052517
N    0.938661  0.340766  5.715066
C    1.510296  -0.521183  6.580103
N    1.294442  -0.338789  7.898395
N    2.268163  -1.518514  6.095710
H    -2.125519  1.766633  4.623364
H    -1.563465  2.767593  3.298327
H    -0.290715  3.425873  5.134229
H    0.838003  2.503848  4.173191
H    -0.668500  1.385689  6.608798
H    0.912939  2.196846  6.705029
H    1.109493  0.160807  4.727187
H    1.748364  -0.925234  8.586209
H    0.692676  0.395526  8.248797
H    2.543205  -2.147450  6.854099
N    -3.488533  -0.039028  2.769126
C    -3.665067  -0.559570  4.117517
H    -4.306096  -0.029883  2.161578
H    -2.708854  -0.890198  4.537950
H    -4.328726  -1.430455  4.081222
H    -4.111534  0.187249  4.789859
Ba    3.204828  -1.981668  3.797022
