36
Energy: -246329.218072 eV PBE+vdW (tier 2 basis)
C    -0.072112  -0.679468  -0.124732
C    -0.003468  -0.082524  1.247126
O    1.059682  0.519767  1.637049
H    0.100887  0.105097  -0.873350
H    -1.033912  -1.159279  -0.331492
H    0.725773  -1.425740  -0.237470
N    -1.057367  -0.197566  2.032675
C    -1.224790  0.274430  3.404871
C    -2.350604  -0.652709  3.950666
O    -3.163646  -1.106026  3.144985
H    -1.903037  -0.707042  1.727512
H    -0.277504  0.140265  3.948382
C    -1.675475  1.758080  3.398434
C    -1.785353  2.453843  4.760365
C    -0.455608  2.737596  5.472599
N    0.414045  3.612916  4.679658
C    1.615559  3.288478  4.177116
N    2.130292  4.103185  3.132294
N    2.366476  2.248677  4.453121
H    -2.654400  1.798999  2.900505
H    -0.981507  2.315159  2.750204
H    -2.420540  1.876749  5.447664
H    -2.317010  3.406584  4.615753
H    0.097285  1.811097  5.675176
H    -0.639407  3.210479  6.446709
H    0.053908  4.543075  4.482396
H    1.470649  4.777775  2.744582
H    2.983597  4.587990  3.416943
H    2.086593  1.749180  5.297724
N    -2.383946  -0.861042  5.280849
C    -3.408024  -1.679956  5.929932
H    -1.607842  -0.535217  5.845432
H    -3.753730  -1.185647  6.844423
H    -3.014869  -2.673502  6.180663
H    -4.246362  -1.794652  5.237509
Ba    3.192066  1.506122  2.097931
