36
Energy: -246328.8569 eV PBE+vdW (tier 2 basis)
C    -0.609563  1.691010  0.246878
C    -0.409823  0.942706  1.523963
O    0.694084  1.009890  2.156020
H    -1.607742  1.551922  -0.181041
H    0.140996  1.361442  -0.484499
H    -0.441831  2.761835  0.422707
N    -1.402811  0.188747  2.003702
C    -1.231608  -0.655416  3.190614
C    -2.234307  -1.826888  3.285101
O    -1.809597  -2.910630  3.665140
H    -2.234376  0.069287  1.429988
H    -0.265175  -1.168755  3.072633
C    -1.195183  0.175063  4.496108
C    -0.343121  -0.491628  5.579730
C    0.048312  0.483806  6.698195
N    1.026937  -0.048325  7.628077
C    2.368481  0.031779  7.464743
N    3.127180  -0.328999  8.524018
N    2.892878  0.451898  6.308611
H    -2.216480  0.349128  4.864254
H    -0.795420  1.175693  4.263540
H    0.573528  -0.926012  5.131764
H    -0.856646  -1.368221  5.998446
H    -0.840125  0.772531  7.275448
H    0.451325  1.422626  6.281567
H    0.679133  -0.496056  8.468231
H    4.128498  -0.439547  8.435229
H    2.731269  -0.494511  9.441477
H    3.892911  0.616735  6.468355
N    -3.526309  -1.570777  2.952598
C    -4.558784  -2.605100  3.046251
H    -3.843694  -0.609734  2.872536
H    -4.110010  -3.570330  2.794282
H    -5.360532  -2.377339  2.337034
H    -4.974827  -2.666916  4.060746
Ba    2.521280  0.783713  3.768134
