36
Energy: -246328.619776 eV PBE+vdW (tier 2 basis)
C    0.467447  -0.056193  0.226428
C    0.233713  -0.166060  1.697325
O    1.185127  -0.459878  2.487875
H    1.210257  0.732941  0.044207
H    -0.441056  0.172702  -0.339841
H    0.899619  -0.994387  -0.145608
N    -0.994868  0.058556  2.178428
C    -1.316622  0.101985  3.612445
C    -1.248592  -1.311519  4.228159
O    -0.241944  -1.583193  4.972201
H    -1.732521  0.317420  1.526740
H    -0.491167  0.640490  4.105167
C    -2.615966  0.870654  3.857267
C    -2.977364  0.978081  5.355402
C    -4.482464  0.802406  5.628411
N    -5.344730  1.633466  4.810411
C    -6.026265  1.138231  3.719444
N    -7.060843  1.939588  3.291287
N    -5.619679  0.038236  3.151303
H    -3.456344  0.417425  3.306634
H    -2.479566  1.874810  3.431438
H    -2.633082  1.944909  5.749250
H    -2.453502  0.209244  5.948807
H    -4.679627  1.016622  6.688087
H    -4.772825  -0.241280  5.446548
H    -5.633715  2.531028  5.177438
H    -7.613378  1.602153  2.512805
H    -7.591155  2.467021  3.976651
H    -6.279632  -0.267490  2.434168
N    -2.160996  -2.240386  3.997174
C    -3.324082  -2.228839  3.098690
H    -1.983258  -3.112705  4.494485
H    -3.779753  -3.221428  3.148201
H    -3.003078  -2.052828  2.064322
H    -4.083493  -1.474806  3.374683
Ba    2.132375  -1.299450  4.565108
