36
Energy: -246328.091781 eV PBE+vdW (tier 2 basis)
C    -1.457123  0.548590  -0.245201
C    -0.335080  0.252085  0.700083
O    0.869401  0.364277  0.314378
H    -2.228216  -0.231566  -0.251108
H    -1.060760  0.685123  -1.254979
H    -1.949966  1.484501  0.056188
N    -0.576272  -0.124248  1.979087
C    -1.607908  -1.094712  2.372800
C    -1.377458  -2.400014  1.549799
O    -0.344324  -2.501330  0.791592
H    0.273685  -0.154618  2.540089
H    -1.353892  -1.356147  3.411444
C    -3.065508  -0.551749  2.362488
C    -3.764170  -0.497826  3.733166
C    -3.827281  -1.806667  4.528146
N    -4.256320  -2.922891  3.681737
C    -4.291761  -4.271018  4.164302
N    -4.063484  -4.428102  5.508914
N    -4.428811  -5.171872  3.258662
H    -3.666693  -1.133541  1.651757
H    -3.045014  0.472362  1.973485
H    -4.785758  -0.129287  3.556223
H    -3.284319  0.259893  4.369700
H    -4.486226  -1.636026  5.397590
H    -2.838836  -2.065516  4.939062
H    -5.108258  -2.736403  3.152565
H    -4.104864  -5.374772  5.870642
H    -4.396162  -3.723826  6.159350
H    -4.554137  -6.108697  3.649877
N    -2.241808  -3.372771  1.684661
C    -2.146399  -4.657191  0.990647
H    -3.045776  -3.240167  2.359389
H    -1.239771  -5.194456  1.297720
H    -2.125022  -4.505071  -0.095626
H    -3.028582  -5.235675  1.280709
Ba    1.750746  -1.874585  -0.251882
