36
Energy: -246329.198881 eV PBE+vdW (tier 2 basis)
C    0.789675  1.018009  0.539610
C    0.258382  0.220039  1.693248
O    1.069059  -0.457835  2.425126
H    0.013515  1.598569  0.031286
H    1.245639  0.333536  -0.189119
H    1.575750  1.701457  0.887054
N    -1.039836  0.245906  1.913239
C    -1.853448  -0.447838  2.909658
C    -3.296417  0.040214  2.551118
O    -3.418747  0.959406  1.735213
H    -1.673389  0.848436  1.344588
H    -1.784112  -1.533884  2.738317
C    -1.454652  -0.143936  4.367693
C    -1.397324  1.346710  4.730813
C    -0.445034  1.629729  5.896724
N    0.923653  1.280278  5.505031
C    1.926498  0.824461  6.293717
N    1.791622  0.955777  7.629611
N    2.967683  0.223682  5.706199
H    -0.472792  -0.605253  4.545849
H    -2.156183  -0.666715  5.033167
H    -2.394465  1.724819  4.991623
H    -1.075369  1.946887  3.864592
H    -0.717398  1.020499  6.770874
H    -0.513015  2.689255  6.187772
H    1.188109  1.488384  4.548759
H    1.155545  1.632760  8.034377
H    2.461888  0.529734  8.257389
H    3.765559  0.189793  6.346461
N    -4.311335  -0.571283  3.179538
C    -5.715676  -0.234531  2.946469
H    -4.110069  -1.367971  3.774548
H    -6.234418  -0.116575  3.904396
H    -6.209899  -1.020286  2.361352
H    -5.757496  0.705071  2.389408
Ba    2.986548  -1.264867  3.621387
