36
Energy: -246329.391668 eV PBE+vdW (tier 2 basis)
C    -0.023397  0.434824  -0.289557
C    -0.374453  -0.046014  1.083639
O    0.499015  -0.487340  1.873755
H    0.174841  1.517965  -0.273809
H    -0.818037  0.245156  -1.020360
H    0.900903  -0.058918  -0.606304
N    -1.656343  0.041966  1.544042
C    -2.650104  1.006876  1.099215
C    -2.066256  2.421512  1.313896
O    -1.227101  2.594203  2.243391
H    -1.921038  -0.622107  2.303455
H    -2.908585  0.836531  0.044184
C    -3.932086  0.928566  1.966215
C    -4.503812  -0.469034  2.278119
C    -4.027018  -1.103508  3.590756
N    -2.703530  -1.790272  3.490100
C    -1.918453  -1.891486  4.650934
N    -1.728958  -3.134559  5.136694
N    -1.386134  -0.793742  5.144804
H    -4.696827  1.519122  1.445287
H    -3.746255  1.454045  2.916656
H    -4.361242  -1.162698  1.434768
H    -5.592677  -0.357930  2.374066
H    -4.777391  -1.831134  3.932959
H    -3.935780  -0.340721  4.374081
H    -2.797308  -2.691175  3.019685
H    -1.057544  -3.313675  5.875500
H    -2.331387  -3.907869  4.877852
H    -1.040836  -0.970593  6.094023
N    -2.479916  3.440880  0.568361
C    -3.463208  3.454965  -0.515757
H    -2.093545  4.343141  0.846043
H    -3.173620  4.224347  -1.238461
H    -4.465491  3.690193  -0.134614
H    -3.489211  2.493123  -1.036148
Ba    0.058175  1.086806  3.874604
