36
Energy: -246329.967763 eV PBE+vdW (tier 2 basis)
C    -1.905113  0.114541  0.520062
C    -1.475039  -0.218566  1.916972
O    -0.515252  -1.004603  2.121820
H    -2.742782  0.817936  0.470478
H    -2.188571  -0.815079  0.008424
H    -1.051210  0.534200  -0.027441
N    -2.166007  0.354861  2.926730
C    -2.000959  0.135987  4.377920
C    -0.705428  0.809995  4.878438
O    0.425698  0.308099  4.653937
H    -2.916833  0.980016  2.651343
H    -2.841552  0.673702  4.836643
C    -2.136852  -1.358332  4.757389
C    -1.543809  -1.755202  6.110024
C    -1.729787  -3.241742  6.439676
N    -1.418070  -4.198461  5.358669
C    -0.165101  -4.696418  5.115302
N    -0.092359  -6.033267  4.902365
N    0.881767  -3.883140  5.042577
H    -1.698087  -1.980511  3.967459
H    -3.211067  -1.593587  4.734380
H    -2.012786  -1.184617  6.926593
H    -0.473377  -1.512195  6.159099
H    -2.780683  -3.428041  6.694826
H    -1.135175  -3.485574  7.331349
H    -2.169585  -4.850706  5.160862
H    -0.798614  -6.667065  5.258239
H    0.753847  -6.455277  4.540206
H    1.737077  -4.439035  5.150629
N    -0.856178  1.943537  5.561249
C    0.239453  2.742885  6.105835
H    -1.799089  2.295486  5.698807
H    0.003244  3.028573  7.136637
H    0.383596  3.650534  5.505913
H    1.155932  2.148482  6.089468
Ba    1.396482  -1.739276  3.567220
