36
Energy: -246329.030112 eV PBE+vdW (tier 2 basis)
C    0.261457  -0.391959  0.304603
C    -0.404286  -0.302322  1.646695
O    -0.093686  -1.126653  2.556142
H    -0.027834  0.406434  -0.386657
H    0.003887  -1.360586  -0.146138
H    1.350846  -0.379415  0.433751
N    -1.317383  0.664161  1.815769
C    -2.263738  0.943846  2.918239
C    -1.669499  1.408909  4.261376
O    -0.950657  0.515171  4.912855
H    -1.450951  1.256659  1.001675
H    -2.852904  1.778440  2.522935
C    -3.272720  -0.202003  3.173214
C    -4.401545  0.230408  4.133903
C    -4.110041  -0.026228  5.626034
N    -4.940339  0.781356  6.519236
C    -4.509922  1.728715  7.374074
N    -5.357960  2.147641  8.333685
N    -3.278655  2.236508  7.301612
H    -2.757746  -1.098116  3.549373
H    -3.707373  -0.480103  2.204135
H    -5.323512  -0.298638  3.857362
H    -4.615899  1.299742  3.991849
H    -3.064847  0.179235  5.876626
H    -4.292126  -1.085584  5.862808
H    -5.935307  0.580584  6.534963
H    -5.185017  3.002407  8.847362
H    -6.185796  1.619922  8.580808
H    -2.971004  2.837724  8.057746
N    -2.004300  2.512205  4.839133
C    -2.683230  3.613452  4.179367
H    -2.698771  2.275800  6.412842
H    -2.168240  4.545596  4.446807
H    -3.716911  3.709382  4.547101
H    -2.716306  3.562626  3.080270
Ba    0.570541  -1.221702  4.892952
