36
Energy: -246328.020158 eV PBE+vdW (tier 2 basis)
C    0.268008  0.474870  0.641207
C    -0.011243  0.347607  2.104369
O    0.925360  0.421970  2.957607
H    -0.442905  -0.087736  0.026802
H    1.286587  0.122457  0.446298
H    0.222776  1.532512  0.335201
N    -1.280977  0.179559  2.536438
C    -2.418910  0.918114  1.987916
C    -2.173444  2.426951  2.219548
O    -1.257587  2.810038  3.033609
H    -1.359590  -0.027856  3.532468
H    -2.476722  0.738380  0.903766
C    -3.732632  0.455011  2.637586
C    -4.222262  -0.912702  2.144563
C    -5.718204  -1.135180  2.449613
N    -6.564059  -0.098808  1.863746
C    -6.973149  1.033480  2.562537
N    -7.570386  0.758560  3.774419
N    -6.734431  2.204119  2.053442
H    -4.501767  1.208294  2.419476
H    -3.614454  0.465207  3.734665
H    -3.632817  -1.736344  2.575141
H    -4.080324  -0.974190  1.052112
H    -5.893030  -1.147641  3.533006
H    -6.014268  -2.121558  2.066119
H    -6.355877  0.131613  0.895556
H    -7.940944  1.549747  4.288320
H    -8.152062  -0.072850  3.823211
H    -7.266283  2.940347  2.525844
N    -2.912357  3.309998  1.574293
C    -3.981934  3.075463  0.594678
H    -2.733616  4.281342  1.827999
H    -4.084855  3.983193  -0.007109
H    -4.950950  2.847156  1.090817
H    -3.711632  2.250274  -0.074562
Ba    0.832806  2.523325  4.264224
