36
Energy: -246329.908807 eV PBE+vdW (tier 2 basis)
C    -0.461436  1.847413  0.876573
C    -1.054712  1.202734  2.089347
O    -1.588559  1.885834  2.999327
H    -1.228798  2.464576  0.391011
H    -0.062872  1.131148  0.150578
H    0.342950  2.526527  1.189455
N    -1.006600  -0.146261  2.179740
C    -1.593095  -0.887493  3.297280
C    -0.648431  -0.888989  4.515473
O    -0.847809  -0.028714  5.413678
H    -0.558881  -0.662331  1.427316
H    -2.430787  -0.265934  3.630146
C    -2.194449  -2.232585  2.852198
C    -3.641811  -2.036982  2.359890
C    -4.744455  -2.248243  3.422669
N    -4.478000  -1.756300  4.787243
C    -4.409657  -0.465689  5.184567
N    -4.062138  -0.229376  6.537797
N    -4.498592  0.616467  4.456699
H    -2.170398  -2.940441  3.692763
H    -1.581838  -2.683994  2.057311
H    -3.867972  -2.749757  1.555979
H    -3.732559  -1.043483  1.895324
H    -4.913692  -3.324263  3.545898
H    -5.692972  -1.829135  3.054067
H    -4.602617  -2.445105  5.522019
H    -4.804572  0.262948  7.036219
H    -3.771107  -1.049641  7.067369
H    -4.873143  0.457598  3.520099
N    0.341768  -1.776884  4.562737
C    1.341184  -1.864033  5.627218
H    0.417436  -2.444308  3.800030
H    2.340340  -1.664101  5.221374
H    1.328826  -2.867228  6.069133
H    1.104041  -1.123015  6.393959
Ba    -2.406593  2.038267  5.383317
