36
Energy: -246328.122418 eV PBE+vdW (tier 2 basis)
C    0.276389  1.121705  0.160828
C    -0.079156  0.141897  1.232581
O    0.818391  -0.536177  1.821539
H    0.466408  2.114064  0.599966
H    -0.512968  1.228375  -0.591063
H    1.203465  0.793102  -0.320770
N    -1.367783  -0.018211  1.603492
C    -2.312103  1.087042  1.753245
C    -1.798638  1.982792  2.920381
O    -0.775191  1.610086  3.597111
H    -1.523296  -0.792682  2.249472
H    -2.307963  1.684840  0.829577
C    -3.730952  0.544047  2.008432
C    -3.944277  -0.040186  3.410914
C    -5.430056  0.018420  3.835131
N    -5.601124  0.062147  5.268707
C    -5.392624  1.225793  5.975933
N    -5.831067  1.177353  7.284464
N    -4.763903  2.217515  5.407759
H    -3.951812  -0.183627  1.214655
H    -4.440159  1.367264  1.859942
H    -3.406091  0.567777  4.152205
H    -3.578361  -1.076626  3.486624
H    -5.985579  -0.843692  3.446292
H    -5.878475  0.925052  3.397819
H    -6.068273  -0.707635  5.727822
H    -5.792273  2.045828  7.804494
H    -6.650735  0.618472  7.499703
H    -4.773100  3.030303  6.028329
N    -2.400985  3.114242  3.220941
C    -3.602302  3.723975  2.647332
H    -2.043112  3.561216  4.064858
H    -4.476826  3.379413  3.219514
H    -3.699899  3.478010  1.586184
H    -3.506342  4.810580  2.739585
Ba    1.137419  0.209566  4.155764
