36
Energy: -246328.159255 eV PBE+vdW (tier 2 basis)
C    0.241935  -0.580402  0.276109
C    -0.005570  -0.296463  1.721476
O    0.960664  -0.122306  2.525450
H    0.790156  0.266733  -0.159871
H    -0.675703  -0.743260  -0.298385
H    0.889021  -1.462212  0.181847
N    -1.272862  -0.217304  2.155164
C    -1.664780  0.203042  3.509040
C    -1.404880  -0.935230  4.527601
O    -0.307871  -0.885946  5.179514
H    -2.014987  -0.332896  1.468940
H    -0.946461  0.978311  3.814972
C    -3.060839  0.836537  3.515182
C    -3.520414  1.211421  4.926773
C    -5.015116  1.594859  5.005671
N    -5.553829  1.459956  6.351501
C    -5.584502  0.202907  6.962934
N    -6.165919  -0.796555  6.156769
N    -5.073596  0.062520  8.132270
H    -3.793779  0.158284  3.054339
H    -3.018023  1.726940  2.869835
H    -2.903828  2.031864  5.325067
H    -3.370873  0.361600  5.611391
H    -5.592550  0.956059  4.322140
H    -5.174529  2.628247  4.671494
H    -5.193174  2.142747  7.015735
H    -6.389421  -1.635867  6.686069
H    -6.988401  -0.477270  5.644552
H    -5.313082  -0.836561  8.560905
N    -2.230993  -1.948941  4.731366
C    -3.541989  -2.257213  4.150889
H    -1.911161  -2.583909  5.463456
H    -3.701714  -3.334921  4.254425
H    -3.565638  -2.016397  3.084601
H    -4.348717  -1.727563  4.685056
Ba    2.001293  -0.283428  4.720129
