36
Energy: -246329.029508 eV PBE+vdW (tier 2 basis)
C    -0.434924  -0.431604  0.480833
C    0.029538  0.014846  1.836819
O    1.116661  0.584172  2.013775
H    -0.663087  0.462907  -0.115833
H    -1.324289  -1.071286  0.505702
H    0.382940  -0.955580  -0.026355
N    -0.806803  -0.239893  2.894758
C    -0.698092  0.411044  4.202564
C    0.478842  -0.100597  5.074954
O    0.342198  -0.266566  6.339093
H    -1.680277  -0.710420  2.688322
H    -0.442746  1.471843  4.017878
C    -2.044328  0.377552  4.940530
C    -2.706928  -1.007879  5.068593
C    -3.854028  -1.075500  6.105783
N    -3.459170  -1.724317  7.364754
C    -2.707711  -1.165892  8.327657
N    -2.040926  -2.035018  9.224045
N    -2.404632  0.100770  8.488104
H    -2.730281  1.064101  4.424095
H    -1.872030  0.807640  5.934299
H    -1.963025  -1.776389  5.324977
H    -3.128826  -1.310202  4.099560
H    -4.689404  -1.667680  5.717752
H    -4.269898  -0.079291  6.316245
H    -3.740274  -2.692665  7.482105
H    -2.133192  -3.030691  9.025182
H    -2.288149  -1.847709  10.197195
H    -2.987760  0.729926  7.934080
N    1.631096  -0.262482  4.466842
C    2.863268  -0.670307  5.125636
H    1.640212  0.055518  3.456555
H    3.244934  0.126258  5.780558
H    3.614974  -0.874140  4.358255
H    2.704893  -1.581715  5.715336
Ba    0.175794  -0.072635  8.727784
