36
Energy: -246329.261177 eV PBE+vdW (tier 2 basis)
C    -0.314363  -0.496181  0.008285
C    -0.236788  -0.405345  1.496827
O    0.868987  -0.544551  2.104937
H    -0.250995  0.515343  -0.421067
H    -1.252209  -0.947588  -0.336150
H    0.531757  -1.080297  -0.364561
N    -1.335303  -0.168538  2.226225
C    -2.659948  0.254987  1.796131
C    -2.595652  1.620349  1.063479
O    -1.668408  2.428603  1.264953
H    -1.166157  -0.144317  3.228661
H    -3.050043  -0.486030  1.083836
C    -3.642254  0.267753  3.017170
C    -3.096335  0.516662  4.438775
C    -2.659614  1.936518  4.839743
N    -1.535938  2.488939  4.081219
C    -0.246110  2.149515  4.195637
N    0.615940  2.584803  3.130359
N    0.351256  1.417964  5.106575
H    -4.134314  -0.712913  3.039969
H    -4.436668  0.997205  2.806965
H    -2.308580  -0.211681  4.697901
H    -3.916236  0.253126  5.123439
H    -2.414866  1.953874  5.911071
H    -3.491700  2.640289  4.710565
H    -1.768307  2.963243  3.206783
H    0.072940  2.678504  2.258656
H    1.030281  3.494053  3.353737
H    -0.240894  1.169957  5.901300
N    -3.591107  1.892080  0.204418
C    -4.714815  1.045433  -0.200372
H    -3.517080  2.809931  -0.229842
H    -5.281307  1.580982  -0.967093
H    -5.396002  0.834115  0.633376
H    -4.371761  0.099359  -0.639909
Ba    2.388139  0.467958  3.749190
