36
Energy: -246328.613091 eV PBE+vdW (tier 2 basis)
C    0.186160  -0.581283  0.168949
C    0.012755  -0.454576  1.647541
O    1.010085  -0.542945  2.428034
H    0.863157  0.213006  -0.175451
H    -0.754842  -0.512462  -0.386329
H    0.672355  -1.538269  -0.061337
N    -1.215941  -0.235393  2.135250
C    -1.522367  0.046039  3.547078
C    -1.421851  -1.247428  4.391421
O    -0.321396  -1.439696  5.020468
H    -1.980174  -0.148317  1.469293
H    -0.695708  0.662479  3.931080
C    -2.814912  0.860769  3.665272
C    -3.240725  1.116765  5.114937
C    -4.718250  1.540677  5.195179
N    -5.249571  1.429545  6.540443
C    -5.667021  0.194088  7.010359
N    -6.445685  0.258540  8.142014
N    -5.331294  -0.886238  6.367265
H    -3.630843  0.350571  3.133120
H    -2.648784  1.810302  3.133929
H    -2.600342  1.878831  5.582340
H    -3.146063  0.198559  5.710954
H    -5.306235  0.906909  4.508965
H    -4.837073  2.582051  4.869367
H    -5.788053  2.224483  6.863860
H    -6.628406  -0.603849  8.638745
H    -6.408629  1.083396  8.729676
H    -5.703095  -1.711815  6.842031
N    -2.376000  -2.156279  4.464663
C    -3.729136  -2.189007  3.897361
H    -2.148628  -2.922675  5.098927
H    -4.029516  -3.239495  3.831712
H    -3.738934  -1.772563  2.886586
H    -4.427423  -1.650246  4.571015
Ba    2.030871  -1.166444  4.544493
