36
Energy: -246327.644928 eV PBE+vdW (tier 2 basis)
C    -0.065588  0.462126  -0.041225
C    -0.078813  0.103107  1.409083
O    1.000287  -0.012059  2.065216
H    0.005663  1.555068  -0.161473
H    -0.956119  0.112384  -0.573083
H    0.832356  0.030894  -0.498493
N    -1.256808  -0.073399  2.050981
C    -2.414598  0.810091  1.875239
C    -1.937941  2.258492  2.148894
O    -0.925830  2.435878  2.918942
H    -1.164083  -0.453025  2.993556
H    -2.788204  0.732193  0.845150
C    -3.530153  0.355795  2.851090
C    -4.754452  1.257279  2.795874
C    -5.975183  0.874301  3.649663
N    -6.964843  1.959083  3.601074
C    -7.407791  2.356659  2.317683
N    -8.224701  1.421062  1.725531
N    -6.986621  3.477157  1.826353
H    -3.114261  0.332135  3.873649
H    -3.782227  -0.680630  2.580591
H    -5.103375  1.329458  1.756093
H    -4.471122  2.276161  3.100266
H    -5.702052  0.715675  4.702184
H    -6.428259  -0.058529  3.288614
H    -6.607203  2.793449  4.065752
H    -8.651879  1.663444  0.838900
H    -8.815452  0.874890  2.344796
H    -7.509557  3.742227  0.984729
N    -2.535635  3.306499  1.606440
C    -3.659270  3.403957  0.664991
H    -2.159937  4.200218  1.926809
H    -4.609395  3.612507  1.189942
H    -3.764481  2.478054  0.092822
H    -3.440478  4.222941  -0.028637
Ba    1.289345  1.789054  3.746013
