36
Energy: -246327.518337 eV PBE+vdW (tier 2 basis)
C    -0.019947  -0.102517  -0.192917
C    -0.454239  0.399530  1.138954
O    0.151479  1.448443  1.654680
H    -0.796740  -0.691025  -0.708776
H    0.862981  -0.747435  -0.061756
H    0.282243  0.739655  -0.825454
N    -1.405523  -0.154854  1.836822
C    -2.301730  -1.269389  1.513625
C    -3.543542  -0.925454  2.378845
O    -3.396831  -0.141150  3.332551
H    -1.751676  0.261008  2.734755
H    -2.538678  -1.244113  0.442570
C    -1.634802  -2.617637  1.892595
C    -2.480374  -3.898284  1.776979
C    -2.863509  -4.403345  0.377677
N    -3.802596  -3.548220  -0.361751
C    -3.344632  -2.630792  -1.320067
N    -4.350824  -1.916473  -1.930243
N    -2.110222  -2.316498  -1.554223
H    -1.293939  -2.532742  2.935532
H    -0.728463  -2.719959  1.274945
H    -3.385663  -3.810084  2.394384
H    -1.889053  -4.699870  2.244505
H    -3.347209  -5.380868  0.497121
H    -1.960654  -4.594921  -0.225420
H    -4.659175  -4.028832  -0.626648
H    -4.081873  -1.464707  -2.797293
H    -5.296186  -2.280472  -1.917677
H    -1.474376  -2.978919  -1.105589
N    -4.688174  -1.510229  2.016416
C    -5.946928  -1.339785  2.732539
H    -4.657399  -2.125142  1.199626
H    -6.705465  -0.902867  2.071375
H    -5.778406  -0.669979  3.580043
H    -6.310013  -2.306090  3.104503
Ba    1.132137  3.297518  2.499642
