36
Energy: -246328.611223 eV PBE+vdW (tier 2 basis)
C    -2.060492  -0.203980  0.904839
C    -1.485373  0.131610  2.245068
O    -0.792415  -0.736284  2.873981
H    -1.256668  -0.548144  0.241123
H    -2.573629  0.641659  0.436489
H    -2.761594  -1.042896  1.016005
N    -1.723519  1.345473  2.735306
C    -1.345198  1.885816  4.057825
C    0.185052  1.981913  4.175746
O    0.878772  1.010856  4.614202
H    -2.355325  1.980198  2.192247
H    -1.733780  2.912337  4.037355
C    -1.971170  1.186930  5.279648
C    -3.498452  0.989881  5.299723
C    -4.417195  2.238150  5.257035
N    -4.838016  2.630606  3.908107
C    -4.053644  3.366227  3.044855
N    -3.389368  4.447406  3.618266
N    -3.836860  3.107754  1.785751
H    -1.667396  1.775619  6.159469
H    -1.516710  0.193270  5.421010
H    -3.717552  0.451527  6.233289
H    -3.801180  0.305840  4.491276
H    -3.945938  3.093082  5.758264
H    -5.327948  2.017885  5.827644
H    -5.376902  1.912337  3.431449
H    -3.084643  5.101164  2.900533
H    -3.905803  4.919859  4.356574
H    -4.389214  2.300410  1.479262
N    0.783703  3.107006  3.807675
C    0.175165  4.324019  3.258190
H    1.796161  3.108887  3.927266
H    -0.416126  4.099852  2.362541
H    0.983961  5.003696  2.976686
H    -0.455876  4.821810  4.004033
Ba    0.945445  -1.409846  4.373672
