36
Energy: -246329.457758 eV PBE+vdW (tier 2 basis)
C    0.136113  1.348806  0.716378
C    0.181604  0.225332  1.700759
O    1.086998  0.142419  2.570657
H    -0.466691  2.175106  1.125607
H    -0.296759  1.051298  -0.245109
H    1.150810  1.731669  0.567068
N    -0.782231  -0.739549  1.680003
C    -2.198812  -0.482297  1.458978
C    -2.675283  0.506459  2.554194
O    -2.044732  0.550755  3.650202
H    -0.613939  -1.463160  2.388856
H    -2.338888  -0.059608  0.455216
C    -3.031820  -1.779926  1.604669
C    -2.541315  -3.034181  0.858431
C    -1.435155  -3.869769  1.542533
N    -1.719577  -4.180585  2.946230
C    -1.253454  -3.500894  4.020173
N    -1.976200  -3.587829  5.177984
N    -0.188498  -2.700174  4.016835
H    -4.046598  -1.546584  1.257094
H    -3.138175  -2.008856  2.677169
H    -2.194543  -2.781721  -0.154464
H    -3.416314  -3.685083  0.718719
H    -0.457971  -3.378691  1.478038
H    -1.321037  -4.819118  1.004402
H    -2.410506  -4.905884  3.116592
H    -1.446926  -3.618250  6.042695
H    -2.840304  -4.119949  5.193580
H    0.468319  -2.983118  3.283693
N    -3.748466  1.264801  2.354493
C    -4.622041  1.341090  1.182940
H    -4.014732  1.834208  3.157850
H    -4.095277  1.024035  0.278506
H    -4.937648  2.380684  1.046700
H    -5.514749  0.717071  1.319685
Ba    0.071369  -0.207341  4.901573
