36
Energy: -246329.926069 eV PBE+vdW (tier 2 basis)
C    -0.342867  0.126014  -0.021837
C    -0.385705  -0.149190  1.452119
O    0.558405  -0.764738  2.013882
H    -1.236755  0.628274  -0.406166
H    -0.203575  -0.821400  -0.559491
H    0.536054  0.746935  -0.242020
N    -1.474104  0.272265  2.124177
C    -1.799106  0.173759  3.565517
C    -0.787006  0.975834  4.417690
O    0.340547  0.499877  4.705871
H    -2.163793  0.763257  1.563713
H    -2.775316  0.671980  3.640335
C    -1.961076  -1.234285  4.167610
C    -2.854327  -2.257781  3.451098
C    -2.197860  -3.062319  2.304249
N    -0.792821  -3.414445  2.523815
C    -0.271365  -4.081886  3.591510
N    -1.032432  -5.057683  4.142166
N    0.922691  -3.711255  4.043831
H    -2.375358  -1.062145  5.172249
H    -0.975497  -1.680570  4.344225
H    -3.771878  -1.789957  3.064161
H    -3.189637  -2.965861  4.220578
H    -2.212396  -2.500627  1.362952
H    -2.799135  -3.961805  2.109194
H    -0.121675  -2.808411  2.067261
H    -0.689579  -5.570519  4.944984
H    -1.749915  -5.518083  3.593468
H    1.320161  -4.435827  4.647740
N    -1.176146  2.173097  4.848258
C    -0.351230  3.049420  5.681115
H    -2.098532  2.505008  4.584072
H    0.150098  2.459329  6.455136
H    -0.998452  3.793166  6.153705
H    0.404669  3.563944  5.074112
Ba    1.996261  -1.304729  4.012995
