36
Energy: -246328.713824 eV PBE+vdW (tier 2 basis)
C    1.951732  -3.329516  1.994860
C    1.418006  -2.059343  2.578734
O    2.196137  -1.240890  3.157086
H    2.664890  -3.072374  1.198707
H    1.174348  -3.977733  1.577296
H    2.512304  -3.882452  2.758971
N    0.107395  -1.811707  2.458517
C    -0.590904  -0.559593  2.790505
C    -0.905205  -0.476648  4.301515
O    0.084544  -0.296662  5.095802
H    -0.453447  -2.521439  1.993529
H    0.140347  0.249778  2.636667
C    -1.756024  -0.326639  1.812825
C    -2.704782  -1.515604  1.515252
C    -4.185729  -1.133270  1.663531
N    -4.538185  -0.961099  3.074700
C    -4.995744  -2.028282  3.900695
N    -5.017286  -3.276234  3.308578
N    -5.221639  -1.725622  5.127548
H    -1.313357  0.021422  0.870491
H    -2.328602  0.529747  2.196866
H    -2.528633  -2.372502  2.187117
H    -2.531196  -1.882207  0.494505
H    -4.820239  -1.871293  1.149741
H    -4.378861  -0.180495  1.153354
H    -5.078073  -0.125036  3.283721
H    -5.393877  -4.017835  3.890385
H    -5.325146  -3.346577  2.343150
H    -5.623839  -2.500432  5.659520
N    -2.136126  -0.536522  4.747148
C    -2.481765  -0.382394  6.163619
H    -2.938236  -0.660337  4.086424
H    -3.563171  -0.534447  6.244480
H    -2.200690  0.618351  6.515896
H    -1.956017  -1.132932  6.765842
Ba    2.465303  -0.038039  5.249082
