36
Energy: -246327.789334 eV PBE+vdW (tier 2 basis)
C    -2.170075  2.266027  0.689092
C    -0.892704  1.966733  1.376270
O    0.171072  2.609770  1.086955
H    -2.912406  2.646837  1.421120
H    -2.649424  1.383097  0.243785
H    -2.012923  3.020873  -0.085317
N    -0.804760  1.024529  2.350871
C    -1.404258  -0.314494  2.313054
C    -0.860694  -1.038378  1.044348
O    0.062588  -0.518592  0.341273
H    0.083198  1.066937  2.847495
H    -0.954827  -0.837760  3.172237
C    -2.936787  -0.390683  2.483675
C    -3.468155  0.453875  3.645588
C    -5.012864  0.463515  3.721852
N    -5.694137  0.703540  2.455156
C    -5.469494  1.771394  1.598835
N    -4.972604  2.929154  2.216885
N    -5.619099  1.786452  0.318888
H    -3.202214  -1.445780  2.663233
H    -3.439860  -0.101017  1.551785
H    -3.109760  1.485908  3.540017
H    -3.075679  0.083936  4.605160
H    -5.316113  1.199888  4.482324
H    -5.379445  -0.503552  4.089984
H    -6.113175  -0.103156  2.009946
H    -5.128804  3.732432  1.610428
H    -5.332925  3.107528  3.152210
H    -5.934051  0.884119  -0.047278
N    -1.365048  -2.222382  0.742019
C    -0.921706  -3.052946  -0.380397
H    -2.112358  -2.581698  1.329350
H    -1.477410  -3.993632  -0.354165
H    0.149886  -3.267986  -0.296368
H    -1.119202  -2.547258  -1.333156
Ba    1.643698  1.279094  -0.324735
