36
Energy: -246329.896859 eV PBE+vdW (tier 2 basis)
C    -3.684857  0.854557  0.389057
C    -2.761050  0.108967  1.308469
O    -1.886442  -0.664870  0.848355
H    -4.437630  1.456860  0.908449
H    -4.191853  0.136684  -0.268230
H    -3.088464  1.513178  -0.256503
N    -2.924351  0.313435  2.633343
C    -2.182630  -0.292970  3.756993
C    -0.725316  0.230848  3.769487
O    0.141725  -0.282644  3.014891
H    -3.667611  0.954186  2.891845
H    -2.700031  0.071676  4.651890
C    -2.165101  -1.828399  3.784551
C    -3.499513  -2.560492  3.592447
C    -3.293752  -4.021894  3.151717
N    -2.910313  -4.157256  1.738071
C    -1.664299  -4.058624  1.224852
N    -1.559224  -3.845545  -0.159943
N    -0.518730  -4.015748  1.865264
H    -1.716164  -2.122673  4.745786
H    -1.464314  -2.168679  3.021486
H    -4.121307  -2.058117  2.837077
H    -4.080794  -2.556985  4.525701
H    -4.226256  -4.584858  3.274521
H    -2.552517  -4.530104  3.785631
H    -3.664966  -4.357797  1.090047
H    -0.944617  -4.518814  -0.615983
H    -2.430608  -3.729780  -0.672521
H    -0.586598  -4.324231  2.836571
N    -0.408286  1.230973  4.590720
C    -1.268442  1.953572  5.532741
H    0.569805  1.513808  4.546399
H    -2.114651  2.428308  5.021411
H    -0.670782  2.745337  5.992734
H    -1.631394  1.297155  6.333407
Ba    0.409555  -1.714301  0.907827
