36
Energy: -246329.125781 eV PBE+vdW (tier 2 basis)
C    1.199460  -0.061858  1.633438
C    0.262812  0.430679  2.701431
O    0.815112  0.674626  3.868733
H    0.706445  -0.176393  0.664298
H    1.640156  -1.021971  1.935364
H    2.030877  0.646261  1.519844
N    -1.004594  0.578879  2.419220
C    -1.915625  1.050112  3.481233
C    -1.496094  2.436659  4.010161
O    -0.984436  2.604914  5.160819
H    -1.608428  -0.445231  0.901555
H    -2.879776  1.240242  2.981209
C    -2.185000  0.026319  4.622131
C    -3.551661  -0.687541  4.573524
C    -3.695900  -1.867194  3.604835
N    -3.454967  -1.445037  2.220792
C    -2.709958  -2.078836  1.299836
N    -2.689819  -3.418813  1.253414
N    -1.993590  -1.314756  0.469583
H    -2.144588  0.563178  5.581065
H    -1.373925  -0.716654  4.632894
H    -4.346328  0.049911  4.371887
H    -3.778926  -1.084096  5.573172
H    -4.703419  -2.296278  3.707451
H    -2.970662  -2.657192  3.846860
H    -3.650789  -0.475318  1.999165
H    -2.016519  -3.909428  0.677210
H    -3.456627  -3.961335  1.634439
H    -1.598189  -1.691503  -0.384167
N    -1.682089  3.491245  3.219462
C    -2.265352  3.520694  1.877868
H    -1.418864  4.384239  3.632821
H    -1.957083  2.635156  1.313535
H    -1.889530  4.407733  1.358725
H    -3.361135  3.585200  1.922897
Ba    1.070077  1.555633  5.991607
