36
Energy: -246329.458878 eV PBE+vdW (tier 2 basis)
C    0.239777  2.428476  2.400414
C    0.222854  1.215168  1.524712
O    1.227032  0.465651  1.428092
H    1.269761  2.795955  2.460575
H    -0.416200  3.227864  2.039169
H    -0.066537  2.159529  3.423220
N    -0.896279  0.904430  0.808017
C    -2.245940  1.028291  1.338061
C    -2.472750  -0.140217  2.343836
O    -1.616369  -1.054612  2.466984
H    -0.748947  0.086055  0.214022
H    -2.280592  1.961474  1.918627
C    -3.324917  1.153085  0.231562
C    -3.866067  -0.098707  -0.481390
C    -2.918569  -0.891091  -1.417675
N    -2.551141  -2.203957  -0.876839
C    -1.335725  -2.589972  -0.449398
N    -1.276599  -3.734483  0.369720
N    -0.182949  -1.975828  -0.600254
H    -2.930744  1.868413  -0.505014
H    -4.192682  1.660173  0.678209
H    -4.716259  0.246614  -1.084210
H    -4.299355  -0.796255  0.251827
H    -2.002632  -0.330753  -1.642272
H    -3.404173  -1.058651  -2.387009
H    -3.296795  -2.893740  -0.847505
H    -0.669572  -4.457790  -0.016926
H    -2.170831  -4.128372  0.657097
H    -0.161394  -1.308692  -1.373351
N    -3.597940  -0.102378  3.054652
C    -3.990394  -1.077973  4.070602
H    -4.219421  0.689918  2.914474
H    -3.936934  -0.628568  5.070138
H    -3.312677  -1.933188  4.022303
H    -5.017935  -1.411156  3.885687
Ba    0.752198  -2.006064  1.875742
