36
Energy: -246328.829484 eV PBE+vdW (tier 2 basis)
C    0.525193  0.214205  0.311444
C    0.735449  -0.454173  1.635176
O    1.560219  -1.407374  1.759713
H    0.647572  1.300483  0.400598
H    -0.496088  0.030639  -0.056847
H    1.243990  -0.176577  -0.413231
N    0.023559  -0.045704  2.712118
C    -1.427884  0.248317  2.664724
C    -2.137081  -0.870165  1.855838
O    -1.560981  -2.058678  1.909651
H    0.336972  -0.482613  3.576366
H    -1.749262  0.110778  3.709837
C    -1.784005  1.686906  2.260054
C    -3.085848  2.149934  2.926137
C    -3.651150  3.461889  2.385321
N    -3.852549  3.542666  0.919249
C    -4.715474  2.817942  0.179066
N    -5.321594  3.414715  -0.864086
N    -4.956681  1.534239  0.451727
H    -1.869008  1.757164  1.167019
H    -0.957519  2.345491  2.562100
H    -2.915060  2.310551  4.001769
H    -3.847566  1.362511  2.863506
H    -2.965062  4.286832  2.614511
H    -4.603312  3.682844  2.889930
H    -3.580126  4.427478  0.503883
H    -5.762181  2.871587  -1.596810
H    -5.424192  4.421546  -0.909619
H    -5.741954  1.093696  -0.013848
N    -3.221448  -0.595298  1.215337
C    -3.885670  -1.708364  0.539351
H    -4.239492  0.885483  0.871174
H    -4.866201  -1.386259  0.170270
H    -3.303698  -2.059025  -0.327683
H    -4.040079  -2.567109  1.208462
Ba    0.243067  -3.541825  1.954675
