36
Energy: -246328.939299 eV PBE+vdW (tier 2 basis)
C    0.125992  -1.448701  -0.130927
C    -0.030646  -0.654911  1.131942
O    0.545918  0.489699  1.246128
H    -0.233864  -0.861411  -0.986839
H    -0.420371  -2.396845  -0.107452
H    1.190841  -1.663868  -0.293889
N    -0.762627  -1.170868  2.097393
C    -1.073326  -0.620007  3.416983
C    -1.724306  -1.840624  4.135744
O    -2.293540  -2.669234  3.420007
H    -1.275897  -2.061686  1.967704
H    -0.138697  -0.296362  3.896121
C    -2.086164  0.546414  3.275923
C    -2.313178  1.440778  4.498373
C    -1.066080  2.178763  5.017000
N    -0.232454  2.778420  3.973920
C    -0.469063  3.899911  3.255725
N    -1.425845  4.744382  3.693137
N    0.243108  4.108115  2.141583
H    -3.047290  0.116041  2.962133
H    -1.744224  1.173178  2.439936
H    -2.743721  0.872512  5.334985
H    -3.081480  2.175752  4.218661
H    -0.402843  1.501117  5.567054
H    -1.355937  2.941098  5.755053
H    0.569065  2.241565  3.671439
H    -1.642670  5.585917  3.174939
H    -1.804696  4.679657  4.630005
H    0.148202  5.085535  1.851236
N    -1.690606  -1.942534  5.478817
C    -0.917822  -1.192067  6.458405
H    -2.206475  -2.751472  5.821224
H    -0.017081  -0.764320  6.004068
H    -0.586097  -1.877506  7.245973
H    -1.506334  -0.392967  6.930804
Ba    1.385123  2.594330  0.429825
