36
Energy: -246330.007783 eV PBE+vdW (tier 2 basis)
C    1.309368  -0.898007  1.267169
C    0.668299  0.278173  1.946017
O    1.379021  1.161645  2.485524
H    0.597201  -1.590229  0.806117
H    1.906939  -1.444654  2.009355
H    2.005127  -0.536126  0.499483
N    -0.680290  0.316930  1.937390
C    -1.651895  1.238589  2.570888
C    -1.560893  2.681385  2.044239
O    -0.540770  3.402374  2.181670
H    -1.116223  -0.467292  1.462349
H    -2.612335  0.849961  2.205786
C    -1.762754  1.104843  4.112015
C    -0.664817  1.615998  5.062316
C    -0.821988  3.082130  5.506602
N    0.037265  3.437281  6.622793
C    1.244082  4.052056  6.545230
N    1.788372  4.430308  7.728280
N    1.842925  4.257300  5.376061
H    -1.898072  0.028463  4.288868
H    -2.723840  1.564987  4.393918
H    0.337961  1.423200  4.660365
H    -0.727974  1.001234  5.972098
H    -1.860525  3.248696  5.829303
H    -0.645792  3.799275  4.694676
H    -0.287174  3.176864  7.547030
H    1.251153  4.456467  8.585915
H    2.729408  4.797196  7.770785
H    2.647702  4.870203  5.540341
N    -2.662101  3.155120  1.460883
C    -2.786022  4.521080  0.952684
H    -3.456199  2.534475  1.341600
H    -3.833597  4.704835  0.700103
H    -2.170796  4.657483  0.054404
H    -2.466744  5.238081  1.717159
Ba    1.876031  3.571683  2.863266
