36
Energy: -246328.608171 eV PBE+vdW (tier 2 basis)
C    -0.680034  -0.168775  -0.144977
C    -0.540664  -0.134873  1.344753
O    0.610796  0.007170  1.879083
H    -1.479355  -0.848884  -0.474473
H    0.270645  -0.474936  -0.591976
H    -0.915138  0.841531  -0.512681
N    -1.652593  -0.234707  2.072235
C    -1.801925  -0.409228  3.526675
C    -1.364051  0.818374  4.340168
O    -0.143290  1.096619  4.534388
H    -2.536103  -0.504969  1.568903
H    -2.891161  -0.490851  3.649580
C    -1.182324  -1.715152  4.075596
C    -1.488893  -2.957336  3.226051
C    -2.992085  -3.320935  3.047077
N    -3.358532  -3.663981  1.672658
C    -3.394512  -2.721784  0.654463
N    -3.987713  -1.474730  1.025306
N    -2.973403  -2.819461  -0.551157
H    -1.548449  -1.843174  5.105924
H    -0.089401  -1.607965  4.155026
H    -0.958178  -3.807355  3.675203
H    -1.046316  -2.827034  2.227892
H    -3.643687  -2.505517  3.389107
H    -3.251762  -4.178813  3.678394
H    -2.995273  -4.560907  1.360505
H    -4.270239  -1.009698  0.160216
H    -4.813945  -1.600074  1.612733
H    -2.487498  -3.700554  -0.737565
N    -2.327720  1.560300  4.870659
C    -2.107183  2.738698  5.709231
H    -3.289640  1.304011  4.667978
H    -2.975671  2.873161  6.360421
H    -1.981481  3.636560  5.090178
H    -1.212752  2.590816  6.321490
Ba    2.078797  0.819143  3.558062
