36
Energy: -246328.583359 eV PBE+vdW (tier 2 basis)
C    0.356422  -0.343024  0.387212
C    0.000309  0.172731  1.748935
O    0.844307  0.840672  2.418258
H    0.253647  0.454165  -0.364544
H    -0.254251  -1.195436  0.074398
H    1.412290  -0.637459  0.403437
N    -1.221976  -0.078725  2.269348
C    -2.449230  0.077333  1.475799
C    -2.808769  1.601319  1.472405
O    -1.777394  2.417363  1.598869
H    -1.307122  0.229590  3.238922
H    -2.174943  -0.164485  0.437940
C    -3.565116  -0.886394  1.930179
C    -4.280688  -1.545313  0.739027
C    -5.589975  -2.291302  1.049980
N    -6.573744  -1.566413  1.881408
C    -6.748384  -0.239624  1.916916
N    -7.239043  0.345229  3.023087
N    -6.415439  0.560823  0.883947
H    -4.268233  -0.333560  2.565916
H    -3.113975  -1.665612  2.559616
H    -3.617950  -2.299734  0.288444
H    -4.439368  -0.797657  -0.048815
H    -5.367162  -3.208996  1.609695
H    -6.060147  -2.608684  0.107379
H    -7.086401  -2.126718  2.556013
H    -7.672593  1.257620  2.941026
H    -7.359932  -0.161432  3.891875
H    -6.326936  0.087167  -0.009304
N    -4.032056  1.977673  1.323020
C    -4.284229  3.417201  1.257352
H    -5.603699  1.221525  1.066933
H    -5.337210  3.591016  1.008884
H    -3.664280  3.910492  0.494192
H    -4.080356  3.905030  2.223533
Ba    0.263664  3.274089  2.344428
