36
Energy: -246328.997663 eV PBE+vdW (tier 2 basis)
C    -0.291421  1.492560  0.418721
C    -0.381694  0.964185  1.822587
O    0.746531  0.541612  2.352606
H    0.415628  2.332506  0.384064
H    -1.261616  1.835025  0.048517
H    0.107679  0.715698  -0.247803
N    -1.546118  0.958862  2.408971
C    -1.724744  0.401370  3.764981
C    -0.834306  1.086629  4.818755
O    0.255464  0.596518  5.239745
H    -3.167945  0.637945  1.562102
H    -2.749649  0.692294  4.046350
C    -1.654460  -1.145304  3.809764
C    -2.809203  -1.851532  4.543218
C    -4.226602  -1.670017  3.962679
N    -4.345332  -2.034006  2.541998
C    -4.021509  -1.220695  1.524579
N    -3.611034  -1.729153  0.353587
N    -4.085154  0.123644  1.633078
H    -0.718383  -1.457430  4.295013
H    -1.589838  -1.507228  2.774328
H    -2.854349  -1.524232  5.593967
H    -2.582204  -2.927368  4.579169
H    -4.587849  -0.643453  4.098231
H    -4.931954  -2.301366  4.515800
H    -4.508934  -3.014842  2.330910
H    -3.689557  -1.159316  -0.481687
H    -3.405774  -2.714436  0.236291
H    -4.656735  0.467052  2.398406
N    -1.274072  2.259905  5.269087
C    -0.571129  3.102685  6.231888
H    -2.136720  2.618147  4.870041
H    -1.304634  3.695235  6.786880
H    0.123256  3.787030  5.725316
H    -0.015871  2.471189  6.931498
Ba    2.282007  0.003523  3.975404
