36
Energy: -246328.961308 eV PBE+vdW (tier 2 basis)
C    -0.429966  0.810455  -0.191542
C    -0.497154  0.203687  1.178422
O    0.547350  0.166730  1.916575
H    -1.394127  0.802949  -0.709590
H    0.297013  0.254084  -0.798905
H    -0.077746  1.847854  -0.117849
N    -1.662371  -0.278133  1.579405
C    -1.973484  -1.048876  2.780817
C    -2.853031  -2.214269  2.237245
O    -3.455074  -2.036314  1.178802
H    -2.424337  -0.385125  0.891141
H    -1.036074  -1.400986  3.227634
C    -2.834178  -0.228029  3.773867
C    -2.169599  0.974521  4.461239
C    -1.419882  0.668210  5.766388
N    -0.245716  -0.204333  5.617966
C    0.988936  0.158156  5.236255
N    1.230346  1.508095  4.877495
N    2.034794  -0.619636  5.063956
H    -3.237545  -0.912656  4.535332
H    -3.709993  0.122905  3.209772
H    -2.956011  1.695918  4.726615
H    -1.516571  1.504409  3.748324
H    -2.090085  0.166957  6.476744
H    -1.109144  1.598664  6.263597
H    -0.389810  -1.198087  5.768409
H    1.912892  1.933835  5.507385
H    0.402737  2.099419  4.822702
H    1.924035  -1.561935  5.443337
N    -2.952843  -3.342609  2.971671
C    -2.271933  -3.672492  4.214176
H    -3.597050  -4.028591  2.584391
H    -1.184253  -3.534246  4.128281
H    -2.445483  -4.730191  4.433225
H    -2.652274  -3.092538  5.069016
Ba    2.811503  0.319441  2.759172
