36
Energy: -246328.686288 eV PBE+vdW (tier 2 basis)
C    -0.494348  2.234281  0.105708
C    -0.686556  2.039985  1.587617
O    -0.561873  3.126731  2.322564
H    -1.237861  2.955179  -0.260731
H    -0.591586  1.303948  -0.460993
H    0.492348  2.671941  -0.107317
N    -0.944074  0.844045  2.037416
C    -1.313639  0.630461  3.433181
C    -0.345987  1.140339  4.509827
O    0.855240  1.470472  4.269647
H    -1.163530  -0.482971  0.796246
H    -2.263736  1.163697  3.626530
C    -1.561712  -0.891328  3.652470
C    -2.910467  -1.348250  3.064874
C    -2.993409  -2.806956  2.582031
N    -1.881355  -3.274834  1.724504
C    -1.138627  -2.518106  0.909175
N    0.119817  -2.880879  0.612747
N    -1.593771  -1.358773  0.379722
H    -1.519545  -1.150390  4.717840
H    -0.712177  -1.411415  3.189590
H    -3.207677  -0.662377  2.262136
H    -3.697108  -1.247538  3.826955
H    -3.951535  -2.966642  2.065722
H    -2.987995  -3.486085  3.444519
H    -1.592000  -4.239131  1.862560
H    0.548085  -2.507871  -0.226612
H    0.590730  -3.640226  1.090455
H    -2.606734  -1.281965  0.368284
N    -0.792095  1.236168  5.770952
C    -2.116336  0.945094  6.317873
H    -0.068176  1.474996  6.446598
H    -2.898571  1.167007  5.585443
H    -2.277398  1.583055  7.192820
H    -2.202268  -0.103529  6.632608
Ba    1.438627  3.693372  3.362139
