36
Energy: -246329.005596 eV PBE+vdW (tier 2 basis)
C    0.161959  -0.633472  0.491398
C    -0.784374  0.376351  1.049495
O    -0.397712  1.494908  1.465698
H    0.578092  -0.208926  -0.435152
H    -0.303451  -1.592608  0.247599
H    1.006554  -0.781065  1.174855
N    -2.124423  0.108156  1.139420
C    -2.790143  -1.162985  1.443832
C    -1.929394  -1.888824  2.498047
O    -1.460367  -1.181795  3.433227
H    -2.735789  0.922352  1.211297
H    -3.647387  -0.862128  2.067078
C    -3.395172  -1.861644  0.223576
C    -4.320147  -0.917003  -0.580791
C    -5.432873  -0.189056  0.203363
N    -4.927157  0.914982  1.042618
C    -5.151653  1.107232  2.382653
N    -6.292137  0.583948  2.893246
N    -4.220795  1.718878  3.111090
H    -3.983266  -2.726949  0.568555
H    -2.612839  -2.243387  -0.449104
H    -3.714662  -0.174705  -1.122892
H    -4.812909  -1.513331  -1.360711
H    -5.958345  -0.895096  0.860385
H    -6.172991  0.198086  -0.510738
H    -4.505089  1.704481  0.562831
H    -6.449392  0.589097  3.894073
H    -7.116047  0.472527  2.311800
H    -4.664389  2.084292  3.962042
N    -1.772092  -3.202705  2.415400
C    -1.067511  -4.026643  3.398081
H    -2.182930  -3.675961  1.614866
H    -1.763682  -4.739985  3.855263
H    -0.648748  -3.376576  4.169493
H    -0.260438  -4.580363  2.904426
Ba    -1.587331  1.416897  3.769265
