36
Energy: -246328.60587 eV PBE+vdW (tier 2 basis)
C    2.768772  -1.409502  0.616534
C    1.796122  -0.525829  1.331167
O    1.846734  0.734381  1.189968
H    2.616649  -1.288111  -0.465593
H    2.663540  -2.469224  0.871173
H    3.794274  -1.084911  0.832768
N    0.868362  -1.102412  2.105908
C    -0.291070  -0.446189  2.732673
C    0.102498  0.238897  4.062170
O    0.857315  1.270319  3.996273
H    0.895579  -2.116696  2.175349
H    -0.563594  0.395007  2.075412
C    -1.484794  -1.410119  2.782514
C    -1.229986  -2.819491  3.376173
C    -2.299300  -3.250839  4.390133
N    -2.270480  -2.402075  5.591265
C    -3.365385  -1.543577  5.909325
N    -3.303189  -1.088082  7.222661
N    -4.240874  -1.067145  5.108389
H    -1.866131  -1.509007  1.757767
H    -2.279768  -0.892584  3.338660
H    -0.254486  -2.873367  3.889575
H    -1.193792  -3.566860  2.571039
H    -2.127241  -4.294136  4.683672
H    -3.300030  -3.219384  3.935818
H    -1.915373  -2.899846  6.406060
H    -4.130150  -0.545794  7.463287
H    -3.090814  -1.781771  7.936007
H    -4.178723  -1.430008  4.156031
N    -0.373761  -0.201822  5.202726
C    -0.127772  0.437538  6.494610
H    -1.009052  -1.034336  5.231828
H    -0.985518  0.220455  7.140194
H    -0.021567  1.518664  6.366140
H    0.787600  0.040216  6.953407
Ba    1.973302  2.780628  2.482723
