36
Energy: -246329.133702 eV PBE+vdW (tier 2 basis)
C    0.192874  0.042221  0.026096
C    0.060826  -0.151369  1.508992
O    1.009533  -0.677742  2.160723
H    -0.663536  0.547850  -0.432216
H    0.316074  -0.943702  -0.443196
H    1.104100  0.613496  -0.191130
N    -1.088077  0.243556  2.079407
C    -1.588670  0.069895  3.459836
C    -0.901018  0.923121  4.542357
O    0.408541  0.915428  4.599070
H    -1.743954  0.683456  1.442219
H    -2.608458  0.463528  3.407873
C    -1.649805  -1.413795  3.904062
C    -2.875026  -2.221897  3.437656
C    -4.258406  -1.574742  3.654897
N    -4.310118  -0.788205  4.898479
C    -5.034666  0.343116  5.050307
N    -6.265184  0.406139  4.515911
N    -4.474954  1.362735  5.695818
H    -1.595736  -1.424497  5.003438
H    -0.745237  -1.940049  3.571362
H    -2.840897  -3.190207  3.955740
H    -2.798522  -2.455980  2.366716
H    -5.018522  -2.368557  3.661040
H    -4.507605  -0.899792  2.822224
H    -3.505639  -0.844285  5.513948
H    -6.779178  1.278926  4.498696
H    -6.789578  -0.441287  4.331173
H    -5.041243  2.141174  6.015395
N    -1.687812  1.505894  5.386995
C    -1.068273  2.221229  6.501366
H    -3.415594  1.462323  5.623745
H    -1.845900  2.547505  7.201124
H    -0.350313  1.593294  7.050507
H    -0.529936  3.114592  6.151870
Ba    2.450116  -0.008462  4.034920
