36
Energy: -246328.865858 eV PBE+vdW (tier 2 basis)
C    -0.688411  1.016687  -0.607493
C    -0.829269  0.771238  0.740932
O    0.201602  0.624686  1.527582
H    -1.524619  1.123962  -1.288399
H    0.264397  1.424462  -0.948891
H    -2.275447  3.924517  2.720507
N    -2.091612  0.577731  1.406960
C    -3.106032  -0.402189  0.975167
C    -2.540658  -1.844502  0.916425
O    -1.332815  -2.090338  0.665116
H    -1.849099  0.401712  2.384065
H    -3.851253  -0.398127  1.787543
C    -3.876610  -0.059679  -0.320203
C    -4.812490  1.163979  -0.249741
C    -4.223607  2.557494  -0.494900
N    -3.391816  3.023180  0.614294
C    -3.114681  4.299074  0.879793
N    -3.514062  5.287078  0.064551
N    -2.428574  4.611018  1.994177
H    -4.507772  -0.931083  -0.545330
H    -3.186680  0.016554  -1.170758
H    -5.361524  1.167698  0.704992
H    -5.575522  1.027652  -1.028793
H    -5.064857  3.255250  -0.616251
H    -3.646116  2.563956  -1.435822
H    -2.865196  2.280533  1.113683
H    -3.475505  6.256386  0.354553
H    -3.882112  5.095016  -0.857344
H    -2.057112  5.540147  2.144308
N    -3.404599  -2.831046  1.153123
C    -3.053513  -4.250641  1.104021
H    -4.361498  -2.589784  1.390681
H    -3.959741  -4.838711  1.270450
H    -2.321056  -4.493953  1.883386
H    -2.633738  -4.507398  0.124450
Ba    1.007683  -1.262621  0.263284
