36
Energy: -246329.615465 eV PBE+vdW (tier 2 basis)
C    0.412986  0.707157  0.359155
C    0.077638  0.865758  1.808200
O    0.744613  1.622372  2.560016
H    -0.281808  0.055536  -0.181059
H    1.428487  0.298090  0.269505
H    0.425603  1.696547  -0.116318
N    -0.975321  0.171058  2.302165
C    -1.373100  0.324988  3.696897
C    -0.451082  -0.439256  4.673083
O    0.313515  0.257644  5.399850
H    -1.512177  -0.417723  1.672308
H    -1.137893  1.368012  3.928948
C    -2.867637  0.171172  4.002628
C    -3.795490  1.289166  3.462816
C    -3.229146  2.702930  3.245102
N    -2.371535  3.191698  4.331591
C    -1.573679  4.299998  4.249637
N    -1.938248  5.250576  3.357250
N    -0.466328  4.338899  4.980852
H    -2.939442  0.142703  5.100647
H    -3.256020  -0.800260  3.668552
H    -4.658704  1.344743  4.139969
H    -4.211479  0.991195  2.490880
H    -4.093876  3.366603  3.083002
H    -2.629591  2.735172  2.322417
H    -2.425473  2.764614  5.248908
H    -1.332589  6.045017  3.190999
H    -2.905770  5.358168  3.073574
H    -0.144721  5.306001  5.088902
N    -0.443694  -1.766022  4.766294
C    -1.254246  -2.757092  4.059889
H    0.198243  -2.124595  5.473267
H    -2.180086  -2.976985  4.606858
H    -0.672706  -3.680449  3.973382
H    -1.496157  -2.420904  3.048046
Ba    1.412307  2.489617  4.876643
