36
Energy: -246329.450709 eV PBE+vdW (tier 2 basis)
C    -1.177477  1.679001  -1.221347
C    -0.742960  0.395686  -0.590153
O    0.473461  0.098746  -0.462048
H    -2.154037  1.602277  -1.711518
H    -0.418643  1.990959  -1.946586
H    -1.234860  2.467889  -0.454776
N    -1.674908  -0.479995  -0.118470
C    -2.883818  -0.093068  0.597579
C    -2.471147  0.787903  1.805304
O    -1.337939  0.619264  2.335642
H    -1.254949  -1.340144  0.248785
H    -3.556058  0.460622  -0.074461
C    -3.601057  -1.348576  1.153653
C    -3.776997  -2.539153  0.177576
C    -3.033932  -3.840755  0.557968
N    -1.701628  -4.037184  -0.027690
C    -0.527810  -3.529071  0.413903
N    0.559847  -3.690628  -0.394578
N    -0.380794  -2.806728  1.523882
H    -4.583213  -1.019608  1.515642
H    -3.061384  -1.681043  2.053746
H    -3.509177  -2.256752  -0.850223
H    -4.844573  -2.790266  0.144233
H    -3.624367  -4.696600  0.211632
H    -2.979448  -3.951346  1.652748
H    -1.654209  -4.701653  -0.793042
H    1.460163  -3.798490  0.056574
H    0.468223  -4.173505  -1.281628
H    -1.180654  -2.957704  2.144568
N    -3.362894  1.663509  2.253343
C    -3.199043  2.517270  3.429701
H    -4.241084  1.739453  1.745712
H    -3.968960  2.279322  4.173537
H    -3.294481  3.570454  3.140338
H    -2.210252  2.343090  3.859417
Ba    0.935004  -0.535799  1.977158
