36
Energy: -246329.646339 eV PBE+vdW (tier 2 basis)
C    0.797560  0.169862  0.144117
C    0.573273  0.023068  1.615622
O    1.532380  0.020519  2.430442
H    1.444779  -0.645882  -0.204307
H    1.337559  1.107915  -0.041387
H    -0.128052  0.167061  -0.440917
N    -0.700174  -0.102511  2.058022
C    -0.994675  -0.158090  3.488792
C    -0.710045  -1.570452  4.054820
O    0.338161  -1.722691  4.744463
H    -1.455864  -0.063196  1.380421
H    -0.201385  0.449440  3.940670
C    -2.321996  0.496341  3.917281
C    -2.215573  1.042251  5.356247
C    -1.347827  2.322910  5.420089
N    -0.596557  2.550809  6.655029
C    0.654599  2.052428  6.856479
N    1.488412  2.751595  7.655407
N    1.074965  0.928854  6.277979
H    -3.169392  -0.193815  3.838645
H    -2.535664  1.326344  3.225609
H    -1.813536  0.266754  6.027285
H    -3.221044  1.256326  5.739393
H    -1.987966  3.200457  5.268414
H    -0.621541  2.331754  4.591669
H    -0.918040  3.294653  7.265168
H    1.267657  3.685218  7.978798
H    2.265981  2.277107  8.095176
H    0.244027  0.371992  6.058480
N    -1.508215  -2.608936  3.816973
C    -2.736960  -2.699849  3.030345
H    -1.193307  -3.471997  4.260370
H    -3.624416  -2.641160  3.673959
H    -2.746516  -3.664498  2.511562
H    -2.784101  -1.913066  2.273860
Ba    2.575274  -0.478238  4.706521
