36
Energy: -246329.183449 eV PBE+vdW (tier 2 basis)
C    0.379001  -0.786303  -0.049276
C    0.081057  -0.634401  1.414024
O    0.859373  -1.150267  2.268374
H    0.360230  -1.856526  -0.297701
H    1.395529  -0.428447  -0.255191
H    -0.325570  -0.259695  -0.701359
N    -1.023636  0.049796  1.746660
C    -1.678216  0.270198  3.062831
C    -0.904245  1.231944  3.978287
O    0.267365  0.830330  4.417087
H    -1.532758  0.434151  0.957091
H    -2.583538  0.818082  2.783055
C    -2.061205  -1.065017  3.737590
C    -2.860639  -0.960043  5.049835
C    -4.349665  -0.585460  4.938217
N    -4.582078  0.814275  4.562619
C    -4.720754  1.865636  5.399220
N    -5.453320  1.747834  6.516715
N    -4.114834  3.001606  5.055078
H    -1.140392  -1.629104  3.942077
H    -2.619871  -1.669483  3.006602
H    -2.366480  -0.267922  5.749303
H    -2.831564  -1.950130  5.528174
H    -4.837263  -0.771939  5.902046
H    -4.860537  -1.220938  4.201644
H    -4.269280  1.088743  3.638619
H    -6.172991  1.038401  6.591547
H    -5.446011  2.476071  7.220538
H    -4.371638  3.882222  5.487030
N    -1.473627  2.354246  4.273212
C    -0.719421  3.258029  5.142386
H    -3.197927  2.902633  4.549538
H    -1.312882  4.158401  5.337761
H    0.221763  3.575770  4.669848
H    -0.463725  2.791304  6.106346
Ba    2.116601  -0.550702  4.276216
