36
Energy: -246329.393903 eV PBE+vdW (tier 2 basis)
C    -1.528960  0.365440  1.082940
C    -0.951264  -0.361739  2.264492
O    -0.023014  -1.248662  1.994269
H    -2.310589  1.070726  1.378808
H    -1.941977  -0.356221  0.365568
H    -0.734414  0.915033  0.560110
N    -1.401288  -0.070760  3.455559
C    -0.936042  -0.805651  4.645521
C    0.587092  -0.771257  4.826734
O    1.333474  -1.762169  4.553393
H    -3.953678  2.214354  3.444985
H    -1.335886  -0.235188  5.499779
C    -1.519361  -2.228269  4.767996
C    -3.005865  -2.359141  4.387037
C    -3.996708  -1.421794  5.089628
N    -3.915220  -0.060709  4.551508
C    -4.826119  0.886408  4.746463
N    -5.881950  0.691698  5.553580
N    -4.691613  2.072157  4.121202
H    -1.364610  -2.572767  5.801440
H    -0.960063  -2.930473  4.132695
H    -3.316287  -3.385906  4.623179
H    -3.132641  -2.248137  3.300258
H    -3.811607  -1.416986  6.178387
H    -5.012047  -1.814064  4.924194
H    -3.047011  0.159602  3.987990
H    -6.638680  1.361756  5.605787
H    -5.982276  -0.158802  6.090551
H    -5.304287  2.852159  4.318557
N    1.136350  0.350929  5.289494
C    0.460851  1.594671  5.659430
H    2.143970  0.306854  5.431087
H    -0.359052  1.800957  4.964322
H    1.184907  2.412309  5.589919
H    0.084427  1.552135  6.690469
Ba    1.666645  -2.788726  2.354319
