36
Energy: -246328.571701 eV PBE+vdW (tier 2 basis)
C    1.023387  1.814755  1.227652
C    0.619419  0.833378  2.281224
O    1.483503  0.400291  3.117881
H    1.437573  2.711126  1.708715
H    1.828106  1.380638  0.618754
H    0.190813  2.110413  0.581602
N    -0.648826  0.437607  2.311094
C    -1.230976  -0.595157  3.189812
C    -1.153384  -0.147264  4.658086
O    -0.193452  -0.495217  5.414848
H    -1.278622  0.693600  1.502299
H    -2.293513  -0.581274  2.918489
C    -0.720595  -2.042902  2.947106
C    -1.860740  -3.025343  2.596091
C    -2.158344  -3.206733  1.083789
N    -2.046264  -2.008856  0.255626
C    -2.720752  -0.826910  0.421321
N    -3.878292  -0.887812  1.186178
N    -2.309218  0.346839  0.018114
H    -0.220019  -2.405570  3.857098
H    0.034505  -2.027803  2.148565
H    -2.772258  -2.712342  3.125697
H    -1.623098  -4.022658  2.990438
H    -3.147835  -3.675816  0.969406
H    -1.446773  -3.924228  0.657521
H    -1.226909  -1.947567  -0.335492
H    -4.466657  -0.073716  1.025296
H    -4.404637  -1.755738  1.130281
H    -1.483804  0.258511  -0.583009
N    -2.122968  0.626547  5.129900
C    -3.294286  1.148925  4.416805
H    -2.018446  0.893408  6.108120
H    -3.906454  1.699508  5.135946
H    -3.899050  0.335182  3.998875
H    -2.995693  1.835017  3.614672
Ba    2.228333  -0.602173  5.150440
