36
Energy: -246329.861613 eV PBE+vdW (tier 2 basis)
C    0.794008  2.536878  1.239341
C    -0.101120  1.748744  2.147406
O    -0.517483  0.611849  1.811185
H    1.691054  1.943614  1.018914
H    1.097611  3.505928  1.648844
H    0.274372  2.698896  0.285487
N    -0.437653  2.317512  3.327270
C    -1.358891  1.777908  4.347755
C    -0.705453  0.566943  5.045114
O    -0.768230  -0.586818  4.544177
H    -0.057792  3.242143  3.503146
H    -1.447350  2.575136  5.094779
C    -2.769374  1.518661  3.771686
C    -3.679746  0.619844  4.609685
C    -5.085775  0.463459  4.015899
N    -5.162673  0.210265  2.562539
C    -5.070054  -1.032105  1.992652
N    -5.989339  -1.311776  1.036116
N    -4.093576  -1.863243  2.336598
H    -2.688496  1.116197  2.753791
H    -3.236801  2.506041  3.640495
H    -3.804543  1.027810  5.624926
H    -3.235929  -0.375149  4.744954
H    -5.651961  1.389921  4.174690
H    -5.614677  -0.332656  4.558777
H    -5.782507  0.845656  2.071208
H    -5.887116  -2.124395  0.440699
H    -6.883191  -0.835233  1.003264
H    -4.352216  -2.810983  2.041163
N    -0.060784  0.764713  6.194841
C    0.151575  2.014224  6.930707
H    0.354006  -0.079398  6.587626
H    -0.798302  2.460611  7.250063
H    0.727437  2.736996  6.339482
H    0.729581  1.780476  7.829015
Ba    -1.449580  -1.656683  2.383235
