36
Energy: -246328.237807 eV PBE+vdW (tier 2 basis)
C    -0.903779  1.333010  0.859337
C    -0.907724  0.738140  2.230702
O    -0.186043  1.262318  3.136811
H    -1.795833  1.089823  0.279308
H    -0.011213  1.020013  0.297792
H    -0.830938  2.421583  0.980663
N    -1.711095  -0.301680  2.576963
C    -1.803492  -1.631405  1.937655
C    -0.617453  -2.471788  2.490855
O    0.474253  -1.881765  2.835030
H    -1.761258  -0.382098  3.593818
H    -2.723243  -2.089054  2.325935
C    -1.869825  -1.658439  0.400490
C    -3.239194  -1.227855  -0.181798
C    -4.144452  -2.394676  -0.637045
N    -4.413145  -3.389620  0.404755
C    -3.495910  -4.336132  0.798158
N    -2.685739  -4.855415  -0.186112
N    -3.278564  -4.723980  2.032021
H    -1.645725  -2.688628  0.093685
H    -1.054586  -1.059046  -0.020593
H    -3.083349  -0.582306  -1.058599
H    -3.785278  -0.611736  0.550184
H    -3.700829  -2.892977  -1.508040
H    -5.107735  -1.995780  -0.979079
H    -5.016748  -3.067539  1.155524
H    -2.235493  -5.723613  0.086144
H    -3.057393  -4.879546  -1.130027
H    -3.934357  -4.296470  2.690672
N    -0.795869  -3.763582  2.602768
C    0.236628  -4.681925  3.072637
H    -1.774150  -4.195214  2.378640
H    -0.176726  -5.694178  3.049049
H    0.533321  -4.448350  4.103774
H    1.123443  -4.637655  2.428162
Ba    1.728066  -0.112608  3.894034
