36
Energy: -246329.86387 eV PBE+vdW (tier 2 basis)
C    -0.657643  0.319691  0.025082
C    -1.031206  -0.224335  1.375015
O    -0.820294  -1.439626  1.645957
H    0.403332  0.119547  -0.171866
H    -0.843067  1.392552  -0.091309
H    -1.229743  -0.224650  -0.738830
N    -1.578923  0.648086  2.240856
C    -2.196914  0.487371  3.568555
C    -1.381711  -0.361209  4.564159
O    -0.202462  -0.727400  4.339181
H    -1.679255  1.588771  1.869896
H    -2.119128  1.497429  4.006351
C    -3.723247  0.213943  3.461597
C    -4.244211  -1.049428  2.760628
C    -4.106800  -2.389693  3.488838
N    -2.738702  -2.884589  3.407532
C    -2.216524  -3.946592  4.069272
N    -3.048460  -4.658656  4.869772
N    -0.913288  -4.190774  3.949252
H    -4.135639  1.079641  2.922984
H    -4.170343  0.292169  4.465590
H    -3.816568  -1.137975  1.749104
H    -5.318103  -0.886855  2.595468
H    -4.810417  -3.104167  3.028273
H    -4.396481  -2.280338  4.546598
H    -2.176427  -2.519746  2.640513
H    -2.690334  -5.463871  5.368308
H    -4.051371  -4.641513  4.726422
H    -0.679240  -5.099780  4.353878
N    -1.960999  -0.592343  5.742220
C    -1.288633  -1.282361  6.841143
H    -2.901880  -0.249826  5.901687
H    -1.921330  -1.219073  7.730322
H    -0.322915  -0.810182  7.055297
H    -1.128342  -2.339409  6.591517
Ba    0.939822  -2.588986  3.108830
