36
Energy: -246328.509698 eV PBE+vdW (tier 2 basis)
C    0.443895  -0.909370  0.132738
C    0.157824  -0.195221  1.418539
O    1.092782  0.317315  2.100718
H    0.185301  -1.976300  0.214975
H    1.505335  -0.814185  -0.109691
H    -0.155273  -0.491829  -0.685738
N    -1.117965  -0.109106  1.865068
C    -2.062535  -1.249256  1.830499
C    -1.321957  -2.519815  2.350900
O    -0.339254  -2.277677  3.200639
H    -1.205350  0.487858  2.684809
H    -2.791505  -0.997969  2.616965
C    -2.840559  -1.390021  0.502823
C    -4.341498  -1.624007  0.743923
C    -5.175465  -2.062047  -0.472380
N    -4.626526  -3.173434  -1.278210
C    -3.867088  -4.177280  -0.823475
N    -3.008719  -4.800627  -1.649639
N    -3.896914  -4.580161  0.463114
H    -2.397170  -2.203591  -0.084629
H    -2.705447  -0.467445  -0.077324
H    -4.803686  -0.686792  1.089194
H    -4.470703  -2.328451  1.575875
H    -5.271387  -1.223651  -1.174568
H    -6.195515  -2.309449  -0.142953
H    -4.766136  -3.106489  -2.282199
H    -2.704166  -5.739030  -1.416996
H    -2.821124  -4.460850  -2.585359
H    -4.727140  -4.302492  0.976582
N    -1.696920  -3.694549  1.975017
C    -1.005562  -4.837504  2.572126
H    -3.009923  -4.399881  1.016605
H    -1.014861  -4.797194  3.671149
H    0.045783  -4.885373  2.247320
H    -1.496530  -5.765024  2.257257
Ba    1.513286  -1.166454  4.089840
