36
Energy: -246328.992148 eV PBE+vdW (tier 2 basis)
C    -0.671951  0.816827  -0.553693
C    -0.646718  0.463906  0.901593
O    0.438328  0.033053  1.436430
H    0.101230  1.566488  -0.767994
H    -1.642950  1.202347  -0.879682
H    -0.432943  -0.078960  -1.143094
N    -1.754976  0.606304  1.598546
C    -2.014110  0.319209  3.007230
C    -3.516922  0.716008  3.151455
O    -4.024221  1.395359  2.252040
H    -2.607819  1.031142  1.181465
H    -1.888439  -0.759951  3.182769
C    -1.107324  1.098837  3.987997
C    -0.990027  2.609793  3.705178
C    0.450988  3.101989  3.562764
N    1.215905  2.958649  4.802830
C    2.496356  2.531290  4.924521
N    3.161058  2.954539  6.025499
N    3.056239  1.709042  4.030385
H    -0.107755  0.638099  3.973554
H    -1.481482  0.921217  5.003198
H    -1.492339  3.185063  4.495568
H    -1.518491  2.880349  2.780527
H    0.454746  4.159667  3.256413
H    0.977607  2.547061  2.776815
H    0.852926  3.485945  5.591656
H    4.039680  2.533956  6.298892
H    2.835845  3.733226  6.585898
H    4.065235  1.701699  4.215721
N    -4.196417  0.324153  4.243699
C    -3.778972  -0.547321  5.334854
H    -5.157113  0.661297  4.258449
H    -4.636230  -1.150061  5.653528
H    -3.418940  0.022988  6.203150
H    -2.995748  -1.240810  5.009450
Ba    2.631982  -0.171708  2.331769
