36
Energy: -246328.385348 eV PBE+vdW (tier 2 basis)
C    -0.100993  -0.780949  0.271375
C    -0.184044  -0.637883  1.758183
O    0.889641  -0.493597  2.444216
H    0.771735  -1.386577  0.000263
H    0.067005  0.220052  -0.155756
H    -1.014188  -1.200648  -0.177756
N    -1.393727  -0.680933  2.308335
C    -1.848401  -0.377353  3.668181
C    -0.953973  -0.833396  4.814912
O    -0.180603  -1.837407  4.742963
H    -2.213711  -0.820512  1.650728
H    -1.958040  0.716561  3.754120
C    -3.244840  -1.049070  3.867841
C    -4.472080  -0.292010  3.321900
C    -4.424264  0.224511  1.876853
N    -3.852301  -0.769808  0.965393
C    -3.679135  -0.526508  -0.431893
N    -4.061276  0.720530  -0.866204
N    -3.082052  -1.460511  -1.080641
H    -3.415033  -1.210516  4.940736
H    -3.171227  -2.057150  3.434982
H    -4.692037  0.570397  3.967589
H    -5.328852  -0.972690  3.437858
H    -3.800943  1.129821  1.814228
H    -5.449683  0.527256  1.601865
H    -4.216999  -1.714233  1.085959
H    -3.973766  0.894836  -1.861628
H    -4.864911  1.173847  -0.443450
H    -3.054454  -1.287955  -2.088308
N    -1.060842  -0.169529  5.968375
C    -1.902274  0.987178  6.290487
H    -0.554402  -0.594360  6.742788
H    -1.734401  1.807220  5.582431
H    -1.623912  1.338567  7.287815
H    -2.967231  0.722681  6.302713
Ba    2.056629  -2.083166  3.785671
