36
Energy: -246329.137676 eV PBE+vdW (tier 2 basis)
C    -0.028955  -1.384044  0.139981
C    -0.247568  -0.040990  0.768812
O    0.663869  0.858680  0.691882
H    0.848353  -1.856559  0.602494
H    0.185559  -1.264175  -0.930182
H    -0.888348  -2.051851  0.254928
N    -1.391157  0.171424  1.390888
C    -1.802126  1.306330  2.213796
C    -2.832485  0.653155  3.189391
O    -3.318433  -0.433998  2.866730
H    -2.084564  -0.593058  1.513821
H    -0.927467  1.688714  2.758483
C    -2.503769  2.417213  1.399175
C    -1.622250  3.177212  0.396949
C    -0.579473  4.061765  1.073341
N    0.394311  4.613775  0.075734
C    1.465598  5.371495  0.633225
N    1.412319  6.709213  0.513945
N    2.426143  4.655879  1.157279
H    -2.957113  3.131030  2.102208
H    -3.341784  1.955554  0.858813
H    -2.277960  3.798008  -0.232302
H    -1.129943  2.465959  -0.283364
H    0.004505  3.496751  1.812319
H    -1.071071  4.883897  1.618673
H    -0.105478  5.141098  -0.643350
H    0.561357  7.189727  0.243837
H    2.190981  7.293757  0.801572
H    3.130369  5.201851  1.657306
N    -3.169576  1.304201  4.317936
C    -2.676062  2.572438  4.834583
H    -3.888525  0.826534  4.858161
H    -1.647327  2.757170  4.504903
H    -2.665075  2.530071  5.929022
H    -3.310411  3.417686  4.529759
Ba    2.319853  2.378558  -0.159273
