36
Energy: -246329.045679 eV PBE+vdW (tier 2 basis)
C    1.369083  -1.138102  -0.179383
C    0.683896  -0.172207  0.744149
O    1.311736  0.858837  1.170547
H    1.756889  -0.607117  -1.060282
H    0.714295  -1.947440  -0.517835
H    2.227560  -1.582639  0.342911
N    -0.564684  -0.429330  1.083217
C    -1.415194  0.254216  2.054712
C    -2.563947  -0.776897  2.269599
O    -2.704439  -1.667026  1.421007
H    -1.065009  -1.273924  0.739964
H    -0.843341  0.406775  2.981411
C    -1.962668  1.620762  1.580953
C    -2.783002  1.624199  0.276589
C    -1.982988  1.902563  -1.004287
N    -1.330485  3.217025  -0.948767
C    -0.011301  3.444491  -1.052600
N    0.491494  4.646114  -0.497540
N    0.922099  2.635908  -1.500830
H    -1.116759  2.320913  1.504353
H    -2.584750  2.011614  2.396168
H    -3.577754  2.380548  0.356950
H    -3.307947  0.667872  0.137339
H    -2.643264  1.861029  -1.881056
H    -1.202164  1.147783  -1.152797
H    -1.937063  4.013070  -0.768432
H    0.989409  5.211803  -1.186602
H    -0.187409  5.220122  0.001296
H    0.552301  1.849345  -2.036352
N    -3.372385  -0.648303  3.334801
C    -3.300686  0.291208  4.447389
H    -4.116318  -1.343376  3.359577
H    -3.621141  -0.218888  5.362133
H    -3.954149  1.161348  4.291863
H    -2.273225  0.635330  4.607715
Ba    2.651095  2.735125  0.431733
