36
Energy: -246328.907581 eV PBE+vdW (tier 2 basis)
C    -0.445586  -0.586728  -0.252933
C    -0.015356  -0.408325  1.170749
O    1.147764  -0.754176  1.536825
H    0.067021  0.132774  -0.908016
H    -1.525809  -0.493437  -0.396411
H    -0.124295  -1.586581  -0.572632
N    -0.876823  0.114778  2.074215
C    -1.636054  1.346724  1.785455
C    -0.745126  2.546383  2.224178
O    0.551909  2.367074  2.038328
H    -0.513096  0.064090  3.026056
H    -1.666734  1.434720  0.688534
C    -3.100144  1.286195  2.241492
C    -3.432845  0.922079  3.697322
C    -3.066361  1.971259  4.760789
N    -3.431532  3.327364  4.367434
C    -4.552313  3.972829  4.668731
N    -5.544574  3.399684  5.372798
N    -4.705639  5.249710  4.268519
H    -3.586526  0.535336  1.603009
H    -3.567274  2.244001  1.974027
H    -2.968754  -0.035412  3.979983
H    -4.516881  0.737918  3.732844
H    -1.980686  1.992702  4.929500
H    -3.511286  1.716229  5.732324
H    -2.766394  3.689134  3.630831
H    -6.280965  3.957839  5.786455
H    -5.499940  2.427452  5.644217
H    -5.605620  5.710527  4.304987
N    -1.293235  3.625823  2.664579
C    -0.414196  4.759663  2.941368
H    -3.950782  5.737984  3.805810
H    -1.009173  5.603108  3.310131
H    0.116805  5.090330  2.036538
H    0.343044  4.520573  3.704712
Ba    2.600496  1.251020  1.932183
