36
Energy: -246329.057781 eV PBE+vdW (tier 2 basis)
C    0.368109  -1.367971  2.046799
C    -0.444893  -1.669338  3.266542
O    0.040375  -2.437763  4.170305
H    1.352002  -1.006250  2.374219
H    -0.083211  -0.618293  1.391182
H    0.544940  -2.287628  1.472297
N    -1.648818  -1.151157  3.447034
C    -2.580316  -0.538623  2.501283
C    -3.733767  -0.045538  3.424900
O    -3.849118  -0.558760  4.544945
H    -2.139562  -1.294885  4.349782
H    -2.113220  0.308838  1.980892
C    -3.087569  -1.586641  1.473803
C    -3.709673  -2.819700  2.148808
C    -3.616729  -4.120503  1.329076
N    -3.537500  -5.297589  2.204867
C    -2.435279  -5.632638  2.898872
N    -2.569159  -6.516785  3.984899
N    -1.223462  -5.145566  2.727270
H    -2.230757  -1.887387  0.850235
H    -3.798816  -1.102023  0.791197
H    -4.754557  -2.626983  2.424719
H    -3.185500  -3.001824  3.097245
H    -2.741070  -4.111537  0.661798
H    -4.484183  -4.262390  0.675077
H    -4.377334  -5.853440  2.331216
H    -2.022220  -7.369890  3.868560
H    -3.524313  -6.745783  4.256165
H    -1.129770  -4.624206  1.854209
N    -4.554662  0.878196  2.905768
C    -5.709121  1.424265  3.616946
H    -4.327324  1.274229  1.999113
H    -6.613291  1.317752  3.006300
H    -5.550910  2.485651  3.844141
H    -5.831027  0.871425  4.551988
Ba    -0.026424  -4.697369  4.985237
