36
Energy: -246329.024313 eV PBE+vdW (tier 2 basis)
C    0.157845  -1.109873  0.678458
C    -0.035563  0.015455  1.649457
O    0.895907  0.853554  1.848004
H    0.055407  -0.750453  -0.356514
H    -0.539377  -1.938888  0.831663
H    1.186344  -1.474207  0.789939
N    -1.202859  0.137493  2.318853
C    -2.501799  0.013460  1.637496
C    -2.841722  1.420503  1.061752
O    -1.807967  2.108646  0.610536
H    -1.173640  0.855471  3.044049
H    -2.332551  -0.639196  0.767391
C    -3.576512  -0.624273  2.523984
C    -4.721294  -1.277160  1.712074
C    -6.118766  -0.951275  2.232962
N    -6.357127  0.487688  2.103942
C    -7.470048  1.099766  2.487941
N    -8.525236  0.405764  2.945012
N    -7.548066  2.446205  2.443711
H    -3.968598  0.134064  3.217177
H    -3.086645  -1.385737  3.143721
H    -4.607452  -2.368378  1.716459
H    -4.671145  -0.968941  0.657596
H    -6.217576  -1.257305  3.288327
H    -6.860136  -1.515140  1.643806
H    -5.548135  1.043915  1.714476
H    -9.345710  0.870162  3.312345
H    -8.529535  -0.605127  2.941260
H    -8.437050  2.921829  2.528282
N    -4.070721  1.811060  1.046412
C    -4.367223  3.096377  0.422067
H    -6.768031  2.987105  2.096431
H    -5.408077  3.098566  0.070998
H    -3.722286  3.314156  -0.440748
H    -4.249096  3.921391  1.143913
Ba    0.358523  2.995500  0.678720
