36
Energy: -246328.907117 eV PBE+vdW (tier 2 basis)
C    -0.257366  -0.811508  0.264183
C    0.055536  -0.661305  1.722182
O    1.185892  -1.015622  2.174509
H    0.514018  -1.418269  -0.217792
H    -0.256931  0.179557  -0.212075
H    -1.244896  -1.256255  0.089173
N    -0.860668  -0.132407  2.567500
C    -2.294939  -0.482529  2.525902
C    -2.448882  -2.030323  2.464980
O    -1.377793  -2.740393  2.766200
H    -0.482648  0.015503  3.501131
H    -2.657552  -0.206932  3.528320
C    -3.110312  0.328569  1.488375
C    -4.007437  1.400895  2.121491
C    -5.313754  0.879151  2.732697
N    -6.336184  0.579604  1.723265
C    -6.884893  -0.616148  1.451689
N    -8.074889  -0.644487  0.820371
N    -6.278325  -1.752450  1.790349
H    -3.704193  -0.359332  0.872318
H    -2.410019  0.825676  0.807838
H    -4.254139  2.163568  1.368400
H    -3.451353  1.937845  2.905152
H    -5.735129  1.636637  3.408249
H    -5.158212  -0.026820  3.333366
H    -6.763739  1.380117  1.267982
H    -8.414759  -1.491546  0.383055
H    -8.688005  0.161094  0.808051
H    -6.817503  -2.608795  1.746559
N    -3.612084  -2.509330  2.191007
C    -3.764662  -3.961883  2.224868
H    -5.238695  -1.851371  1.962896
H    -4.713936  -4.243977  1.754525
H    -3.775050  -4.339046  3.259169
H    -2.956061  -4.478047  1.687459
Ba    0.857834  -3.269014  3.206801
