36
Energy: -246328.398745 eV PBE+vdW (tier 2 basis)
C    -1.741009  0.014713  -0.213089
C    -1.214948  -0.215839  1.162248
O    -0.110440  -0.820395  1.355835
H    -1.122725  0.763768  -0.731800
H    -2.788636  0.343738  -0.222264
H    -1.628177  -0.921671  -0.775677
N    -1.901190  0.233688  2.234376
C    -2.571181  1.531330  2.275767
C    -1.485501  2.612197  2.192093
O    -0.245299  2.305720  2.302335
H    -1.539805  -0.097194  3.130359
H    -3.242292  1.624438  1.380054
C    -3.463568  1.643790  3.546565
C    -4.965983  1.587466  3.243743
C    -5.411726  0.355014  2.415558
N    -6.349059  0.661934  1.353361
C    -5.974094  1.329306  0.218732
N    -7.003131  1.631631  -0.636824
N    -4.716341  1.659759  0.034850
H    -3.237959  2.572145  4.089059
H    -3.181093  0.830413  4.234177
H    -5.256418  2.491267  2.693146
H    -5.512421  1.624713  4.195704
H    -5.885876  -0.392118  3.062947
H    -4.545113  -0.142575  1.958051
H    -7.336510  0.630143  1.575212
H    -6.769017  2.002436  -1.548814
H    -7.850697  1.075350  -0.614879
H    -4.595860  2.074518  -0.891701
N    -1.833433  3.871826  1.981892
C    -3.179118  4.409687  1.760701
H    -1.062694  4.538555  1.988890
H    -3.630280  4.733687  2.707299
H    -3.815708  3.658329  1.276552
H    -3.094274  5.277008  1.098483
Ba    1.613286  0.712650  2.205861
