36
Energy: -246328.929725 eV PBE+vdW (tier 2 basis)
C    -1.628568  -2.666402  0.857019
C    -1.395300  -1.654112  1.932331
O    -0.326590  -0.939725  1.891626
H    -1.827482  -2.144135  -0.089678
H    -2.463349  -3.333799  1.081314
H    -0.717647  -3.259428  0.710839
N    -2.292742  -1.505164  2.898089
C    -2.092024  -0.468536  3.918985
C    -0.892215  -0.817022  4.820130
O    0.148356  -0.083629  4.754883
H    -3.245237  -2.093915  2.843279
H    -1.773827  0.449991  3.399442
C    -3.359765  -0.127260  4.717453
C    -4.504817  0.460982  3.863551
C    -5.878829  -0.131026  4.230305
N    -5.913102  -1.593474  4.078892
C    -5.719992  -2.162487  2.825847
N    -6.718294  -1.933386  1.938424
N    -4.618970  -2.839687  2.596825
H    -3.069459  0.584232  5.502949
H    -3.702885  -1.025211  5.246022
H    -4.324496  0.268739  2.794419
H    -4.538446  1.553084  3.976343
H    -6.655941  0.318587  3.600761
H    -6.145906  0.097518  5.270473
H    -5.344802  -2.081237  4.765761
H    -6.646556  -2.265552  0.984994
H    -7.649010  -1.727763  2.283905
H    -4.691233  -3.408237  1.748507
N    -0.903983  -1.858838  5.643537
C    -1.937602  -2.871354  5.872760
H    -0.059565  -1.943745  6.209223
H    -1.439960  -3.819489  6.102110
H    -2.551072  -3.016086  4.979271
H    -2.570885  -2.596744  6.726034
Ba    1.442880  0.420839  2.735386
