36
Energy: -246328.763181 eV PBE+vdW (tier 2 basis)
C    1.472789  1.192622  0.525450
C    0.683969  1.138560  1.793812
O    1.011981  1.877847  2.784998
H    1.334900  2.181298  0.064017
H    2.541161  1.097950  0.756250
H    1.178926  0.413340  -0.184965
N    -0.359674  0.313919  1.855824
C    -1.265534  0.215076  3.013652
C    -0.560884  -0.562685  4.147444
O    0.115363  0.067957  5.018317
H    -0.595708  -0.216562  0.969174
H    -1.411854  1.232197  3.411429
C    -2.625333  -0.382801  2.622659
C    -3.525663  0.522128  1.743151
C    -4.291842  -0.239384  0.638148
N    -3.487385  -0.492408  -0.574533
C    -2.285186  -1.184210  -0.448192
N    -2.395623  -2.459926  0.065599
N    -1.098144  -0.707901  -0.705441
H    -3.161067  -0.620140  3.552175
H    -2.461529  -1.342042  2.106912
H    -2.930016  1.314504  1.262377
H    -4.250835  1.039178  2.386614
H    -5.159129  0.347941  0.315147
H    -4.692890  -1.186903  1.023577
H    -3.354583  0.364643  -1.107930
H    -1.571390  -3.029761  -0.101730
H    -3.265786  -2.941275  -0.142481
H    -1.180966  0.247295  -1.067364
N    -0.672352  -1.881199  4.168580
C    -0.055246  -2.768113  5.153650
H    -1.237899  -2.310050  3.439424
H    -0.755918  -3.573626  5.395986
H    0.173293  -2.200451  6.059053
H    0.867649  -3.206168  4.751626
Ba    1.432587  2.130404  5.119194
