36
Energy: -246328.827455 eV PBE+vdW (tier 2 basis)
C    0.415773  -1.753082  0.433754
C    0.328766  -0.416137  1.095641
O    1.402627  0.231568  1.353926
H    0.697956  -1.591845  -0.617816
H    -0.519153  -2.318845  0.457461
H    1.218879  -2.345257  0.887637
N    -0.830285  0.132149  1.444920
C    -2.221057  -0.309629  1.322617
C    -2.949470  1.026639  0.978921
O    -2.371967  2.081010  1.287184
H    -0.867686  1.160500  1.629701
H    -2.323737  -1.050208  0.520377
C    -2.790625  -0.841169  2.660619
C    -2.265966  -2.184148  3.193386
C    -0.921018  -2.209691  3.938365
N    -0.869420  -1.400904  5.161559
C    -0.045621  -0.342719  5.364982
N    0.249527  -0.013183  6.644886
N    0.495939  0.357778  4.367351
H    -3.875466  -0.944571  2.520917
H    -2.673078  -0.051738  3.420378
H    -2.202280  -2.923854  2.379894
H    -3.029156  -2.584122  3.877542
H    -0.085226  -1.893579  3.304384
H    -0.709039  -3.251338  4.220977
H    -1.341544  -1.785621  5.974587
H    0.501875  0.943241  6.857027
H    -0.057422  -0.583508  7.423638
H    -0.053502  0.158996  3.524028
N    -4.163842  0.992306  0.413137
C    -4.962616  -0.158573  0.006478
H    -4.578269  1.913997  0.285101
H    -4.327778  -1.027528  -0.194375
H    -5.491819  0.084823  -0.921108
H    -5.705166  -0.426340  0.771042
Ba    2.546060  1.309103  3.200667
