36
Energy: -246328.200973 eV PBE+vdW (tier 2 basis)
C    -0.888288  -0.250154  0.040814
C    -0.665491  -0.323460  1.517542
O    0.447757  -0.720367  1.977796
H    -1.837077  0.220384  -0.236777
H    -0.875441  -1.274569  -0.360307
H    -0.059564  0.290252  -0.432660
N    -1.677875  0.029241  2.322162
C    -1.814701  -0.150042  3.785577
C    -0.942308  0.836973  4.575820
O    0.320422  0.715551  4.610134
H    -2.529143  0.312567  1.845227
H    -2.865379  0.105376  3.979693
C    -1.620379  -1.602003  4.271869
C    -2.458250  -2.611070  3.488106
C    -2.436739  -4.031456  4.091329
N    -3.134595  -5.003560  3.261019
C    -4.490379  -4.774198  2.942266
N    -5.298888  -4.654135  4.067903
N    -4.811913  -4.661204  1.703930
H    -1.897745  -1.616167  5.337929
H    -0.556330  -1.888447  4.232207
H    -2.110419  -2.671607  2.445554
H    -3.506471  -2.274437  3.443740
H    -2.884960  -4.011929  5.094786
H    -1.401137  -4.383949  4.215891
H    -2.646481  -5.198599  2.387838
H    -6.294102  -4.604320  3.874807
H    -5.084397  -5.296806  4.826745
H    -5.826582  -4.666746  1.561985
N    -1.571734  1.783141  5.259534
C    -0.932793  2.776623  6.122063
H    -2.584071  1.830301  5.176365
H    -1.500760  2.859449  7.055024
H    -0.916418  3.754883  5.624777
H    0.089501  2.460440  6.341303
Ba    2.198226  -0.472394  3.608976
