36
Energy: -246329.172618 eV PBE+vdW (tier 2 basis)
C    -0.283787  0.403217  -0.633518
C    -0.003173  0.490810  0.831390
O    1.191775  0.669205  1.249453
H    -1.331820  0.599624  -0.880685
H    -0.023834  -0.601994  -0.997441
H    0.358331  1.114654  -1.164619
N    -0.973778  0.381134  1.730829
C    -2.360883  -0.060911  1.637743
C    -2.886135  0.148008  3.082601
O    -2.069318  0.165861  4.023690
H    -0.712515  0.460579  2.723525
H    -2.920575  0.581832  0.944579
C    -2.510018  -1.548818  1.173874
C    -1.376727  -2.506724  1.569287
C    -1.275231  -2.886629  3.063781
N    0.099367  -3.242413  3.434934
C    1.030292  -2.344314  3.804408
N    2.394866  -2.737914  3.734769
N    0.850503  -1.092105  4.147383
H    -2.582047  -1.552297  0.078079
H    -3.476413  -1.929256  1.533757
H    -0.412822  -2.076052  1.261618
H    -1.490059  -3.422895  0.973494
H    -1.912421  -3.747875  3.296060
H    -1.607690  -2.073019  3.717423
H    0.377744  -4.214375  3.341896
H    2.827692  -2.762848  4.659954
H    2.565747  -3.624543  3.260277
H    -0.128856  -0.837621  4.322087
N    -4.206489  0.268994  3.265833
C    -5.254899  0.388454  2.251074
H    -4.479144  0.380789  4.240105
H    -5.118611  1.285106  1.632069
H    -6.214475  0.479750  2.767144
H    -5.306906  -0.497965  1.607129
Ba    2.803084  0.189005  3.012871
