36
Energy: -246329.453191 eV PBE+vdW (tier 2 basis)
C    -0.379718  1.724846  1.840701
C    -1.305989  0.804181  2.570486
O    -1.288459  0.714866  3.826576
H    -0.089986  1.342196  0.855688
H    0.513847  1.880216  2.453746
H    -0.858172  2.707046  1.702527
N    -2.195846  0.045540  1.876369
C    -2.924721  0.500378  0.705200
C    -3.929412  1.606982  1.158340
O    -4.047956  1.921322  2.373347
H    -2.722343  -0.594520  2.473477
H    -2.215808  0.998434  0.026977
C    -3.528214  -0.699454  -0.076015
C    -4.223235  -1.798248  0.742792
C    -5.639361  -1.482193  1.278533
N    -5.944626  -2.169665  2.528797
C    -5.475879  -1.767101  3.740569
N    -5.509179  -2.660713  4.752322
N    -4.977766  -0.548681  3.938903
H    -2.692024  -1.162382  -0.616461
H    -4.206410  -0.319808  -0.854592
H    -3.585023  -2.111001  1.582736
H    -4.282348  -2.691246  0.106305
H    -6.401198  -1.783920  0.550056
H    -5.795462  -0.400069  1.411525
H    -6.423535  -3.061448  2.467506
H    -5.443132  -2.333864  5.706516
H    -5.814490  -3.615896  4.614510
H    -5.226223  0.014620  3.119700
N    -4.619130  2.228237  0.206388
C    -5.562304  3.319403  0.461732
H    -4.461671  1.958028  -0.759910
H    -5.958224  3.666658  -0.495997
H    -5.057391  4.152102  0.965474
H    -6.392871  2.972623  1.088293
Ba    -3.511260  1.360255  4.876564
