36
Energy: -246329.818536 eV PBE+vdW (tier 2 basis)
C    -1.008154  -0.738947  -0.424145
C    -1.477820  -0.215679  0.896652
O    -1.175234  0.937904  1.293039
H    0.089518  -0.783410  -0.420156
H    -1.295318  -0.032166  -1.213197
H    -1.402851  -1.731265  -0.666423
N    -2.248223  -1.023755  1.664404
C    -2.783178  -0.565008  2.943166
C    -1.700549  -0.642356  4.051019
O    -1.142985  0.434955  4.396464
H    -2.499771  -1.940108  1.305749
H    -2.917213  0.512688  2.812247
C    -4.170395  -1.118564  3.297346
C    -4.807236  -0.312327  4.448332
C    -5.713344  0.865153  4.034445
N    -5.190257  1.780622  3.005585
C    -4.156749  2.640225  3.165360
N    -3.721279  3.339650  2.015980
N    -3.407157  2.816224  4.220195
H    -4.126400  -2.180647  3.564512
H    -4.795856  -1.054870  2.394016
H    -4.024232  0.027749  5.143202
H    -5.446878  -0.974288  5.046945
H    -6.001518  1.435166  4.931319
H    -6.644535  0.467256  3.613731
H    -5.805174  1.948143  2.215885
H    -3.752641  4.350548  2.150024
H    -4.176354  3.085790  1.140923
H    -3.785485  2.398239  5.071064
N    -1.330118  -1.793832  4.610306
C    -1.785522  -3.160537  4.359094
H    -0.606531  -1.682246  5.320155
H    -0.960799  -3.842477  4.589473
H    -2.050478  -3.306742  3.308163
H    -2.639871  -3.423709  4.996157
Ba    -0.953906  2.664204  3.172500
