36
Energy: -246328.980677 eV PBE+vdW (tier 2 basis)
C    0.394816  2.022033  0.840728
C    0.174241  0.618840  1.299298
O    1.162680  -0.192631  1.385053
H    -0.500444  2.646269  0.906732
H    0.764739  2.024824  -0.193431
H    1.186756  2.464639  1.459945
N    -1.022995  0.171353  1.646868
C    -2.371397  0.655243  1.388987
C    -3.248015  -0.418574  2.106080
O    -2.748972  -1.526388  2.359576
H    -1.105227  -0.785785  2.038946
H    -2.533341  1.630780  1.869886
C    -2.707875  0.763702  -0.130680
C    -1.949194  -0.156525  -1.104019
C    -2.039974  -1.672038  -0.856310
N    -1.630759  -2.467995  -2.010728
C    -0.369838  -2.666183  -2.462119
N    -0.256219  -3.088207  -3.744532
N    0.700047  -2.469207  -1.684756
H    -2.523021  1.797120  -0.453086
H    -3.790532  0.607784  -0.244156
H    -0.889829  0.133633  -1.164946
H    -2.360678  0.044866  -2.103888
H    -3.071524  -1.969406  -0.627667
H    -1.461657  -1.980623  0.026193
H    -2.379156  -2.769075  -2.624673
H    0.606471  -3.493494  -4.083952
H    -1.049364  -3.121943  -4.373454
H    1.521798  -2.502810  -2.299071
N    -4.509658  -0.065000  2.377229
C    -5.483261  -0.946899  3.018401
H    -4.797293  0.888380  2.178233
H    -5.791026  -0.530615  3.985144
H    -5.015017  -1.921291  3.178743
H    -6.367093  -1.063986  2.380057
Ba    1.722574  -2.423405  0.676989
