36
Energy: -246329.063944 eV PBE+vdW (tier 2 basis)
C    -1.270368  0.640846  0.359958
C    -0.847684  0.068717  1.679234
O    0.361103  -0.267323  1.864071
H    -1.109884  -0.121967  -0.415210
H    -0.629765  1.493860  0.103587
H    -2.318171  0.957490  0.331956
N    -1.788787  -0.072051  2.623387
C    -1.742048  -0.758264  3.929749
C    -0.913740  -0.037163  5.006928
O    0.278158  0.378014  4.768308
H    -2.709516  0.261649  2.355065
H    -2.775385  -0.708643  4.288475
C    -1.367178  -2.255483  3.836668
C    -2.457108  -3.155672  3.231105
C    -3.785636  -3.247137  4.015751
N    -3.636314  -3.621063  5.415233
C    -3.388775  -2.729307  6.424726
N    -2.712666  -3.211697  7.509884
N    -3.682460  -1.447165  6.398116
H    -1.137370  -2.599198  4.855996
H    -0.441722  -2.371936  3.255200
H    -2.032739  -4.166161  3.139122
H    -2.694291  -2.839471  2.202857
H    -4.427873  -3.993400  3.531599
H    -4.348824  -2.305378  3.955388
H    -3.575292  -4.611644  5.624681
H    -2.891221  -2.748886  8.393879
H    -2.461072  -4.191141  7.564437
H    -4.403002  -1.240335  5.704856
N    -1.479335  0.060284  6.183944
C    -0.810476  0.636447  7.344113
H    -2.439550  -0.461906  6.343253
H    -1.543484  0.721167  8.151376
H    -0.416390  1.632690  7.111452
H    0.018324  -0.001630  7.681121
Ba    2.191693  0.251049  3.368530
