36
Energy: -246328.720332 eV PBE+vdW (tier 2 basis)
C    -0.195128  2.092316  0.971619
C    -0.228143  0.796096  1.720580
O    0.699329  -0.058638  1.547817
H    -1.040421  2.745516  1.210315
H    -0.189517  1.880424  -0.106290
H    0.741127  2.619708  1.196977
N    -1.248326  0.587156  2.552724
C    -1.586620  -0.634715  3.314785
C    -0.571657  -0.895283  4.434601
O    0.547570  -1.456373  4.183343
H    -1.971117  1.323778  2.595935
H    -2.538336  -0.370740  3.792589
C    -1.841198  -1.897137  2.467023
C    -2.787072  -1.768724  1.257762
C    -4.253524  -1.343325  1.501980
N    -4.451084  0.096152  1.606190
C    -4.374872  0.809948  2.775384
N    -3.918598  2.135894  2.612151
N    -4.526845  0.377217  3.984030
H    -2.233061  -2.657651  3.160513
H    -0.889592  -2.305511  2.091438
H    -2.811122  -2.761410  0.784243
H    -2.348592  -1.095073  0.504914
H    -4.664293  -1.833670  2.395092
H    -4.863044  -1.702485  0.663135
H    -4.404295  0.611121  0.733582
H    -4.201822  2.712169  3.404354
H    -4.192947  2.582849  1.738366
H    -4.901793  -0.574162  4.005524
N    -0.856630  -0.555714  5.682658
C    -2.027717  0.108571  6.263530
H    -0.117701  -0.798870  6.344964
H    -2.453688  -0.538919  7.039530
H    -2.801660  0.321354  5.515613
H    -1.707602  1.048854  6.729468
Ba    2.179926  -1.734857  2.426005
