36
Energy: -246329.48457 eV PBE+vdW (tier 2 basis)
C    -0.710885  1.248984  -0.284429
C    -0.873252  0.402124  0.936990
O    0.117551  -0.003799  1.596987
H    -0.749522  2.314542  -0.007719
H    -1.487282  1.061614  -1.034545
H    0.276949  1.059752  -0.716327
N    -2.123318  0.058532  1.359931
C    -3.262175  0.966677  1.359498
C    -2.938679  2.139742  2.336301
O    -1.991018  2.038746  3.162079
H    -2.096206  -0.546388  2.181144
H    -3.390532  1.378085  0.347871
C    -4.560002  0.226461  1.758245
C    -4.576108  -0.343868  3.192075
C    -4.145224  -1.824200  3.333323
N    -3.660601  -2.122216  4.681305
C    -2.455327  -1.708531  5.143674
N    -2.332436  -1.479607  6.480753
N    -1.406301  -1.456032  4.362712
H    -4.737308  -0.563515  1.013881
H    -5.394277  0.930305  1.641375
H    -5.588924  -0.245135  3.602925
H    -3.936479  0.269503  3.845824
H    -3.380864  -2.111390  2.597371
H    -4.989701  -2.493950  3.132895
H    -4.340269  -2.463184  5.354057
H    -1.438548  -1.694135  6.908785
H    -3.138241  -1.567794  7.090740
H    -1.466406  -2.019181  3.509216
N    -3.712786  3.216598  2.250636
C    -3.606401  4.410152  3.088839
H    -4.435013  3.222113  1.534556
H    -4.570163  4.611125  3.571068
H    -3.326007  5.275873  2.476413
H    -2.843956  4.241298  3.852185
Ba    0.038269  0.697642  4.053430
