36
Energy: -246329.229764 eV PBE+vdW (tier 2 basis)
C    -0.611283  -0.172550  -0.779044
C    -0.657548  -0.651114  0.634593
O    0.064853  -1.625132  1.018753
H    0.165126  0.601730  -0.872324
H    -1.560972  0.260913  -1.111415
H    -0.342749  -1.007235  -1.433739
N    -1.461668  -0.070880  1.532140
C    -2.203038  1.184965  1.459096
C    -1.298565  2.360693  1.004571
O    -0.094547  2.421221  1.310760
H    -1.418199  -0.496341  2.454162
H    -3.012993  1.075739  0.721295
C    -2.877739  1.473877  2.839542
C    -2.200510  1.001357  4.143371
C    -0.855442  1.619566  4.568156
N    0.289788  1.280045  3.724126
C    1.139175  0.257645  3.838363
N    0.889463  -0.794198  4.748996
N    2.198358  0.051034  3.071664
H    -3.872407  1.009023  2.818216
H    -3.055298  2.556847  2.897516
H    -2.133019  -0.102197  4.172530
H    -2.916324  1.234596  4.945849
H    -0.637784  1.340205  5.608793
H    -0.931111  2.715816  4.564371
H    0.333171  1.798127  2.819078
H    1.673001  -0.935302  5.387740
H    0.025369  -0.720245  5.282834
H    2.448093  0.876411  2.522258
N    -1.928404  3.299708  0.284737
C    -1.305569  4.543681  -0.162916
H    -2.905336  3.153461  0.048177
H    -1.849313  5.405046  0.243277
H    -1.315525  4.598732  -1.258119
H    -0.272390  4.562780  0.192676
Ba    1.966575  -2.390661  2.353241
