36
Energy: -246329.529562 eV PBE+vdW (tier 2 basis)
C    -1.655197  -0.758336  -0.873613
C    -1.029494  -0.807690  0.486031
O    0.124500  -1.274739  0.656534
H    -1.393460  0.185408  -1.377418
H    -2.746882  -0.845123  -0.845310
H    -1.237060  -1.571483  -1.476255
N    -1.714797  -0.330974  1.563396
C    -2.512925  0.883932  1.527527
C    -1.547881  2.094835  1.384179
O    -0.299795  1.943088  1.549208
H    -1.236751  -0.497796  2.449107
H    -3.111679  0.863825  0.605283
C    -3.525585  0.953219  2.704440
C    -3.098259  0.519455  4.117273
C    -2.086384  1.399158  4.867870
N    -0.693337  1.197719  4.476485
C    0.130283  0.181426  4.846880
N    -0.221797  -0.559937  5.922694
N    1.212853  -0.054598  4.109093
H    -4.365932  0.309077  2.412090
H    -3.935258  1.971283  2.753084
H    -2.753296  -0.526634  4.124296
H    -4.023732  0.509157  4.711670
H    -2.195206  1.238683  5.949498
H    -2.306935  2.465329  4.720237
H    -0.322936  1.797533  3.749376
H    0.374447  -1.320051  6.224865
H    -0.882752  -0.214298  6.607817
H    1.837783  -0.697912  4.602267
N    -2.035230  3.287704  1.050582
C    -3.409765  3.682202  0.734094
H    -1.329649  4.021054  0.984835
H    -3.994788  2.828922  0.378609
H    -3.378742  4.430704  -0.064551
H    -3.906616  4.123772  1.607494
Ba    1.800059  0.395964  1.618702
