36
Energy: -246328.785588 eV PBE+vdW (tier 2 basis)
C    -0.405661  -0.077295  3.073356
C    -1.886795  0.090171  2.998395
O    -2.519816  0.807591  3.810543
H    -0.103662  -0.403701  4.075835
H    0.036552  0.918993  2.919462
H    -0.001818  -0.748995  2.310337
N    -2.602233  -0.536967  2.008238
C    -2.513681  -1.957635  1.620824
C    -1.885046  -2.755704  2.770714
O    -2.365738  -2.560827  3.924921
H    -3.517870  -0.110857  1.842967
H    -3.549693  -2.291862  1.767796
C    -2.225467  -2.215596  0.136807
C    -3.173363  -3.263539  -0.495124
C    -4.646099  -3.266097  -0.006995
N    -5.283311  -1.946645  0.085911
C    -5.597858  -1.273681  1.223849
N    -5.770794  0.088127  1.096405
N    -5.622867  -1.770737  2.453777
H    -1.177985  -2.484804  -0.067693
H    -2.363353  -1.252062  -0.371078
H    -2.803126  -4.285709  -0.325086
H    -3.150731  -3.124472  -1.584349
H    -4.729112  -3.752098  0.973652
H    -5.239267  -3.890904  -0.687500
H    -5.489795  -1.487012  -0.796583
H    -6.480062  0.498281  1.696700
H    -5.737840  0.502796  0.169524
H    -5.737804  -2.787534  2.424497
N    -0.949546  -3.656882  2.507472
C    -0.348741  -4.557727  3.491091
H    -0.616570  -3.716122  1.548646
H    0.718559  -4.330726  3.602334
H    -0.460357  -5.596074  3.158254
H    -0.853015  -4.421020  4.450404
Ba    -4.260357  -0.933392  4.668620
