36
Energy: -246329.857328 eV PBE+vdW (tier 2 basis)
C    1.260309  0.038380  0.618644
C    -0.011915  -0.277744  1.346768
O    0.003815  -0.585312  2.563701
H    1.114398  0.311205  -0.431716
H    1.921314  -0.837278  0.671278
H    1.774467  0.859407  1.134775
N    -1.158883  -0.220990  0.631746
C    -2.522754  -0.576053  1.077661
C    -3.047872  0.520303  2.026256
O    -2.700492  0.558240  3.233508
H    -1.060046  0.027687  -0.347370
H    -3.126938  -0.546838  0.162913
C    -2.594841  -2.020130  1.612583
C    -3.982224  -2.587870  1.943774
C    -4.649370  -2.151344  3.258860
N    -3.752568  -2.126610  4.429063
C    -3.055925  -3.243443  4.929981
N    -3.469854  -4.474318  4.564993
N    -2.004744  -2.947634  5.654447
H    -1.918531  -2.153368  2.464835
H    -2.162010  -2.642165  0.816493
H    -3.876178  -3.680651  1.938340
H    -4.693972  -2.367599  1.133484
H    -5.537319  -2.784158  3.429264
H    -5.032665  -1.126308  3.176847
H    -4.135650  -1.571040  5.191076
H    -4.424519  -4.635567  4.264310
H    -2.948455  -5.293674  4.857031
H    -1.608928  -3.752779  6.144100
N    -3.873770  1.446871  1.531784
C    -4.365349  1.610773  0.160190
H    -4.147621  2.159295  2.206956
H    -3.545401  1.804663  -0.542689
H    -5.031363  2.477987  0.144307
H    -4.943906  0.739290  -0.169491
Ba    -1.085443  -0.578985  4.833592
