36
Energy: -246327.999503 eV PBE+vdW (tier 2 basis)
C    0.405216  0.179341  0.075664
C    0.475718  0.256851  1.562083
O    1.595262  0.385379  2.158718
H    0.523716  1.189391  -0.351140
H    -0.529995  -0.247351  -0.319905
H    1.266011  -0.404293  -0.273681
N    -0.645808  0.241175  2.312679
C    -1.880248  0.915326  1.925567
C    -1.571362  2.428055  1.827869
O    -0.492258  2.897453  2.325522
H    -0.475398  0.189016  3.317565
H    -2.178347  0.555240  0.930112
C    -2.994450  0.620599  2.958403
C    -3.410485  -0.857530  3.058905
C    -4.447287  -1.326686  2.020377
N    -4.114010  -0.969443  0.643303
C    -3.002429  -1.428949  -0.061604
N    -2.277977  -2.436922  0.555010
N    -2.537074  -0.905640  -1.150899
H    -3.868372  1.242870  2.722665
H    -2.640494  0.970234  3.942636
H    -3.851647  -1.021688  4.052006
H    -2.517428  -1.496384  3.014244
H    -5.413214  -0.849650  2.232812
H    -4.616806  -2.409868  2.152400
H    -4.876406  -0.641477  0.062834
H    -1.592357  -2.842941  -0.076236
H    -2.816522  -3.146827  1.043736
H    -3.118274  -0.133137  -1.487486
N    -2.423159  3.236123  1.216566
C    -3.675239  2.904135  0.534575
H    -2.163502  4.222542  1.232410
H    -3.740687  1.828028  0.349844
H    -3.703188  3.432361  -0.424979
H    -4.534412  3.222448  1.138785
Ba    1.867445  2.658530  3.031774
