36
Energy: -246329.345281 eV PBE+vdW (tier 2 basis)
C    -0.327301  -0.539315  0.206073
C    -0.045832  -0.228937  1.641979
O    1.105446  -0.346692  2.130963
H    -0.214851  0.371831  -0.402297
H    -1.336622  -0.935975  0.049087
H    0.413739  -1.262487  -0.149135
N    -1.054735  0.199849  2.452207
C    -2.087585  1.137584  2.048300
C    -1.407784  2.481632  1.673788
O    -0.194283  2.682343  1.949239
H    -0.750784  0.311706  3.418547
H    -2.551393  0.760073  1.125067
C    -3.220018  1.215449  3.115674
C    -2.855910  1.090443  4.608495
C    -2.602750  2.358548  5.436356
N    -1.533828  3.275992  5.006315
C    -0.212585  2.997921  4.989494
N    0.655066  4.032093  4.557288
N    0.388537  1.857103  5.214662
H    -3.898070  0.384693  2.883436
H    -3.804570  2.130687  2.953199
H    -2.062659  0.345514  4.767336
H    -3.724210  0.627318  5.099595
H    -2.427908  2.061081  6.482822
H    -3.515700  2.966675  5.441625
H    -1.781895  4.260071  5.035857
H    1.300821  4.308824  5.298350
H    0.196348  4.853264  4.166150
H    -0.192263  1.168854  5.695284
N    -2.108133  3.397768  1.001454
C    -3.484970  3.339710  0.506867
H    -1.578391  4.236227  0.768137
H    -3.531298  3.864350  -0.453021
H    -4.181619  3.824485  1.203035
H    -3.804218  2.306230  0.341843
Ba    2.012592  1.860041  3.079939
