36
Energy: -246329.451319 eV PBE+vdW (tier 2 basis)
C    -0.976234  -0.597479  -0.500086
C    -0.870570  -0.443176  0.987090
O    0.265558  -0.439960  1.549308
H    -0.456078  0.245708  -0.975207
H    -2.008634  -0.627139  -0.863824
H    -0.457010  -1.511590  -0.814130
N    -2.002588  -0.296140  1.685286
C    -2.130611  0.006149  3.125000
C    -2.005044  -1.281404  3.964541
O    -0.778877  -1.735201  4.103379
H    -2.871379  -0.336885  1.158799
H    -1.272590  0.646411  3.386135
C    -3.437696  0.771327  3.335208
C    -3.614494  1.326575  4.756305
C    -5.090154  1.645757  5.087601
N    -5.710548  0.791723  6.112490
C    -6.215887  -0.439852  5.919096
N    -7.213651  -0.855989  6.721362
N    -5.751305  -1.226438  4.943679
H    -4.273420  0.099679  3.086426
H    -3.476485  1.601536  2.613737
H    -3.013339  2.238542  4.870007
H    -3.237397  0.611798  5.499137
H    -5.708595  1.591150  4.180239
H    -5.184551  2.667283  5.470295
H    -5.937484  1.234022  6.996355
H    -7.447623  -1.837897  6.800301
H    -7.788178  -0.199477  7.236191
H    -6.295600  -2.053596  4.721678
N    -3.067129  -1.820317  4.461743
C    -2.887688  -3.051717  5.228513
H    -4.718534  -1.281131  4.681981
H    -3.832366  -3.318847  5.716127
H    -2.113426  -2.948795  6.003035
H    -2.594841  -3.889185  4.577476
Ba    1.421723  -1.601991  3.369114
