36
Energy: -246328.259384 eV PBE+vdW (tier 2 basis)
C    0.457228  1.310991  0.612418
C    -0.067235  0.978137  1.973314
O    -0.430169  1.917089  2.763813
H    0.977277  2.274351  0.628709
H    -0.405388  1.415102  -0.064577
H    1.103374  0.533209  0.187134
N    -0.132884  -0.308596  2.312860
C    -0.843046  -0.962106  3.416884
C    -0.603675  -0.379003  4.809373
O    0.368272  0.390291  5.084409
H    0.175868  -1.005306  1.588166
H    -1.927085  -0.880492  3.222672
C    -0.432179  -2.465721  3.411041
C    -1.163125  -3.370943  2.400237
C    -1.199365  -2.910224  0.937238
N    0.126454  -2.465249  0.480847
C    0.331148  -1.819611  -0.776343
N    -0.813678  -1.285449  -1.347198
N    1.480080  -1.570117  -1.283921
H    -0.591845  -2.891189  4.409183
H    0.656275  -2.495514  3.256864
H    -2.203257  -3.525166  2.723401
H    -0.686365  -4.360786  2.463122
H    -1.887520  -2.058672  0.829100
H    -1.606095  -3.730541  0.322693
H    0.854866  -3.160854  0.638879
H    -0.610766  -0.892852  -2.264187
H    -1.644100  -1.870569  -1.361374
H    2.257244  -1.935952  -0.727672
N    -1.453727  -0.725141  5.778625
C    -2.626624  -1.600700  5.727918
H    -1.180630  -0.395930  6.703424
H    -3.131231  -1.527896  4.759567
H    -3.328410  -1.280134  6.504193
H    -2.350853  -2.646827  5.914999
Ba    0.720391  2.778230  4.678178
