36
Energy: -246327.928774 eV PBE+vdW (tier 2 basis)
C    -0.189346  -0.034008  -0.082423
C    -0.154091  -0.011381  1.410116
O    0.930046  0.205544  2.035005
H    0.131900  0.948431  -0.456693
H    -1.179697  -0.262576  -0.489354
H    0.534450  -0.770102  -0.456100
N    -1.295353  -0.212913  2.083534
C    -1.437579  -0.061036  3.539593
C    -0.773595  -1.247990  4.274494
O    0.397309  -1.063347  4.746612
H    -2.148007  -0.333192  1.541293
H    -0.811575  0.797209  3.828601
C    -2.884892  0.260570  3.949486
C    -3.324567  1.711833  3.706433
C    -3.481441  2.133479  2.223076
N    -4.388215  3.229799  2.005368
C    -5.775347  3.037081  2.129588
N    -6.477915  4.226893  2.101872
N    -6.399176  1.919033  2.273993
H    -2.978274  0.039263  5.023175
H    -3.583084  -0.421293  3.440033
H    -2.644319  2.406979  4.223399
H    -4.303542  1.830064  4.191653
H    -3.860628  1.278760  1.632477
H    -2.508827  2.409728  1.787178
H    -4.055280  4.149612  2.278990
H    -7.483404  4.084583  2.084447
H    -6.162280  4.934199  1.445285
H    -5.773281  1.123205  2.407017
N    -1.353924  -2.429799  4.424119
C    -2.655931  -2.919864  3.960663
H    -0.797883  -3.089633  4.968659
H    -2.602053  -4.011435  3.908735
H    -2.885541  -2.544596  2.959404
H    -3.455415  -2.641176  4.657697
Ba    2.449282  -0.037656  3.917319
