36
Energy: -246329.121141 eV PBE+vdW (tier 2 basis)
C    -0.003294  0.295498  0.086352
C    -0.200190  -0.693401  1.196807
O    0.818978  -1.261041  1.734445
H    0.707992  1.075277  0.390155
H    0.436637  -0.225889  -0.775473
H    -0.937476  0.767279  -0.234314
N    -1.432422  -0.938857  1.595566
C    -1.941157  -1.944661  2.528362
C    -3.486440  -1.826153  2.325173
O    -3.921146  -0.837567  1.723567
H    -2.248229  -0.442561  1.178624
H    -1.593722  -2.934845  2.193514
C    -1.537138  -1.764072  4.008661
C    -2.057345  -0.531781  4.761615
C    -1.460872  0.825453  4.349588
N    -0.001250  0.819079  4.206092
C    0.925702  0.624782  5.174134
N    0.575178  0.904569  6.447235
N    2.124901  0.142343  4.825895
H    -0.439499  -1.810226  4.077164
H    -1.893641  -2.657710  4.540438
H    -1.859248  -0.700222  5.829777
H    -3.150784  -0.454939  4.670095
H    -1.770985  1.600470  5.065815
H    -1.857680  1.155062  3.383031
H    0.365088  0.764925  3.266093
H    -0.221855  1.495195  6.654032
H    1.225257  0.740868  7.205349
H    2.800928  0.316202  5.575438
N    -4.240495  -2.801037  2.851869
C    -5.700203  -2.827263  2.757648
H    -3.781082  -3.603341  3.269911
H    -6.027331  -3.645263  2.104059
H    -6.035773  -1.875932  2.336781
H    -6.138091  -2.963089  3.753216
Ba    2.856730  -1.484256  2.984017
