36
Energy: -246328.066346 eV PBE+vdW (tier 2 basis)
C    -0.943312  -1.008645  0.529872
C    -1.098715  -0.940329  2.003200
O    -0.220764  -1.422381  2.793834
H    -0.893011  -0.006088  0.078317
H    -1.843491  -1.493611  0.075561
H    -0.036667  -1.563651  0.276144
N    -2.185528  -0.345330  2.553149
C    -2.777661  0.877692  2.023609
C    -1.684996  1.972107  2.036560
O    -0.628369  1.816269  2.737411
H    -2.242341  -0.452813  3.566121
H    -3.112787  0.711881  0.985273
C    -3.986575  1.317253  2.880178
C    -5.159724  0.330091  3.010887
C    -5.985210  0.008282  1.743419
N    -5.504371  -1.122243  0.956329
C    -4.538231  -1.100268  -0.021905
N    -4.390747  0.128721  -0.696318
N    -3.746755  -2.065610  -0.356137
H    -4.363592  2.264266  2.470069
H    -3.620680  1.561897  3.891894
H    -5.843183  0.778474  3.747037
H    -4.825876  -0.616860  3.462939
H    -6.072188  0.896953  1.104028
H    -7.009942  -0.231424  2.055944
H    -5.629237  -2.031209  1.390192
H    -5.279072  0.578186  -0.916051
H    -3.868421  -0.036038  -1.556153
H    -3.879192  -2.896167  0.227550
N    -1.844742  3.074432  1.320106
C    -2.940055  3.426821  0.413408
H    -1.107530  3.769772  1.435885
H    -3.456693  2.526360  0.065645
H    -2.516990  3.944008  -0.454384
H    -3.651781  4.099381  0.909392
Ba    1.081336  0.383264  3.807034
