36
Energy: -246327.925906 eV PBE+vdW (tier 2 basis)
C    -1.957804  0.847659  0.927460
C    -2.595462  0.125909  2.064544
O    -2.871819  0.723079  3.141937
H    -2.757463  1.082244  0.205201
H    -1.194172  0.259194  0.405342
H    -1.531846  1.790914  1.280867
N    -2.826706  -1.240707  2.075018
C    -2.178364  -2.217931  1.189352
C    -0.673709  -2.230486  1.576008
O    -0.324957  -1.783863  2.712009
H    -3.798964  -1.471210  2.398355
H    -2.532114  -3.195737  1.562843
C    -2.554577  -2.135496  -0.312705
C    -3.655556  -3.110112  -0.757424
C    -5.023978  -2.929710  -0.072498
N    -5.501859  -1.554175  -0.097538
C    -5.543370  -0.674837  0.953530
N    -5.704051  -1.283941  2.236091
N    -5.353521  0.581815  0.748866
H    -1.673548  -2.300198  -0.948937
H    -2.869544  -1.109640  -0.536641
H    -3.332424  -4.153830  -0.616193
H    -3.785194  -2.984587  -1.842533
H    -4.981109  -3.265731  0.972395
H    -5.751432  -3.588475  -0.568232
H    -5.497238  -1.075924  -0.994983
H    -6.025940  -0.595737  2.915615
H    -6.350644  -2.075799  2.236993
H    -5.601071  1.163148  1.553368
N    0.192281  -2.778589  0.740307
C    1.619187  -2.972076  1.002048
H    -0.165126  -3.122118  -0.147291
H    1.838281  -4.042431  1.102147
H    1.888245  -2.454462  1.924989
H    2.199843  -2.564535  0.166859
Ba    -1.499851  -0.750371  4.650194
