36
Energy: -246329.257274 eV PBE+vdW (tier 2 basis)
C    -0.199948  -0.272950  0.614199
C    -0.787255  0.367024  1.849631
O    -0.110148  1.305245  2.412388
H    -0.796205  -0.035837  -0.277296
H    -0.164644  -1.367984  0.693719
H    0.812860  0.106849  0.455141
N    -1.922073  0.003086  2.470855
C    -2.526928  -1.321308  2.250515
C    -1.523920  -2.394493  2.746174
O    -0.742788  -2.090663  3.693163
H    -3.059505  1.716419  2.008317
H    -3.328570  -1.382966  3.010532
C    -3.247683  -1.590698  0.912319
C    -4.333739  -0.538565  0.611784
C    -3.824589  0.651709  -0.221349
N    -4.634709  1.860117  -0.071672
C    -4.402583  2.813343  0.839839
N    -5.073946  3.974395  0.769587
N    -3.503186  2.625567  1.815893
H    -3.752885  -2.565142  0.991217
H    -2.544260  -1.671648  0.071227
H    -4.754164  -0.169240  1.559553
H    -5.168884  -1.010902  0.078444
H    -3.810817  0.398946  -1.289109
H    -2.796214  0.919680  0.045550
H    -5.457007  1.962583  -0.657744
H    -5.087238  4.623282  1.546365
H    -5.596370  4.234425  -0.058126
H    -3.134707  3.431046  2.305869
N    -1.539275  -3.609596  2.207685
C    -0.719009  -4.734939  2.654887
H    -2.188128  -3.780000  1.445622
H    -0.146221  -5.134419  1.809988
H    -1.358702  -5.527930  3.061238
H    -0.033753  -4.386534  3.430679
Ba    -0.371443  0.234753  4.639606
