36
Energy: -246329.377755 eV PBE+vdW (tier 2 basis)
C    0.923323  2.086436  1.562794
C    1.014872  0.742980  0.911529
O    2.046590  0.392562  0.275345
H    1.477137  2.082356  2.513889
H    -0.106128  2.405294  1.754903
H    1.419293  2.816932  0.912727
N    -0.012440  -0.140205  1.014258
C    -0.830954  -0.321892  2.206437
C    0.121395  -0.461374  3.424440
O    1.275701  -0.943961  3.262393
H    0.060353  -0.934643  0.364924
H    -1.505114  0.538036  2.341837
C    -1.649216  -1.638980  2.113426
C    -2.348119  -1.912445  0.763889
C    -2.190913  -3.371577  0.261110
N    -0.848969  -3.950442  0.446836
C    0.316549  -3.402847  0.026938
N    0.229517  -2.451935  -0.974737
N    1.506439  -3.624515  0.557637
H    -2.380144  -1.634078  2.931514
H    -0.952021  -2.459589  2.337583
H    -3.424064  -1.710137  0.840841
H    -1.986260  -1.214933  -0.002986
H    -2.869445  -4.037586  0.806326
H    -2.496857  -3.438826  -0.793840
H    -0.762721  -4.637290  1.187586
H    1.081869  -2.358218  -1.520918
H    -0.593181  -2.496054  -1.571634
H    1.464152  -4.401334  1.224445
N    -0.356816  -0.092496  4.606877
C    0.342132  -0.223176  5.884856
H    -1.290583  0.310427  4.629502
H    -0.228968  -0.873962  6.557782
H    0.452744  0.763198  6.350696
H    1.328367  -0.657220  5.707175
Ba    3.027492  -1.633465  1.485976
