36
Energy: -246329.60438 eV PBE+vdW (tier 2 basis)
C    -0.696062  1.912177  0.265633
C    -0.378281  1.063655  1.467560
O    0.809709  0.910976  1.838540
H    -0.585429  2.967726  0.555688
H    -1.711087  1.774878  -0.124622
H    0.039711  1.727579  -0.525065
N    -1.433532  0.501494  2.093727
C    -1.599845  -0.121006  3.421665
C    -0.316922  -0.400569  4.218181
O    0.606521  -1.144936  3.803192
H    -2.332493  0.718705  1.670654
H    -2.171969  0.619110  4.004619
C    -2.512714  -1.379196  3.366447
C    -1.959905  -2.732997  2.880632
C    -2.128797  -3.112785  1.402411
N    -1.337873  -2.348697  0.426006
C    0.011538  -2.392999  0.343406
N    0.628452  -1.494740  -0.550736
N    0.843301  -3.071830  1.090104
H    -3.413467  -1.102697  2.794044
H    -2.867809  -1.516020  4.397895
H    -2.512278  -3.510950  3.426980
H    -0.916454  -2.848873  3.198907
H    -3.177170  -2.988992  1.102727
H    -1.908610  -4.186651  1.288908
H    -1.839027  -2.018306  -0.392319
H    1.283045  -1.965122  -1.175371
H    0.004232  -0.887802  -1.077608
H    0.391861  -3.804723  1.638844
N    -0.306101  0.106119  5.452228
C    0.739725  -0.161031  6.436725
H    -1.065530  0.720391  5.729600
H    0.318042  -0.044430  7.439353
H    1.574975  0.542562  6.320618
H    1.105800  -1.184921  6.314444
Ba    2.347148  -1.085412  1.982199
