36
Energy: -246329.155553 eV PBE+vdW (tier 2 basis)
C    -0.839801  0.945999  -1.233053
C    -0.525913  0.995642  0.230626
O    0.695751  0.987678  0.628880
H    -0.379556  1.807433  -1.735513
H    -1.915333  0.954598  -1.435668
H    -0.405576  0.036318  -1.669071
N    -1.529275  1.048019  1.083029
C    -1.483634  1.075603  2.538181
C    -2.932549  0.648284  2.930751
O    -3.809662  0.697070  2.066608
H    -2.519491  0.995957  0.772668
H    -0.758677  0.325118  2.889189
C    -1.139800  2.489597  3.100257
C    -0.092103  2.510033  4.220198
C    1.305175  2.170387  3.702377
N    2.320223  2.238478  4.731518
C    3.603725  1.850223  4.524614
N    4.457006  1.984223  5.563778
N    3.964822  1.361702  3.336866
H    -2.061466  2.961566  3.463629
H    -0.793430  3.119198  2.268182
H    -0.363272  1.815627  5.031027
H    -0.081068  3.516670  4.664662
H    1.543155  2.870068  2.874798
H    1.292947  1.144507  3.296392
H    2.104043  2.762955  5.572106
H    5.436507  1.751584  5.467616
H    4.148000  2.269625  6.484842
H    4.942172  1.059409  3.397752
N    -3.128505  0.296047  4.212695
C    -4.438846  -0.066782  4.751907
H    -2.327230  0.233203  4.830547
H    -4.679105  0.561212  5.617822
H    -4.452129  -1.121433  5.052903
H    -5.186213  0.092670  3.970242
Ba    3.076453  0.958461  0.935767
