36
Energy: -246328.791611 eV PBE+vdW (tier 2 basis)
C    -3.085879  -0.367885  -0.371734
C    -1.712159  -0.391288  0.225046
O    -0.688910  -0.530270  -0.506891
H    -3.379775  0.670380  -0.593286
H    -3.839680  -0.795530  0.298159
H    -3.071701  -0.922079  -1.315423
N    -1.565616  -0.238002  1.561898
C    -2.325795  0.763530  2.319422
C    -2.082885  2.182415  1.719709
O    -1.071887  2.305017  0.881860
H    -0.598462  -0.342835  1.869697
H    -3.396342  0.548925  2.203062
C    -1.933021  0.701342  3.809906
C    -2.718148  -0.277342  4.698400
C    -4.248848  -0.096639  4.705608
N    -4.609291  1.327722  4.641409
C    -5.662513  1.830418  3.968305
N    -6.832321  1.171579  3.984180
N    -5.477585  2.957595  3.281223
H    -2.002237  1.723120  4.206839
H    -0.862232  0.456253  3.890361
H    -2.334970  -0.168601  5.722712
H    -2.514149  -1.317825  4.410163
H    -4.658893  -0.567136  5.610120
H    -4.709831  -0.599120  3.842226
H    -3.855638  1.993809  4.774052
H    -7.598079  1.458240  3.386255
H    -7.052556  0.536710  4.743193
H    -6.266447  3.504857  2.955634
N    -2.881611  3.121144  2.095111
C    -2.628618  4.472167  1.594843
H    -4.513917  3.114980  2.879692
H    -1.590288  4.789007  1.770737
H    -3.291817  5.179734  2.104884
H    -2.823350  4.545308  0.513298
Ba    0.500284  1.674703  -0.730415
