36
Energy: -246329.363275 eV PBE+vdW (tier 2 basis)
C    -2.225059  1.774709  0.171526
C    -0.994095  0.926519  0.236621
O    0.154191  1.434701  0.265645
H    -2.499347  2.114620  1.182107
H    -3.083259  1.256052  -0.268273
H    -1.995248  2.672169  -0.413752
N    -1.114278  -0.432264  0.281546
C    -2.136130  -1.130561  1.050096
C    -2.141518  -0.549761  2.490136
O    -1.085401  -0.054640  2.966063
H    -0.232313  -0.935798  0.177079
H    -3.119568  -0.986726  0.577743
C    -1.827188  -2.650460  1.154024
C    -1.283548  -3.356183  -0.111364
C    0.210866  -3.726979  -0.077287
N    1.123661  -2.572046  -0.096625
C    1.813115  -1.996536  0.925856
N    1.569294  -2.419074  2.234440
N    2.598205  -0.949660  0.828525
H    -2.759629  -3.136951  1.465797
H    -1.133949  -2.797537  1.995305
H    -1.495558  -2.766039  -1.015157
H    -1.829889  -4.299206  -0.248186
H    0.450912  -4.343745  -0.953051
H    0.438126  -4.355914  0.795358
H    1.351552  -2.207817  -1.018365
H    2.433449  -2.504693  2.767195
H    0.985736  -3.242120  2.354972
H    2.854707  -0.714904  -0.133114
N    -3.279753  -0.641363  3.169747
C    -3.474088  -0.230785  4.559971
H    -4.085223  -1.031391  2.686415
H    -3.781202  -1.092616  5.164377
H    -4.252147  0.539797  4.615489
H    -2.534196  0.169489  4.945988
Ba    1.338224  0.748737  2.450538
