36
Energy: -246328.462052 eV PBE+vdW (tier 2 basis)
C    0.616345  -0.736795  -1.064029
C    0.827915  -0.494622  0.396956
O    2.009243  -0.525375  0.866011
H    -0.271137  -0.234770  -1.456682
H    0.534570  -1.814094  -1.273504
H    1.508279  -0.376304  -1.590231
N    -0.185906  -0.177551  1.242605
C    -1.451598  -0.903172  1.468966
C    -1.123901  -2.141980  2.355405
O    0.083433  -2.596050  2.400032
H    0.190123  0.178761  2.122246
H    -2.054969  -0.229300  2.089686
C    -2.269189  -1.274746  0.216206
C    -3.062135  -0.108344  -0.409141
C    -4.484381  0.119775  0.141307
N    -4.561667  0.624705  1.510589
C    -4.443479  -0.146049  2.631932
N    -4.171709  0.521412  3.798905
N    -4.452634  -1.459433  2.658407
H    -2.960949  -2.073965  0.507353
H    -1.614650  -1.736954  -0.530850
H    -3.180073  -0.312908  -1.483432
H    -2.488440  0.829026  -0.339582
H    -5.079345  -0.801954  0.042897
H    -4.987869  0.858955  -0.493319
H    -4.805823  1.602060  1.624546
H    -4.474873  0.057042  4.648166
H    -4.222293  1.533383  3.820118
H    -4.836646  -1.848226  1.796147
N    -2.111642  -2.648894  3.041370
C    -1.978455  -3.821080  3.898801
H    -3.120168  -2.163746  2.965022
H    -2.974807  -4.092334  4.259791
H    -1.338211  -3.604692  4.764883
H    -1.553841  -4.668731  3.346544
Ba    2.478637  -2.449602  2.356877
