36
Energy: -246328.157504 eV PBE+vdW (tier 2 basis)
C    0.318864  0.270925  0.344921
C    -0.053556  0.054603  1.777705
O    0.861550  0.023692  2.660257
H    0.448498  -0.691832  -0.172681
H    1.282774  0.790564  0.321006
H    -0.429095  0.854908  -0.198602
N    -1.340947  -0.068673  2.185234
C    -2.374014  -0.967970  1.638457
C    -2.018516  -2.411128  2.093334
O    -0.816098  -2.694046  2.457903
H    -1.404616  0.005021  3.201222
H    -3.303710  -0.697938  2.164143
C    -2.691680  -0.827604  0.135631
C    -3.509757  0.449190  -0.170434
C    -4.924409  0.206289  -0.781126
N    -5.577190  -1.048377  -0.397045
C    -5.613914  -1.538609  0.883432
N    -5.639746  -0.594948  1.895522
N    -5.532036  -2.799430  1.223937
H    -3.269932  -1.717886  -0.138836
H    -1.782951  -0.886561  -0.471100
H    -2.965453  1.098518  -0.868954
H    -3.614724  1.034890  0.752327
H    -4.862275  0.177464  -1.874822
H    -5.564222  1.069523  -0.545061
H    -5.578336  -1.767919  -1.110923
H    -5.981694  -0.983383  2.770551
H    -6.078635  0.293233  1.669179
H    -5.523825  -3.407471  0.400198
N    -2.990145  -3.289101  2.142133
C    -2.801154  -4.676244  2.557650
H    -4.000559  -3.024277  1.854561
H    -3.764374  -5.186846  2.469242
H    -2.470696  -4.730226  3.603233
H    -2.063077  -5.182015  1.922854
Ba    1.307768  -2.249188  3.519218
