36
Energy: -246329.273459 eV PBE+vdW (tier 2 basis)
C    -0.693002  0.799025  -0.900928
C    -0.181025  0.608306  0.504211
O    1.028364  0.968416  0.756708
H    -1.555471  1.477194  -0.926748
H    -1.015776  -0.154921  -1.342423
H    0.100432  1.223981  -1.521471
N    -0.836897  0.014539  1.514911
C    -2.019935  -0.831968  1.314902
C    -1.551418  -2.159381  0.661314
O    -0.356943  -2.533452  0.836890
H    -0.124762  3.059334  3.388181
H    -2.294075  -1.156112  2.336542
C    -3.306516  -0.212338  0.715527
C    -3.670074  1.212571  1.174669
C    -3.683832  1.496822  2.683867
N    -2.331023  1.780562  3.179820
C    -2.017094  2.697767  4.091703
N    -2.940065  3.212493  4.916866
N    -0.733779  3.104863  4.196416
H    -4.144852  -0.874540  0.986379
H    -3.261439  -0.197176  -0.382305
H    -4.678659  1.422868  0.793728
H    -3.015043  1.954363  0.695641
H    -4.130875  0.658814  3.243386
H    -4.306716  2.383361  2.864078
H    -1.560423  1.269715  2.700793
H    -3.841952  2.770365  5.041352
H    -2.753345  4.043827  5.464536
H    -0.441532  3.704028  4.958819
N    -2.426347  -2.889759  -0.022625
C    -2.148444  -4.200175  -0.609760
H    -3.365095  -2.519357  -0.135253
H    -2.790531  -4.960382  -0.148647
H    -1.100525  -4.451898  -0.433205
H    -2.343208  -4.173145  -1.688299
Ba    1.519595  -1.190825  1.884975
