36
Energy: -246329.481576 eV PBE+vdW (tier 2 basis)
C    -0.985815  0.016157  3.146779
C    -1.739540  -0.532252  1.976115
O    -2.240073  -1.684325  1.995986
H    -1.688740  0.322596  3.935604
H    -0.342875  0.864742  2.892901
H    -0.375648  -0.792508  3.567079
N    -1.903777  0.234164  0.860338
C    -2.176490  1.665282  0.877586
C    -3.276407  1.946862  1.933549
O    -4.135456  1.061808  2.191897
H    -2.260524  -0.273583  0.051215
H    -1.259027  2.222272  1.122509
C    -2.722072  2.134289  -0.497097
C    -2.036235  1.558402  -1.759844
C    -2.861634  0.544548  -2.571077
N    -2.944731  -0.821902  -2.015950
C    -3.971412  -1.319620  -1.276207
N    -3.838702  -2.645293  -0.814236
N    -5.012133  -0.686565  -0.803026
H    -2.643992  3.228445  -0.508053
H    -3.800011  1.918777  -0.529806
H    -1.049121  1.133891  -1.524514
H    -1.833585  2.391656  -2.446036
H    -2.410639  0.436533  -3.564983
H    -3.878854  0.924843  -2.745271
H    -2.339446  -1.505432  -2.462390
H    -4.620705  -3.233518  -1.102397
H    -2.949975  -3.107037  -1.000691
H    -5.172159  0.225548  -1.232662
N    -3.275982  3.151821  2.492384
C    -4.274888  3.648722  3.437957
H    -2.523495  3.787009  2.237720
H    -4.775563  4.531290  3.022169
H    -3.789219  3.924455  4.381515
H    -5.011505  2.863429  3.620705
Ba    -4.810061  -1.401022  1.766868
