36
Energy: -246328.418643 eV PBE+vdW (tier 2 basis)
C    -0.922286  1.646860  0.356738
C    -0.473350  0.601136  1.326797
O    0.657249  0.678879  1.895069
H    -1.460135  2.449589  0.886689
H    -1.589338  1.244586  -0.412992
H    -0.040789  2.096083  -0.112568
N    -1.296294  -0.428597  1.632466
C    -2.730787  -0.250546  1.891619
C    -2.887203  0.812510  3.013940
O    -1.903177  1.024153  3.819357
H    -0.858196  -1.145699  2.211418
H    -3.219818  0.143325  0.990793
C    -3.353080  -1.614361  2.260796
C    -3.644761  -2.530840  1.048046
C    -5.115446  -2.547325  0.578198
N    -5.660654  -1.227543  0.248198
C    -6.036598  -0.307284  1.196807
N    -6.596006  -0.803325  2.351674
N    -5.837343  0.987988  1.126351
H    -4.272466  -1.435544  2.832969
H    -2.666518  -2.118186  2.960101
H    -3.375757  -3.566197  1.300574
H    -2.992198  -2.256450  0.203747
H    -5.746358  -3.019137  1.342015
H    -5.204664  -3.180371  -0.313587
H    -5.290946  -0.813351  -0.602113
H    -7.105577  -0.103009  2.881175
H    -7.085714  -1.689781  2.289440
H    -5.431811  1.266159  0.229387
N    -4.017039  1.467913  3.080416
C    -4.312491  2.462675  4.106998
H    -4.782970  1.303771  2.315317
H    -5.311841  2.861752  3.911712
H    -3.590325  3.289065  4.076404
H    -4.292278  2.011304  5.106930
Ba    0.452896  1.236734  4.312488
