36
Energy: -246327.700498 eV PBE+vdW (tier 2 basis)
C    -0.245368  1.689462  0.328013
C    -0.475778  0.348646  0.946582
O    0.479845  -0.304528  1.467793
H    -0.325390  2.481150  1.090114
H    -0.956728  1.912752  -0.474012
H    0.777062  1.720599  -0.064524
N    -1.721232  -0.173449  0.987291
C    -2.928052  0.604669  1.262212
C    -2.737910  1.295725  2.634410
O    -1.845689  0.888928  3.447043
H    -1.773139  -1.158663  1.249740
H    -3.063206  1.369261  0.481933
C    -4.137473  -0.357243  1.270274
C    -5.509805  0.274397  1.024187
C    -6.635101  -0.791080  0.949514
N    -6.407677  -1.848640  -0.022541
C    -5.519181  -2.907328  0.188475
N    -5.505568  -3.386565  1.504583
N    -4.725775  -3.438676  -0.674533
H    -4.143623  -0.935331  2.208177
H    -3.944501  -1.083010  0.465621
H    -5.487745  0.841071  0.078728
H    -5.787138  0.984228  1.821922
H    -7.577744  -0.286367  0.700315
H    -6.776239  -1.238725  1.941043
H    -6.466630  -1.562806  -0.995279
H    -5.001689  -4.270620  1.533049
H    -6.430824  -3.487714  1.918113
H    -4.751142  -2.954170  -1.576203
N    -3.547778  2.294773  2.939779
C    -3.556343  2.999238  4.224883
H    -4.233398  2.574976  2.242756
H    -4.366504  3.732612  4.210865
H    -2.605271  3.522042  4.381630
H    -3.723676  2.293454  5.046599
Ba    0.224071  -0.395734  3.919896
