36
Energy: -246329.679061 eV PBE+vdW (tier 2 basis)
C    0.241124  0.904264  0.076458
C    -0.673373  0.423153  1.168409
O    -1.138793  -0.743066  1.129637
H    -0.315295  0.888404  -0.870950
H    1.078298  0.203797  -0.033235
H    0.637738  1.912484  0.235327
N    -0.942340  1.310127  2.150870
C    -1.881474  1.309993  3.293231
C    -1.613231  0.212916  4.334668
O    -1.272903  -0.959541  4.033120
H    -0.481697  2.205799  2.023317
H    -1.637397  2.254651  3.796881
C    -3.373951  1.464620  2.884429
C    -4.116334  0.260323  2.277501
C    -4.998617  -0.500644  3.283634
N    -5.533022  -1.741693  2.730478
C    -4.769406  -2.844382  2.518992
N    -5.192299  -3.745078  1.595379
N    -3.610645  -3.049529  3.134612
H    -3.390969  2.302636  2.174601
H    -3.917747  1.832128  3.768726
H    -3.406992  -0.432049  1.810076
H    -4.762583  0.620055  1.465564
H    -5.856418  0.114046  3.584374
H    -4.451982  -0.715024  4.215756
H    -6.475150  -1.722127  2.355332
H    -4.916858  -4.711848  1.720849
H    -6.039660  -3.587164  1.062864
H    -3.577784  -2.458957  3.971503
N    -1.780222  0.545570  5.619908
C    -2.100192  1.848479  6.209693
H    -1.605815  -0.221087  6.267251
H    -2.083123  1.737742  7.297389
H    -3.100454  2.192826  5.920611
H    -1.353727  2.606111  5.938600
Ba    -1.149017  -2.892882  2.404524
