36
Energy: -246329.997966 eV PBE+vdW (tier 2 basis)
C    -0.487776  1.035339  0.218174
C    -0.253740  0.426105  1.568210
O    0.887675  0.016168  1.898770
H    -0.261210  0.281152  -0.548156
H    0.214392  1.865246  0.068585
H    -1.509812  1.397708  0.066350
N    -1.317334  0.337160  2.394801
C    -1.400904  -0.330380  3.713251
C    -0.634209  0.495145  4.767730
O    0.622717  0.479211  4.849177
H    -2.192696  0.698578  2.028792
H    -2.468281  -0.283782  3.972460
C    -1.014466  -1.821186  3.634395
C    -1.423848  -2.722389  4.809261
C    -0.677217  -2.534816  6.145605
N    0.767259  -2.326187  6.026150
C    1.663059  -3.129192  5.386363
N    1.429444  -4.462889  5.418319
N    2.680757  -2.557007  4.751785
H    0.059824  -1.926079  3.441686
H    -1.509722  -2.207601  2.732603
H    -1.276665  -3.755606  4.465971
H    -2.502502  -2.632712  5.010536
H    -0.894307  -3.390746  6.801087
H    -1.051852  -1.659852  6.692140
H    1.066443  -1.361930  6.094860
H    0.863774  -4.867861  6.155614
H    2.061696  -5.095745  4.944270
H    3.412721  -3.243737  4.551284
N    -1.370061  1.233082  5.597341
C    -0.805654  2.093448  6.638093
H    -2.379652  1.218076  5.492055
H    -1.627300  2.538745  7.204815
H    -0.201087  2.892182  6.191617
H    -0.175153  1.508136  7.318114
Ba    2.732574  -0.212634  3.565480
