36
Energy: -246329.216358 eV PBE+vdW (tier 2 basis)
C    1.855129  0.842930  2.728469
C    0.894975  1.442931  1.754340
O    1.188264  2.507228  1.125102
H    2.481920  1.634872  3.149516
H    2.508009  0.132589  2.199412
H    1.355934  0.301408  3.539691
N    -0.293364  0.871630  1.524078
C    -0.754083  -0.466286  1.894442
C    0.168652  -1.532042  1.252666
O    0.878315  -1.240927  0.271656
H    -0.884831  1.365753  0.859381
H    -0.708273  -0.555603  2.989079
C    -2.239405  -0.617477  1.467424
C    -2.594518  -1.212105  0.087720
C    -1.908088  -0.701667  -1.191253
N    -1.797132  0.763604  -1.292951
C    -0.713006  1.463231  -1.705829
N    0.574413  0.868748  -1.628363
N    -0.698005  2.723062  -2.074473
H    -2.702954  0.373706  1.586636
H    -2.741601  -1.245617  2.213793
H    -3.683466  -1.099031  -0.017759
H    -2.423089  -2.298930  0.097623
H    -2.475855  -1.069590  -2.058594
H    -0.900830  -1.115616  -1.274432
H    -2.677812  1.274662  -1.324834
H    0.912776  0.596098  -2.553205
H    0.660661  0.068814  -0.966568
H    -1.622154  3.125778  -2.244954
N    0.161510  -2.764749  1.781960
C    -0.625406  -3.282009  2.900050
H    0.756665  -3.426250  1.286263
H    -1.637167  -3.573566  2.586700
H    -0.120655  -4.167560  3.297570
H    -0.695639  -2.549656  3.712400
Ba    1.598052  3.487286  -1.079301
