36
Energy: -246327.784785 eV PBE+vdW (tier 2 basis)
C    0.438564  0.307552  2.156432
C    -0.116893  -0.653533  3.157977
O    0.676882  -1.411823  3.801058
H    -0.115324  1.249843  2.126437
H    0.413636  -0.132149  1.147278
H    1.485392  0.501149  2.412483
N    -1.442127  -0.740494  3.424137
C    -2.526180  -0.817230  2.429817
C    -2.392458  -2.176221  1.693875
O    -1.304726  -2.852057  1.783755
H    -1.616961  -1.317551  4.247513
H    -3.453835  -0.851724  3.022041
C    -2.674982  0.349227  1.441934
C    -2.990330  1.710976  2.080257
C    -3.775866  2.633270  1.121387
N    -5.151025  2.214713  0.917516
C    -5.569114  1.255629  0.014594
N    -6.845544  0.771609  0.242246
N    -4.867727  0.706462  -0.931674
H    -3.509310  0.078648  0.782745
H    -1.806447  0.414083  0.773328
H    -2.070537  2.224563  2.400868
H    -3.594898  1.571314  2.989781
H    -3.256701  2.721560  0.153864
H    -3.797032  3.647494  1.538743
H    -5.853543  2.678587  1.480773
H    -7.288967  0.398992  -0.591558
H    -7.472086  1.313174  0.827409
H    -3.988853  1.202001  -1.092104
N    -3.401858  -2.643943  0.981095
C    -4.745249  -2.088331  0.769650
H    -3.197940  -3.514922  0.491266
H    -5.420590  -2.924470  0.565285
H    -4.760615  -1.379375  -0.079985
H    -5.099300  -1.569879  1.667126
Ba    0.705515  -3.695363  2.890418
