36
Energy: -246329.777553 eV PBE+vdW (tier 2 basis)
C    -0.379006  -1.045006  0.107660
C    -0.267162  -0.677042  1.552511
O    0.846384  -0.441104  2.088863
H    -1.410226  -1.209804  -0.221644
H    0.208210  -1.954264  -0.077655
H    0.068995  -0.246603  -0.498596
N    -1.403702  -0.596735  2.283920
C    -1.358226  -0.179206  3.680993
C    -0.874469  -1.320224  4.600668
O    0.255795  -1.188285  5.151694
H    -2.294903  -0.773523  1.830001
H    -0.527133  0.537265  3.712029
C    -2.590576  0.614490  4.179083
C    -2.170799  2.052515  4.526572
C    -1.189748  2.107110  5.716672
N    -0.387481  3.319627  5.765236
C    0.679807  3.583176  4.969924
N    1.049603  4.886007  4.886727
N    1.318434  2.615262  4.309941
H    -3.039831  0.126839  5.055590
H    -3.369383  0.636194  3.403930
H    -3.058790  2.658896  4.748526
H    -1.693696  2.504858  3.643847
H    -0.510559  1.243931  5.714392
H    -1.736914  2.042354  6.665719
H    -0.738471  4.081100  6.334294
H    0.493477  5.629911  5.290267
H    1.965019  5.142420  4.541207
H    1.931978  3.079570  3.630570
N    -1.607396  -2.410884  4.803253
C    -2.897746  -2.774673  4.221490
H    -1.167502  -3.102199  5.410787
H    -2.762427  -3.433501  3.353467
H    -3.458951  -1.885649  3.922155
H    -3.489053  -3.304989  4.975456
Ba    2.199506  0.130121  4.170514
