36
Energy: -246329.410829 eV PBE+vdW (tier 2 basis)
C    -0.747227  1.913102  0.949874
C    -0.721485  0.602504  1.671858
O    0.187561  0.319344  2.491648
H    -1.133904  2.699720  1.614973
H    -1.349980  1.894276  0.036251
H    0.285105  2.187745  0.703070
N    -1.710536  -0.309014  1.450922
C    -3.115853  0.029560  1.272162
C    -3.531396  1.019737  2.387713
O    -2.898469  1.017121  3.480853
H    -1.525057  -1.230673  1.844947
H    -3.264418  0.475001  0.278902
C    -4.011602  -1.230084  1.416780
C    -3.488199  -2.543029  0.785840
C    -2.991060  -3.615266  1.771983
N    -1.646165  -3.407014  2.345931
C    -1.373852  -2.873907  3.567145
N    -0.013312  -2.741476  3.914014
N    -2.201789  -2.324978  4.415811
H    -4.982322  -0.977895  0.972799
H    -4.213078  -1.390803  2.486085
H    -2.718349  -2.346635  0.025308
H    -4.319362  -3.008936  0.239588
H    -2.946510  -4.579061  1.250408
H    -3.713712  -3.752626  2.589736
H    -0.907977  -3.963714  1.924100
H    0.207450  -3.212535  4.791480
H    0.666463  -2.980445  3.193897
H    -3.184247  -2.525561  4.224475
N    -4.567899  1.831656  2.200860
C    -5.443077  1.966382  1.035314
H    -4.805799  2.397888  3.015124
H    -4.922991  1.679953  0.116681
H    -5.742533  3.015312  0.942748
H    -6.345445  1.351733  1.148948
Ba    -0.934637  0.002013  4.809017
