36
Energy: -246328.416507 eV PBE+vdW (tier 2 basis)
C    -0.515403  -0.049047  0.574475
C    -1.097535  0.037857  1.947118
O    -0.418237  0.500078  2.915414
H    -0.235786  0.961067  0.244118
H    -1.199035  -0.487540  -0.159607
H    0.408014  -0.642141  0.607081
N    -2.357895  -0.373140  2.142882
C    -3.078286  -0.224480  3.415763
C    -2.504110  -1.185809  4.484089
O    -1.769889  -0.662307  5.395928
H    -2.881356  -0.710904  1.338711
H    -2.817306  0.770481  3.807565
C    -4.596858  -0.258527  3.199534
C    -5.379517  -0.059623  4.500674
C    -6.908788  -0.219412  4.333743
N    -7.301847  -1.331966  3.485741
C    -6.971291  -2.648664  3.762608
N    -7.191274  -3.524925  2.717130
N    -6.366229  -3.086421  4.823693
H    -4.904002  -1.202529  2.730757
H    -4.840877  0.541247  2.482842
H    -5.196495  0.945147  4.910811
H    -5.016060  -0.773522  5.253571
H    -7.361621  -0.278011  5.338718
H    -7.317929  0.683960  3.863538
H    -8.083251  -1.162873  2.862468
H    -7.319284  -4.490157  3.001906
H    -7.783744  -3.232120  1.949092
H    -6.371571  -2.393890  5.573645
N    -2.699309  -2.491200  4.476029
C    -3.476150  -3.354276  3.580600
H    -2.280650  -2.964225  5.278139
H    -2.957836  -4.316627  3.514706
H    -3.536561  -2.925765  2.577577
H    -4.493220  -3.498546  4.000226
Ba    0.183374  0.759130  5.263629
