36
Energy: -246328.936437 eV PBE+vdW (tier 2 basis)
C    0.242565  0.639808  0.337052
C    0.063400  -0.065370  1.650554
O    0.893634  -0.977306  1.999760
H    1.228580  1.123647  0.304903
H    -0.522688  1.400287  0.152553
H    0.203458  -0.098109  -0.475768
N    -0.954571  0.306618  2.406082
C    -1.525460  -0.315502  3.601588
C    -3.058526  -0.275278  3.282832
O    -3.455886  0.562814  2.469128
H    -1.684824  0.919033  1.992200
H    -1.156531  -1.347422  3.689224
C    -1.278473  0.478153  4.908761
C    0.096858  0.341080  5.578640
C    1.196351  1.249332  5.000088
N    2.520090  1.020118  5.582202
C    3.355377  0.041705  5.166098
N    4.639199  0.065654  5.591269
N    2.958416  -0.907457  4.314242
H    -2.032001  0.130459  5.628847
H    -1.521789  1.535844  4.723738
H    0.411196  -0.715646  5.559755
H    -0.012711  0.585674  6.644805
H    0.941081  2.300829  5.183515
H    1.283971  1.140309  3.909757
H    2.811779  1.619275  6.347165
H    5.167899  -0.796734  5.592557
H    4.985979  0.810480  6.183509
H    1.933263  -0.874295  4.288119
N    -3.838696  -1.137684  3.953017
C    -5.295468  -1.165530  3.827866
H    -3.404309  -1.797140  4.589792
H    -5.587285  -0.441373  3.062715
H    -5.767895  -0.895485  4.780326
H    -5.629688  -2.165727  3.528593
Ba    3.066809  -2.053981  2.088972
