36
Energy: -246329.197192 eV PBE+vdW (tier 2 basis)
C    0.258636  0.502456  0.022893
C    0.190011  0.228192  1.494687
O    1.267361  0.031113  2.159644
H    0.905389  1.370146  -0.164000
H    -0.723928  0.688042  -0.421907
H    0.714310  -0.362324  -0.478666
N    -0.998649  0.211024  2.068931
C    -1.372144  -0.228597  3.411166
C    -2.834244  -0.745614  3.187009
O    -3.433688  -0.368892  2.176549
H    -1.867513  0.290191  1.501381
H    -0.709820  -1.052420  3.718486
C    -1.371142  0.883671  4.483933
C    0.010881  1.367256  4.961551
C    0.580846  2.543059  4.170231
N    2.006314  2.793050  4.567916
C    2.720011  3.733686  3.765678
N    2.868024  4.979256  4.246869
N    3.208724  3.246609  2.655243
H    -1.911443  0.486446  5.353473
H    -1.978419  1.726960  4.121855
H    0.716313  0.518745  4.941584
H    -0.068025  1.662828  6.018555
H    -0.029294  3.444257  4.340952
H    0.574005  2.353943  3.090987
H    2.049756  3.043051  5.558449
H    3.447953  5.663034  3.770359
H    2.325969  5.316097  5.034717
H    3.624968  3.947462  2.038943
N    -3.342554  -1.547017  4.135548
C    -4.705284  -2.076349  4.092602
H    -2.746158  -1.837950  4.902812
H    -5.204975  -1.665242  3.211615
H    -5.255304  -1.781407  4.994091
H    -4.687167  -3.170524  4.020695
Ba    3.394334  0.663708  3.076440
