36
Energy: -246328.593603 eV PBE+vdW (tier 2 basis)
C    0.662149  1.541577  -0.155423
C    0.541216  1.074038  1.262994
O    1.350866  1.489299  2.144276
H    0.282453  2.569183  -0.257021
H    0.138035  0.900346  -0.870141
H    1.729230  1.570859  -0.408257
N    -0.432301  0.197315  1.604474
C    -1.827709  0.394632  1.172802
C    -2.503646  1.353098  2.205406
O    -1.684464  2.240818  2.745228
H    -0.337366  -0.123113  2.568649
H    -1.782585  0.978174  0.241285
C    -2.549834  -0.914306  0.837605
C    -2.639730  -1.939886  1.974285
C    -3.582906  -3.132422  1.709691
N    -4.902337  -2.803547  1.129398
C    -5.606188  -1.689006  1.365793
N    -6.471835  -1.228051  0.450325
N    -5.457205  -0.978354  2.503796
H    -2.041384  -1.364142  -0.027935
H    -3.547324  -0.624867  0.484720
H    -2.912078  -1.435197  2.910909
H    -1.652738  -2.392294  2.153842
H    -3.714721  -3.710483  2.636272
H    -3.118665  -3.812722  0.984512
H    -5.240890  -3.428995  0.404170
H    -7.199531  -0.584948  0.740890
H    -6.509486  -1.595141  -0.493156
H    -5.025563  -1.489823  3.266889
N    -3.770361  1.281632  2.429830
C    -4.344460  2.295580  3.315849
H    -5.029823  -0.018746  2.394003
H    -5.419315  2.115520  3.427805
H    -4.208883  3.308989  2.909615
H    -3.888254  2.273533  4.318170
Ba    0.253009  3.167149  3.653571
