36
Energy: -246327.428227 eV PBE+vdW (tier 2 basis)
C    -0.458854  0.615485  -0.441465
C    -0.083299  0.442609  0.993965
O    1.124973  0.518779  1.369158
H    -0.492504  1.685747  -0.699981
H    -1.424567  0.163148  -0.687215
H    0.326745  0.165630  -1.060577
N    -1.044378  0.229807  1.923871
C    -2.307570  0.975761  1.968082
C    -1.960286  2.477271  1.917005
O    -0.841204  2.871283  2.399223
H    -0.682771  -0.025910  2.843498
H    -2.937787  0.700657  1.112197
C    -3.018216  0.600360  3.294748
C    -4.375149  1.251859  3.562251
C    -5.533493  0.675186  2.721485
N    -6.602600  1.644156  2.523555
C    -7.445256  1.972512  3.627569
N    -8.431818  2.860163  3.260443
N    -7.370980  1.531378  4.829719
H    -2.328181  0.853624  4.117073
H    -3.118624  -0.496529  3.292497
H    -4.327443  2.341334  3.420667
H    -4.594560  1.124906  4.629514
H    -5.885585  -0.264848  3.186049
H    -5.180318  0.396325  1.717012
H    -7.156162  1.457945  1.688054
H    -9.029801  3.154900  4.025249
H    -8.207310  3.582959  2.586964
H    -6.742116  0.732637  4.928804
N    -2.795910  3.352512  1.380797
C    -4.074771  3.127620  0.697096
H    -2.499565  4.324458  1.472762
H    -4.246489  3.974923  0.026715
H    -4.912823  3.050265  1.407864
H    -4.032529  2.215715  0.092317
Ba    1.570568  2.526859  2.760648
