36
Energy: -246328.784931 eV PBE+vdW (tier 2 basis)
C    0.176453  -0.483551  0.287198
C    0.117057  -0.204201  1.757471
O    1.066158  -0.578592  2.511885
H    -0.664394  -0.063469  -0.274239
H    0.192109  -1.572970  0.141152
H    1.115666  -0.093383  -0.124708
N    -0.961442  0.436296  2.226920
C    -1.385530  0.705314  3.618501
C    -0.536080  1.772416  4.316381
O    0.721618  1.617443  4.500951
H    -1.645239  0.701622  1.523780
H    -2.378403  1.145474  3.477544
C    -1.572047  -0.585443  4.455529
C    -2.858801  -1.348040  4.069732
C    -4.099745  -1.087261  4.970241
N    -4.244481  0.265042  5.505285
C    -4.280388  1.431483  4.786469
N    -4.615163  1.309924  3.444136
N    -3.926530  2.608962  5.226158
H    -1.598294  -0.301381  5.517856
H    -0.696517  -1.236198  4.326363
H    -2.671441  -2.429590  4.100215
H    -3.107776  -1.126343  3.022124
H    -4.054696  -1.742425  5.848245
H    -5.005298  -1.394140  4.424698
H    -4.020388  0.382544  6.485576
H    -4.904142  2.202874  3.051347
H    -5.263222  0.562098  3.211626
H    -3.726317  2.581846  6.230493
N    -1.179140  2.835451  4.746847
C    -0.538903  3.923267  5.481102
H    -2.242440  2.846389  4.710466
H    -1.307874  4.658153  5.734767
H    0.226937  4.406223  4.862337
H    -0.068807  3.555871  6.402608
Ba    2.615572  0.189033  4.199913
