36
Energy: -246328.619696 eV PBE+vdW (tier 2 basis)
C    -0.624158  -0.024928  1.256694
C    -0.298281  0.043774  2.710030
O    0.852128  -0.299857  3.137597
H    -1.321480  0.762937  0.950513
H    -1.124055  -0.994844  1.086699
H    0.288527  0.025510  0.656814
N    -1.263289  0.433750  3.547864
C    -1.241791  0.314318  5.018218
C    -0.232939  1.322719  5.602081
O    0.971846  0.993819  5.829155
H    -2.205019  0.544286  3.127613
H    -2.242551  0.642712  5.320974
C    -1.039904  -1.129681  5.561740
C    -2.235448  -1.686208  6.365614
C    -3.389318  -2.293061  5.548721
N    -3.964399  -1.378804  4.572171
C    -3.604291  -1.372380  3.236466
N    -4.002430  -0.195444  2.561486
N    -2.832615  -2.181751  2.602253
H    -0.168210  -1.127282  6.233812
H    -0.806914  -1.799364  4.722234
H    -2.625405  -0.895708  7.027001
H    -1.865708  -2.475066  7.036831
H    -4.181378  -2.612622  6.237823
H    -3.052035  -3.209969  5.043164
H    -4.839438  -0.933404  4.825992
H    -4.079801  -0.363220  1.558921
H    -4.848226  0.249539  2.913864
H    -2.604464  -3.016440  3.144649
N    -0.641007  2.558487  5.863586
C    -1.972520  3.138557  5.662848
H    0.077425  3.170141  6.249635
H    -2.288024  3.052809  4.616457
H    -1.917723  4.200733  5.916319
H    -2.714465  2.669758  6.321315
Ba    2.622540  -0.438501  4.724965
