31
Energy: -573019.7847863  eV PBE+vdW (tier 2 basis)
C    -0.63064  -1.37125  0.02055
C    -0.88422  -0.14689  0.84598
O    -0.16898  -0.05999  1.90375
H    -0.49596  -2.23910  0.68033
H    0.32447  -1.23507  -0.51291
H    -1.43011  -1.57311  -0.70228
N    -1.80932  0.72870  0.41159
C    -2.46061  1.92674  1.00867
C    -1.53323  3.16832  1.09826
O    -0.78687  3.42728  2.11607
H    -2.20337  0.46137  -0.48860
H    -3.22541  2.18723  0.26493
C    -3.20260  1.64647  2.35706
C    -4.53069  0.95248  2.24331
N    -5.75017  1.62944  2.21797
C    -4.85690  -0.38199  2.23885
C    -6.76603  0.75757  2.20207
N    -6.23212  -0.46618  2.20810
H    -3.34575  2.60851  2.87113
H    -2.57151  1.04515  3.02510
H    -5.88867  2.63779  2.26561
H    -4.23606  -1.26830  2.28895
H    -7.82468  1.00141  2.19504
H    -6.77638  -1.33042  2.21362
N    -1.59114  4.05566  0.12224
C    -0.79980  5.28855  0.03344
H    -2.28748  3.91919  -0.61190
H    -1.40515  6.13930  0.38106
H    -0.53577  5.45137  -1.01818
H    0.09458  5.20483  0.65594
Hg    0.32658  1.76893  2.99327
