31
Energy: -573019.1854146  eV PBE+vdW (tier 2 basis)
C    -0.72195  0.35087  -0.49359
C    -0.63214  -0.20482  0.87751
O    0.37336  -0.94003  1.16802
H    0.11184  1.04403  -0.68462
H    -1.68991  0.82244  -0.69587
H    -0.57977  -0.47924  -1.20772
N    -1.59296  -0.01094  1.82327
C    -2.12646  1.29080  2.22103
C    -1.18338  1.79626  3.35041
O    -0.48060  0.95721  4.02571
H    -1.49364  -0.64263  2.62120
H    -2.03743  1.97466  1.36578
C    -3.64391  1.24902  2.59525
C    -4.12949  0.25260  3.60931
N    -4.97209  -0.80470  3.27154
C    -4.03549  0.21386  4.98291
C    -5.38095  -1.44856  4.37158
N    -4.80794  -0.84133  5.41525
H    -4.18670  1.08755  1.65360
H    -3.93898  2.25374  2.92989
H    -5.29959  -1.03832  2.33443
H    -3.52045  0.86214  5.68166
H    -6.05698  -2.29836  4.40853
H    -4.95738  -1.11036  6.38918
N    -1.10952  3.08046  3.66834
C    -1.88036  4.22480  3.18522
H    -0.41933  3.28726  4.39998
H    -2.58323  4.56160  3.96298
H    -2.42303  3.99194  2.26561
H    -1.18007  5.05058  2.99404
Hg    1.16602  -0.50767  3.22730
