31
Energy: -573019.6201576  eV PBE+vdW (tier 2 basis)
C    0.24408  0.49829  -0.03747
C    -0.05895  0.02270  1.33999
O    0.80974  -0.53473  2.08404
H    0.87293  1.40161  0.03934
H    -0.63207  0.75537  -0.63846
H    0.82401  -0.26732  -0.56901
N    -1.28919  0.12038  1.91064
C    -2.56334  0.42073  1.29418
C    -3.37516  1.25263  2.35371
O    -3.62998  0.67757  3.41738
H    -1.32337  -0.17120  2.89260
H    -2.38653  0.99456  0.37779
C    -3.44329  -0.82722  0.89518
C    -4.13172  -1.57261  1.98575
N    -5.51062  -1.56302  2.15849
C    -3.65833  -2.46808  2.93943
C    -5.86643  -2.38286  3.15235
N    -4.74043  -2.93284  3.63383
H    -2.79018  -1.51625  0.33750
H    -4.18894  -0.46886  0.17180
H    -6.18336  -1.03703  1.60024
H    -2.65293  -2.81290  3.15065
H    -6.87781  -2.57726  3.50035
H    -4.71419  -3.61253  4.39697
N    -3.73798  2.49576  2.02525
C    -4.38033  3.42168  2.96277
H    -3.43930  2.87574  1.12870
H    -4.88990  2.84889  3.74393
H    -5.08880  4.04403  2.40253
H    -3.63273  4.07933  3.43064
Hg    3.10175  -0.16815  2.10242
