31
Energy: -573019.3863416  eV PBE+vdW (tier 2 basis)
C    -2.03697  3.63447  0.58897
C    -1.17769  2.72583  1.38925
O    -0.25900  3.24691  2.10645
H    -1.38101  4.33132  0.04043
H    -2.64415  4.26928  1.25287
H    -2.67307  3.10272  -0.12662
N    -1.30068  1.36950  1.35341
C    -2.55962  0.64226  1.55602
C    -2.81265  0.66344  3.10190
O    -1.82299  0.71414  3.90815
H    -0.50415  0.88905  1.78014
H    -3.36769  1.17712  1.03756
C    -2.47273  -0.82474  1.07009
C    -2.33051  -1.05004  -0.40863
N    -2.51359  -2.31755  -0.95358
C    -2.00855  -0.23999  -1.47372
C    -2.31690  -2.29032  -2.27754
N    -2.01131  -1.03181  -2.60247
H    -3.38213  -1.34373  1.41240
H    -1.64002  -1.32275  1.59766
H    -2.75815  -3.16661  -0.44388
H    -1.77245  0.81421  -1.52662
H    -2.39480  -3.13421  -2.95763
H    -1.81119  -0.71668  -3.55292
N    -4.05448  0.55330  3.55144
C    -4.46951  0.56719  4.95413
H    -4.79838  0.39033  2.86917
H    -4.74434  -0.45504  5.26094
H    -5.35882  1.20338  5.05283
H    -3.65261  0.92390  5.58476
Hg    -0.16683  2.33011  4.16304
