31
Energy: -573019.1377838  eV PBE+vdW (tier 2 basis)
C    -0.19857  0.41202  0.19981
C    -0.18652  0.20979  1.67038
O    0.88819  0.50384  2.29455
H    -1.19969  0.60905  -0.19292
H    0.25577  -0.45904  -0.30135
H    0.46103  1.26180  -0.03381
N    -1.26986  -0.18107  2.40553
C    -2.13242  -1.35871  2.21956
C    -1.26562  -2.57414  2.69838
O    -0.00086  -2.51455  2.52827
H    -1.13372  0.02766  3.39845
H    -2.96268  -1.22627  2.92950
C    -2.71689  -1.60595  0.81337
C    -3.76776  -0.62708  0.36961
N    -4.48584  -0.82067  -0.80753
C    -4.26640  0.53320  0.91462
C    -5.37788  0.16395  -0.97646
N    -5.25162  0.99048  0.06405
H    -3.17054  -2.61029  0.83040
H    -1.91222  -1.67380  0.06580
H    -4.37704  -1.59301  -1.46482
H    -4.01345  1.06713  1.82206
H    -6.07319  0.26735  -1.80510
H    -5.81299  1.83260  0.20117
N    -1.81157  -3.64978  3.24551
C    -3.21245  -4.02024  3.42517
H    -1.12642  -4.34650  3.56101
H    -3.45553  -4.86887  2.76677
H    -3.88309  -3.18397  3.21062
H    -3.35664  -4.35263  4.46279
Hg    1.66340  -1.21025  3.53786
