31
Energy: -573019.7013509  eV PBE+vdW (tier 2 basis)
C    -0.22983  1.89808  0.78357
C    -0.24335  1.31258  2.15931
O    0.66328  1.74735  2.94702
H    0.67947  1.55642  0.26475
H    -0.15491  2.99275  0.85462
H    -1.11632  1.62673  0.19803
N    -1.18242  0.39282  2.46415
C    -1.51808  -0.17389  3.77904
C    -0.57048  -1.34116  4.18930
O    0.32349  -1.11464  5.09719
H    -1.78205  0.12953  1.68417
H    -1.31585  0.60302  4.53169
C    -3.03709  -0.52910  3.88902
C    -3.98269  0.60915  4.14831
N    -4.40138  0.98913  5.42365
C    -4.70690  1.39071  3.28105
C    -5.33277  1.94752  5.34073
N    -5.51853  2.20220  4.04319
H    -3.15007  -1.27085  4.69380
H    -3.36809  -1.04247  2.97630
H    -4.11529  0.57238  6.30835
H    -4.74244  1.41176  2.19822
H    -5.84779  2.41975  6.17258
H    -6.18891  2.88238  3.68065
N    -0.63235  -2.57025  3.71617
C    -1.58493  -3.21635  2.80698
H    0.08350  -3.19099  4.11211
H    -2.42371  -3.65267  3.36731
H    -1.05403  -4.03052  2.30001
H    -1.95050  -2.51682  2.05011
Hg    1.36803  0.79247  4.80161
