31
Energy: -573019.6669191  eV PBE+vdW (tier 2 basis)
C    -0.79293  2.11613  2.81811
C    -0.79281  0.62432  2.67807
O    -0.69401  0.19994  1.47630
H    -1.15008  2.45316  3.79882
H    -1.40896  2.56060  2.02482
H    0.23515  2.47855  2.65559
N    -0.89198  -0.11497  3.79919
C    -1.06416  -1.56806  4.05174
C    0.18803  -2.40355  3.69081
O    0.31909  -2.99050  2.54609
H    -0.91879  0.45495  4.64241
H    -1.15830  -1.62690  5.14246
C    -2.36906  -2.17721  3.44215
C    -3.63831  -1.88703  4.19223
N    -4.19981  -2.76628  5.11820
C    -4.52982  -0.84640  4.09402
C    -5.37143  -2.29181  5.55946
N    -5.57609  -1.12301  4.94734
H    -2.23584  -3.26688  3.37380
H    -2.50888  -1.83056  2.40967
H    -3.83188  -3.67495  5.39603
H    -4.52549  0.04004  3.47138
H    -6.03398  -2.77271  6.27356
H    -6.40421  -0.54076  5.08279
N    1.13596  -2.64110  4.57986
C    1.24450  -2.33784  6.00764
H    1.90717  -3.20698  4.20322
H    0.44781  -1.67387  6.35034
H    2.21684  -1.85420  6.17943
H    1.22595  -3.27573  6.58084
Hg    -0.01069  -1.76439  0.76661
