31
Energy: -573019.7736417  eV PBE+vdW (tier 2 basis)
C    -0.27533  -0.31811  -0.30155
C    -0.23900  -0.36561  1.18349
O    0.63752  -0.98967  1.84770
H    0.70481  0.02667  -0.66656
H    -1.04355  0.34043  -0.71659
H    -0.41919  -1.33529  -0.69618
N    -1.18841  0.23729  1.97276
C    -2.56847  0.56011  1.65253
C    -2.87729  1.98151  2.27625
O    -3.83922  2.12233  3.02075
H    -0.97044  0.15195  2.97223
H    -2.67933  0.61961  0.56142
C    -3.55820  -0.51259  2.24016
C    -4.99069  -0.46174  1.82310
N    -5.93772  0.40956  2.33973
C    -5.69835  -1.32537  0.99947
C    -7.15247  0.11025  1.87009
N    -7.01368  -0.94539  1.05220
H    -3.50552  -0.45008  3.33873
H    -3.17119  -1.49757  1.94737
H    -5.71645  1.18580  2.96813
H    -5.36879  -2.17993  0.41889
H    -8.08119  0.62247  2.10646
H    -7.78590  -1.40131  0.56237
N    -2.03108  2.98271  1.94311
C    -2.24465  4.36356  2.35107
H    -1.31783  2.80378  1.23838
H    -2.74049  4.38133  3.32875
H    -2.88447  4.89857  1.62695
H    -1.27348  4.87367  2.37795
Hg    2.89324  -1.40686  1.35860
