31
Energy: -573019.2081813  eV PBE+vdW (tier 2 basis)
C    -0.54041  -0.96512  -1.01897
C    -0.00316  -0.52006  0.29145
O    1.23443  -0.21019  0.34703
H    0.02329  -0.45087  -1.81239
H    -1.60662  -0.75169  -1.13468
H    -0.33801  -2.03961  -1.16216
N    -0.76564  -0.32865  1.41064
C    -1.66446  -1.29066  2.06346
C    -0.70381  -2.36368  2.70898
O    0.37687  -2.63025  2.09941
H    -0.26751  0.24294  2.09884
H    -2.15186  -0.73194  2.87685
C    -2.75457  -1.96232  1.20328
C    -3.87887  -1.06445  0.77198
N    -5.02914  -1.57626  0.17862
C    -4.08137  0.29582  0.84672
C    -5.89105  -0.58874  -0.09602
N    -5.32348  0.55129  0.30644
H    -3.18280  -2.77474  1.81418
H    -2.30924  -2.46961  0.33392
H    -5.22064  -2.55684  -0.02749
H    -3.46010  1.09327  1.23495
H    -6.86855  -0.69735  -0.55832
H    -5.76016  1.47117  0.22544
N    -1.06542  -2.95067  3.84086
C    -0.27002  -3.91353  4.60186
H    -1.97843  -2.71643  4.23652
H    -0.04008  -3.49546  5.59363
H    0.64328  -4.15901  4.05703
H    -0.87082  -4.82319  4.75399
Hg    2.38501  -1.39565  1.88535
