31
Energy: -573019.4269057  eV PBE+vdW (tier 2 basis)
C    -2.11988  0.93199  -0.49549
C    -1.43033  0.15673  0.58158
O    -0.21553  -0.14837  0.34589
H    -1.97932  0.42702  -1.46057
H    -1.64115  1.92071  -0.57870
H    -3.18993  1.06559  -0.29281
N    -2.11476  -0.15496  1.70560
C    -1.53483  -0.68817  2.93809
C    -1.30946  -2.22609  2.87837
O    -0.09187  -2.65154  2.87108
H    -3.09002  0.13541  1.71126
H    -0.50154  -0.30922  2.97281
C    -2.10000  -0.06384  4.26050
C    -3.53878  -0.13372  4.68441
N    -3.99116  -0.94291  5.72694
C    -4.61338  0.65925  4.35283
C    -5.26818  -0.66151  6.01731
N    -5.65750  0.30138  5.17810
H    -1.83380  1.00219  4.19997
H    -1.47150  -0.46267  5.07095
H    -3.43032  -1.59719  6.27133
H    -4.70625  1.47755  3.64764
H    -5.86862  -1.11955  6.79871
H    -6.58483  0.73072  5.18529
N    -2.26101  -3.13897  2.83332
C    -3.71544  -3.01663  2.88441
H    -1.90311  -4.09814  2.75272
H    -4.02555  -1.96994  2.88553
H    -4.10063  -3.52464  3.77819
H    -4.13368  -3.52164  2.00251
Hg    1.17036  -1.47683  1.47023
