31
Energy: -573019.3762001  eV PBE+vdW (tier 2 basis)
C    -1.48054  3.45073  0.22321
C    -0.82630  2.57175  1.22378
O    0.10910  3.07174  1.93714
H    -2.04676  4.24883  0.72838
H    -2.11518  2.89267  -0.47294
H    -0.69101  3.96902  -0.34682
N    -1.14608  1.25757  1.37525
C    -2.49790  0.73130  1.57198
C    -2.77344  0.82659  3.11284
O    -1.80805  0.88546  3.95069
H    -0.45169  0.74399  1.92375
H    -3.20750  1.38196  1.04267
C    -2.63830  -0.73998  1.07242
C    -2.55693  -0.95642  -0.41349
N    -1.55228  -1.70152  -1.02449
C    -3.43372  -0.63272  -1.42388
C    -1.79899  -1.83421  -2.33416
N    -2.93630  -1.18011  -2.58516
H    -3.60694  -1.12938  1.41893
H    -1.88405  -1.36162  1.57821
H    -0.76147  -2.14696  -0.56167
H    -4.37413  -0.09409  -1.40954
H    -1.19231  -2.37702  -3.05330
H    -3.37698  -1.12457  -3.50490
N    -4.02398  0.76741  3.54607
C    -4.45970  0.85102  4.94098
H    -4.76044  0.58198  2.86211
H    -4.69862  -0.15965  5.31036
H    -5.37294  1.45790  4.98596
H    -3.66651  1.27956  5.55762
Hg    -0.02104  2.35578  4.06098
