31
Energy: -573019.8608696  eV PBE+vdW (tier 2 basis)
C    -1.57222  -2.67729  1.42541
C    -1.27826  -1.38027  2.10906
O    -0.37069  -0.66569  1.56170
H    -0.76273  -3.38521  1.67010
H    -1.53924  -2.53616  0.33636
H    -2.53840  -3.10447  1.71829
N    -1.96836  -1.06648  3.22444
C    -2.03961  0.21355  3.95776
C    -0.89182  0.35264  5.00559
O    0.19165  0.98091  4.70235
H    -2.60471  -1.79768  3.54019
H    -1.86098  1.02921  3.23904
C    -3.44076  0.42730  4.57824
C    -4.56864  0.71230  3.62087
N    -5.86874  0.88196  4.09214
C    -4.64209  0.91986  2.26678
C    -6.69505  1.18113  3.08254
N    -5.96047  1.20554  1.96971
H    -3.36097  1.28009  5.27218
H    -3.71491  -0.44742  5.19451
H    -6.17906  0.81009  5.06101
H    -3.88738  0.90036  1.49132
H    -7.76274  1.36803  3.15847
H    -6.33149  1.41186  1.04119
N    -1.01273  -0.13494  6.22206
C    0.02040  -0.07425  7.26969
H    -1.91201  -0.52370  6.50385
H    -0.07272  -0.96938  7.89373
H    -0.13619  0.81850  7.89196
H    1.01072  -0.02275  6.80885
Hg    0.80417  0.86736  2.60858
