31
Energy: -573019.3757692  eV PBE+vdW (tier 2 basis)
C    -1.46893  3.35318  0.23236
C    -0.74677  2.45461  1.16660
O    0.22848  2.94644  1.83211
H    -0.72086  3.91346  -0.35330
H    -2.02869  4.11690  0.79525
H    -2.12410  2.80635  -0.45329
N    -1.04713  1.13537  1.30671
C    -2.38108  0.59215  1.57053
C    -2.58073  0.67161  3.12374
O    -1.57601  0.72097  3.91515
H    -0.31342  0.61115  1.78993
H    -3.12428  1.23902  1.08420
C    -2.52717  -0.87640  1.07242
C    -2.50512  -1.08498  -0.41755
N    -1.63631  -1.97616  -1.04048
C    -3.33132  -0.62515  -1.41734
C    -1.91385  -2.06432  -2.34761
N    -2.93790  -1.24053  -2.58512
H    -3.47385  -1.28025  1.46254
H    -1.74168  -1.48872  1.54083
H    -0.91546  -2.53610  -0.58723
H    -4.17590  0.05335  -1.39383
H    -1.40441  -2.69050  -3.07445
H    -3.37187  -1.11191  -3.50063
N    -3.80879  0.60653  3.61576
C    -4.17784  0.67125  5.03111
H    -4.57716  0.43048  2.96514
H    -4.41273  -0.34244  5.39421
H    -5.07996  1.28871  5.12870
H    -3.35118  1.07977  5.61653
Hg    0.21902  2.18015  3.93903
