31
Energy: -573019.6276792  eV PBE+vdW (tier 2 basis)
C    -0.13900  1.01076  0.04760
C    -0.09931  0.59142  1.48219
O    1.04595  0.68408  2.04353
H    0.55627  0.38496  -0.53085
H    0.22567  2.04633  -0.03292
H    -1.14769  0.94819  -0.37966
N    -1.23538  0.16176  2.06791
C    -1.48382  -0.05551  3.50323
C    -0.96386  -1.43844  3.98301
O    0.06301  -1.46654  4.76687
H    -2.04517  0.14715  1.44915
H    -0.86526  0.66861  4.05530
C    -2.96864  0.30080  3.85507
C    -3.25426  0.67931  5.28145
N    -3.83655  -0.16320  6.22776
C    -3.14911  1.90204  5.90079
C    -4.07757  0.50744  7.36204
N    -3.65500  1.75989  7.17320
H    -3.65524  -0.49507  3.53933
H    -3.22181  1.17666  3.23907
H    -4.11665  -1.13233  6.09344
H    -2.79330  2.85768  5.53262
H    -4.53851  0.10892  8.26132
H    -3.72971  2.50366  7.86954
N    -1.50617  -2.59823  3.66097
C    -2.68170  -2.93542  2.85228
H    -1.00509  -3.40259  4.05616
H    -2.97403  -2.11318  2.19630
H    -3.52248  -3.23104  3.49506
H    -2.41795  -3.80085  2.23010
Hg    1.65836  -0.14826  3.98114
