31
Energy: -573019.3764185  eV PBE+vdW (tier 2 basis)
C    -1.27738  3.20466  0.52638
C    -0.61469  2.22459  1.42207
O    0.35724  2.63801  2.14334
H    -0.49342  3.76453  -0.01079
H    -1.81808  3.95837  1.12029
H    -1.93810  2.72540  -0.20317
N    -0.96516  0.91109  1.47079
C    -2.32394  0.40194  1.66443
C    -2.56030  0.38076  3.21443
O    -1.57507  0.34414  4.03079
H    -0.26506  0.33173  1.94090
H    -3.03053  1.10873  1.20783
C    -2.51200  -1.02183  1.05980
C    -2.45510  -1.12633  -0.43974
N    -1.56667  -1.96478  -1.10668
C    -3.26352  -0.59994  -1.42113
C    -1.81623  -1.95954  -2.42250
N    -2.84106  -1.12640  -2.62167
H    -3.48518  -1.41201  1.39416
H    -1.76606  -1.69777  1.50470
H    -0.85277  -2.55373  -0.68002
H    -4.11364  0.06985  -1.36556
H    -1.28795  -2.52921  -3.18165
H    -3.25747  -0.93484  -3.53441
N    -3.80184  0.31988  3.67183
C    -4.20480  0.29822  5.07891
H    -4.55820  0.21267  2.99272
H    -3.38333  0.64368  5.71037
H    -4.47417  -0.73112  5.36623
H    -5.09333  0.93146  5.19725
Hg    0.26280  1.73979  4.19608
