31
Energy: -573019.4279455  eV PBE+vdW (tier 2 basis)
C    -2.15578  0.87244  -0.65818
C    -1.47559  0.04866  0.38838
O    -0.28898  -0.32301  0.10851
H    -3.21306  1.05129  -0.42526
H    -2.06303  0.37906  -1.63479
H    -1.63454  1.84000  -0.73692
N    -2.13770  -0.23277  1.53365
C    -1.54632  -0.80159  2.74504
C    -1.41612  -2.35015  2.67891
O    -0.22739  -2.84774  2.62163
H    -3.09463  0.11096  1.57373
H    -0.49159  -0.48541  2.74091
C    -2.02293  -0.14337  4.08581
C    -3.44387  -0.13619  4.57106
N    -3.89338  -0.92038  5.63379
C    -4.48775  0.71339  4.28477
C    -5.13974  -0.57113  5.97847
N    -5.51278  0.41169  5.15511
H    -1.70417  0.90702  4.00730
H    -1.38247  -0.57112  4.87187
H    -3.34534  -1.60427  6.15433
H    -4.56736  1.53526  3.58217
H    -5.72958  -0.99690  6.78579
H    -6.41468  0.88996  5.20145
N    -2.42116  -3.20491  2.67556
C    -3.86274  -2.99704  2.78569
H    -2.12385  -4.18340  2.58236
H    -4.34583  -3.48152  1.92573
H    -4.11062  -1.93391  2.79097
H    -4.23960  -3.47642  3.69865
Hg    1.04654  -1.74551  1.17453
