31
Energy: -573019.6677831  eV PBE+vdW (tier 2 basis)
C    -1.61286  2.33556  2.34026
C    -0.88265  1.05652  2.61496
O    0.39183  1.14851  2.57347
H    -2.67180  2.18046  2.10044
H    -1.11983  2.87252  1.51870
H    -1.52725  2.98017  3.23022
N    -1.61300  -0.04450  2.87572
C    -1.27222  -1.48037  3.04224
C    -0.49697  -1.77879  4.34871
O    0.79443  -1.83800  4.38639
H    -2.61330  0.14482  2.89142
H    -2.25046  -1.96160  3.15873
C    -0.58474  -2.12685  1.79558
C    -1.49015  -2.44340  0.63890
N    -2.04874  -3.70341  0.42412
C    -1.87123  -1.68885  -0.44405
C    -2.73084  -3.72008  -0.72790
N    -2.63346  -2.49849  -1.25818
H    -0.08727  -3.05140  2.12365
H    0.21660  -1.47762  1.41872
H    -1.92538  -4.53127  1.00523
H    -1.63882  -0.66697  -0.71837
H    -3.25565  -4.57044  -1.15414
H    -3.04824  -2.22479  -2.15048
N    -1.12657  -2.09151  5.46738
C    -2.53805  -2.33702  5.76784
H    -0.48620  -2.26222  6.25336
H    -3.19067  -2.06502  4.93529
H    -2.80720  -1.73684  6.64886
H    -2.67594  -3.39712  6.02454
Hg    1.88762  -0.16299  3.50640
