31
Energy: -573019.0121246  eV PBE+vdW (tier 2 basis)
C    -0.33621  0.30436  0.50156
C    -0.45663  0.19029  1.97859
O    0.46649  0.71214  2.68284
H    -1.30096  0.32358  -0.01438
H    0.28398  -0.52058  0.11234
H    0.21641  1.22773  0.27108
N    -1.54080  -0.34854  2.62860
C    -2.11991  -1.68441  2.42998
C    -1.00241  -2.69091  2.89535
O    0.20946  -2.32094  2.77703
H    -1.54255  -0.07801  3.61617
H    -2.95069  -1.74812  3.14779
C    -2.65818  -2.02341  1.01232
C    -4.00905  -1.47234  0.66466
N    -4.39377  -0.13467  0.70836
C    -5.09634  -2.14577  0.14852
C    -5.64566  0.00457  0.24450
N    -6.07503  -1.21279  -0.09853
H    -2.74187  -3.11583  0.93471
H    -1.91872  -1.74936  0.24667
H    -3.83889  0.65099  1.03930
H    -5.23588  -3.19743  -0.07685
H    -6.20428  0.93306  0.16493
H    -6.99791  -1.40951  -0.49164
N    -1.30510  -3.88094  3.39380
C    -2.59084  -4.55860  3.52702
H    -0.48989  -4.41242  3.72090
H    -2.61119  -5.43589  2.86131
H    -3.42488  -3.89404  3.28787
H    -2.69375  -4.92257  4.55912
Hg    1.53608  -0.78914  4.00769
