31
Energy: -573019.6895082  eV PBE+vdW (tier 2 basis)
C    0.65909  0.29113  -0.26552
C    0.38301  0.44844  1.19493
O    1.26751  1.10366  1.84603
H    0.84713  1.28312  -0.70398
H    -0.16825  -0.19065  -0.80110
H    1.58438  -0.29038  -0.39476
N    -0.74125  -0.09248  1.70742
C    -1.35783  0.14884  3.02497
C    -0.73981  -0.75124  4.13420
O    0.04883  -0.19574  4.99591
H    -1.30303  -0.60206  1.02658
H    -1.08714  1.17190  3.33178
C    -2.89974  0.13725  2.86727
C    -3.71185  0.58910  4.05111
N    -5.08510  0.78639  3.92094
C    -3.42162  0.89961  5.35633
C    -5.60945  1.19684  5.08183
N    -4.60844  1.26850  5.95995
H    -3.24771  -0.85721  2.54973
H    -3.11516  0.81973  2.02834
H    -5.63923  0.65583  3.07468
H    -2.49109  0.89732  5.90984
H    -6.65425  1.42900  5.26939
H    -4.71760  1.55842  6.93274
N    -0.97586  -2.03957  4.28123
C    -1.87672  -2.94976  3.56419
H    -0.45656  -2.46055  5.06009
H    -2.86699  -2.97195  4.03953
H    -1.44612  -3.95577  3.62944
H    -1.95916  -2.68007  2.50794
Hg    1.48703  1.17635  4.01997
