31
Energy: -573019.8774380  eV PBE+vdW (tier 2 basis)
C    -0.33413  -1.99604  0.48361
C    -0.39973  -0.89832  1.49589
O    0.58422  -0.08239  1.48166
H    -0.06066  -1.57261  -0.49389
H    -1.27442  -2.55225  0.39495
H    0.48248  -2.68103  0.76244
N    -1.45853  -0.84751  2.33120
C    -1.90444  0.24021  3.22318
C    -1.25424  0.14180  4.63632
O    -0.17451  0.79517  4.90503
H    -2.09185  -1.64109  2.24555
H    -1.53725  1.18935  2.80281
C    -3.46379  0.31020  3.27688
C    -4.18080  0.78980  2.04717
N    -4.46526  2.13122  1.79020
C    -4.80625  0.08754  1.04582
C    -5.22457  2.24252  0.69281
N    -5.43032  1.00667  0.23097
H    -3.73714  0.96541  4.11781
H    -3.87153  -0.68262  3.52508
H    -4.21129  2.93097  2.36815
H    -4.89540  -0.97823  0.86985
H    -5.60929  3.16466  0.26612
H    -5.99489  0.78639  -0.59148
N    -1.80498  -0.57447  5.59295
C    -1.25731  -0.74903  6.94913
H    -2.72074  -0.98984  5.42470
H    -1.54769  -1.74163  7.30921
H    -1.67689  0.01545  7.61853
H    -0.16867  -0.64806  6.92345
Hg    1.17087  1.11276  3.21788
