31
Energy: -573019.7461015  eV PBE+vdW (tier 2 basis)
C    0.62008  1.37892  0.30335
C    0.39805  0.44540  1.45361
O    1.46791  0.01949  2.01294
H    1.46514  1.02377  -0.30208
H    0.91950  2.35939  0.70902
H    -0.26746  1.49841  -0.32945
N    -0.86971  0.14311  1.78938
C    -1.48150  -0.83996  2.72599
C    -1.32886  -0.45495  4.22194
O    -0.33237  -0.81920  4.95385
H    -1.55311  0.65414  1.23321
H    -2.55439  -0.75132  2.51093
C    -1.08790  -2.33328  2.45616
C    -1.94647  -3.07110  1.46623
N    -1.60665  -3.30623  0.13486
C    -3.13715  -3.73095  1.65866
C    -2.53634  -4.07037  -0.45470
N    -3.47234  -4.32469  0.46247
H    -1.15761  -2.87489  3.41050
H    -0.03620  -2.40764  2.14675
H    -0.75510  -3.01231  -0.33876
H    -3.75067  -3.85004  2.54445
H    -2.52513  -4.42254  -1.48214
H    -4.30083  -4.89875  0.29589
N    -2.32269  0.19553  4.79796
C    -2.36314  0.64051  6.19587
H    -3.17343  0.35230  4.25554
H    -1.34871  0.70766  6.59693
H    -2.94220  -0.07982  6.79331
H    -2.86781  1.61320  6.23180
Hg    1.65711  -0.69476  4.07253
