31
Energy: -573019.3807899  eV PBE+vdW (tier 2 basis)
C    -1.92044  3.46454  0.31249
C    -1.05951  2.61498  1.17225
O    -0.10658  3.18324  1.80875
H    -2.53334  4.13578  0.93500
H    -2.54490  2.87659  -0.36793
H    -1.26906  4.13012  -0.27816
N    -1.21345  1.26763  1.27418
C    -2.46701  0.57604  1.57712
C    -2.59790  0.59662  3.13878
O    -1.56403  0.71648  3.88415
H    -0.40688  0.80706  1.70350
H    -3.29801  1.14397  1.13645
C    -2.45765  -0.89568  1.04845
C    -2.39377  -1.08787  -0.43846
N    -3.51101  -1.27874  -1.25033
C    -1.31062  -1.23958  -1.27184
C    -3.13346  -1.53849  -2.50878
N    -1.79820  -1.50946  -2.53093
H    -3.34673  -1.41175  1.43906
H    -1.60202  -1.42139  1.49864
H    -4.48554  -1.29128  -0.95425
H    -0.24691  -1.21311  -1.06792
H    -3.78979  -1.74434  -3.34951
H    -1.23271  -1.69098  -3.36185
N    -3.78807  0.40536  3.68806
C    -4.08588  0.40062  5.12143
H    -4.57004  0.17611  3.07168
H    -3.29085  0.90903  5.67167
H    -4.16093  -0.63977  5.47720
H    -5.05514  0.88993  5.27805
Hg    0.08042  2.34133  3.87905
