31
Energy: -573019.7901127  eV PBE+vdW (tier 2 basis)
C    1.60490  1.60557  0.93676
C    1.00958  0.48551  1.73157
O    1.86938  -0.24610  2.33961
H    1.95032  2.38468  1.63576
H    0.90170  2.03548  0.21337
H    2.49852  1.24198  0.40963
N    -0.32950  0.35317  1.74577
C    -1.27225  -0.73413  2.15137
C    -1.47673  -0.83465  3.68668
O    -0.74583  -1.57566  4.44686
H    -0.79136  1.09771  1.22561
H    -2.23135  -0.38724  1.74391
C    -0.94846  -2.09311  1.45761
C    -2.08064  -3.07983  1.39489
N    -2.82515  -3.30913  0.23867
C    -2.55540  -3.98158  2.31759
C    -3.70266  -4.29956  0.43896
N    -3.54999  -4.70907  1.70121
H    -0.08980  -2.58849  1.93317
H    -0.61842  -1.85984  0.43568
H    -2.70891  -2.84577  -0.66191
H    -2.25194  -4.18321  3.33795
H    -4.40132  -4.69921  -0.29089
H    -4.08305  -5.46956  2.12627
N    -2.49051  -0.17845  4.21740
C    -2.82551  -0.11010  5.64459
H    -3.13499  0.29897  3.58522
H    -3.68815  -0.76008  5.85111
H    -3.10443  0.92383  5.88263
H    -1.97245  -0.43370  6.24528
Hg    1.41239  -1.47944  4.05669
