31
Energy: -573019.6280402  eV PBE+vdW (tier 2 basis)
C    -3.37150  -1.48035  -1.26275
C    -2.64057  -1.00420  -0.04825
O    -1.74208  -0.12100  -0.26704
H    -2.65237  -1.92943  -1.96336
H    -3.81475  -0.61366  -1.77653
H    -4.16247  -2.20106  -1.02035
N    -2.96882  -1.51862  1.15418
C    -2.56732  -1.02968  2.48404
C    -1.15375  -1.53045  2.88876
O    -0.19285  -0.66800  2.94301
H    -3.70456  -2.22324  1.12088
H    -2.45196  0.06253  2.40950
C    -3.72137  -1.26386  3.51745
C    -3.73091  -0.37810  4.73203
N    -3.33162  -0.77561  6.00736
C    -4.23487  0.89113  4.88940
C    -3.58048  0.19473  6.89660
N    -4.12112  1.21296  6.22306
H    -3.77123  -2.31541  3.82749
H    -4.65715  -1.06731  2.97287
H    -2.96515  -1.68609  6.27679
H    -4.69274  1.56842  4.17742
H    -3.38729  0.15571  7.96481
H    -4.42977  2.08733  6.65185
N    -0.85892  -2.77892  3.20018
C    -1.68679  -3.98512  3.29053
H    0.13520  -2.91745  3.41678
H    -1.86185  -4.25596  4.34095
H    -1.12720  -4.80670  2.82381
H    -2.63579  -3.86892  2.76385
Hg    -0.19295  0.58733  1.11969
