31
Energy: -573019.8714489  eV PBE+vdW (tier 2 basis)
C    -0.64088  -3.83445  1.95958
C    -0.66113  -2.39011  2.34099
O    0.28747  -1.68475  1.85067
H    -1.55870  -4.36217  2.24462
H    0.23507  -4.31168  2.42657
H    -0.49510  -3.91639  0.87167
N    -1.64336  -1.94306  3.15113
C    -2.09633  -0.55693  3.40858
C    -1.36735  0.05602  4.63793
O    -0.30793  0.77030  4.47110
H    -2.25784  -2.68088  3.49507
H    -1.79405  0.05995  2.54704
C    -3.64494  -0.56352  3.45038
C    -4.33733  0.77217  3.42642
N    -5.70894  0.85034  3.19429
C    -3.91949  2.07040  3.58216
C    -6.11136  2.12656  3.20603
N    -5.03261  2.87556  3.43967
H    -4.00413  -1.15182  4.31423
H    -3.96829  -1.12876  2.56120
H    -6.34305  0.06825  3.03036
H    -2.94332  2.49651  3.77716
H    -7.12634  2.48272  3.05180
H    -5.04308  3.89484  3.49885
N    -1.82544  -0.13117  5.85719
C    -1.18143  0.33566  7.09590
H    -2.72133  -0.60538  5.96667
H    -1.33480  -0.42524  7.86918
H    -1.64368  1.27707  7.42378
H    -0.11494  0.49769  6.91864
Hg    0.91164  0.20427  2.72912
