31
Energy: -573019.3083724  eV PBE+vdW (tier 2 basis)
C    -2.46606  3.17717  0.78977
C    -1.43030  2.31041  1.40478
O    -0.58430  2.85722  2.19274
H    -2.97825  2.69152  -0.04690
H    -1.97475  4.09574  0.42808
H    -3.18497  3.51342  1.55385
N    -1.31718  0.98239  1.13346
C    -2.40727  0.00571  1.20946
C    -2.52356  -0.38202  2.71812
O    -1.49992  -0.27916  3.48967
H    -0.42286  0.59009  1.43721
H    -3.33738  0.49123  0.88565
C    -2.11209  -1.25789  0.35375
C    -2.07391  -1.06327  -1.13793
N    -1.09494  -1.65064  -1.93422
C    -2.94572  -0.46487  -2.01710
C    -1.35112  -1.43055  -3.22999
N    -2.47045  -0.70532  -3.28837
H    -2.87112  -2.01968  0.58948
H    -1.15749  -1.69143  0.68967
H    -0.30618  -2.20974  -1.61107
H    -3.86772  0.08036  -1.85598
H    -0.75950  -1.77806  -4.07204
H    -2.91013  -0.39568  -4.15644
N    -3.63319  -0.89231  3.22784
C    -4.86474  -1.32605  2.57269
H    -3.57695  -1.08225  4.23575
H    -4.91912  -2.42564  2.57304
H    -4.93230  -0.94909  1.54915
H    -5.71590  -0.94986  3.15781
Hg    -0.20662  1.56526  3.99006
