31
Energy: -573019.6675323  eV PBE+vdW (tier 2 basis)
 C    1.50409   -0.47234    0.98054
 C    0.90592   -0.82024    2.30955
 O    1.74459   -1.23094    3.18260
 H    0.75497   -0.38596    0.18411
 H    2.25425   -1.22609    0.70557
 H    2.04434    0.48269    1.08380
 N   -0.42384   -0.67207    2.46172
 C   -1.37521   -1.03804    3.54160
 C   -1.20559   -0.18447    4.82190
 O   -0.48424   -0.57590    5.82127
 H   -0.87203   -0.28935    1.63153
 H   -2.35083   -0.76126    3.12496
 C   -1.42704   -2.56760    3.86210
 C   -2.18078   -3.41671    2.87787
 N   -3.51153   -3.79636    3.05311
 C   -1.76983   -4.05492    1.73284
 C   -3.89270   -4.62359    2.07183
 N   -2.84272   -4.78060    1.26211
 H   -1.87652   -2.69074    4.85841
 H   -0.41177   -2.97803    3.94272
 H   -4.11721   -3.55020    3.83467
 H   -0.80661   -4.08181    1.23793
 H   -4.86933   -5.08649    1.96173
 H   -2.84154   -5.37487    0.43147
 N   -1.87807    0.93968    4.99370
 C   -2.92697    1.58990    4.20665
 H   -1.66631    1.40145    5.88745
 H   -3.06730    1.11481    3.23317
 H   -2.63820    2.64031    4.05782
 H   -3.86903    1.57396    4.77308
Hg    1.54905   -1.23922    5.37119
