31
Energy: -573019.6829429  eV PBE+vdW (tier 2 basis)
C    2.79734  -0.37000  2.12686
C    1.62317  -0.75027  2.97427
O    1.93094  -1.18015  4.14104
H    3.23640  0.55635  2.53033
H    2.53338  -0.23034  1.07137
H    3.57147  -1.14617  2.21068
N    0.38956  -0.60888  2.45469
C    -0.96696  -1.07698  2.85889
C    -1.54568  -0.29400  4.06159
O    -1.43612  -0.73014  5.27502
H    0.41157  -0.21311  1.51624
H    -1.58950  -0.81437  1.99545
C    -1.04411  -2.62626  3.01388
C    -2.42634  -3.21557  2.97056
N    -2.91692  -3.91470  1.86908
C    -3.41488  -3.29877  3.92315
C    -4.13435  -4.40437  2.13234
N    -4.44693  -4.02897  3.37568
H    -0.55376  -2.96247  3.93848
H    -0.44574  -3.05399  2.19738
H    -2.42565  -4.09117  0.99341
H    -3.45642  -2.92812  4.94023
H    -4.74807  -5.00064  1.46280
H    -5.31860  -4.27505  3.84775
N    -2.23895  0.81569  3.88809
C    -2.70211  1.50626  2.68234
H    -2.54125  1.24635  4.77069
H    -2.33188  2.54119  2.71638
H    -3.80030  1.53723  2.68363
H    -2.34545  1.02637  1.76840
Hg    0.61815  -1.25894  5.87027
