31
Energy: -573019.2402302  eV PBE+vdW (tier 2 basis)
C    -2.20297  4.30520  0.78774
C    -1.29420  3.14538  0.94848
O    -0.06922  3.37494  1.23813
H    -3.17307  4.02485  0.36247
H    -1.71730  5.03108  0.11232
H    -2.32213  4.83549  1.74564
N    -1.69192  1.85762  0.75736
C    -2.85485  1.23917  1.38911
C    -2.32086  0.59263  2.70848
O    -1.07045  0.38956  2.88423
H    -0.90527  1.20870  0.68029
H    -3.55285  2.03903  1.67641
C    -3.65876  0.28924  0.44263
C    -2.94551  -0.81456  -0.28407
N    -2.74690  -0.79489  -1.66340
C    -2.50858  -2.05473  0.12515
C    -2.22893  -1.95702  -2.07924
N    -2.07230  -2.72462  -0.99634
H    -4.14972  0.93798  -0.29607
H    -4.48382  -0.15224  1.02094
H    -3.01117  -0.04349  -2.30006
H    -2.50741  -2.52450  1.10143
H    -1.99020  -2.22762  -3.10409
H    -1.71187  -3.68011  -1.01682
N    -3.19913  0.22972  3.63342
C    -2.89202  -0.30451  4.95987
H    -4.19351  0.30399  3.40538
H    -1.82647  -0.19713  5.17148
H    -3.17023  -1.36949  5.00098
H    -3.50167  0.22979  5.70176
Hg    0.71527  1.91354  2.74839
