31
Energy: -573019.3871742  eV PBE+vdW (tier 2 basis)
C    -1.68611  3.54828  0.69164
C    -1.00184  2.53149  1.52957
O    -0.06219  2.92340  2.30014
H    -2.37381  3.10987  -0.03928
H    -0.91226  4.12385  0.15541
H    -2.20681  4.28174  1.32601
N    -1.30070  1.20351  1.47336
C    -2.65300  0.64683  1.60325
C    -2.98511  0.70037  3.13305
O    -2.04272  0.61658  3.99166
H    -0.59701  0.62075  1.93431
H    -3.35538  1.28322  1.04683
C    -2.73183  -0.81826  1.11213
C    -2.52940  -1.05943  -0.35695
N    -2.75654  -2.31758  -0.90695
C    -2.12844  -0.26968  -1.41009
C    -2.51126  -2.30365  -2.22304
N    -2.13039  -1.06330  -2.53766
H    -3.72180  -1.21200  1.39366
H    -2.00668  -1.42242  1.68538
H    -3.06384  -3.15139  -0.40624
H    -1.84029  0.77180  -1.45595
H    -2.60672  -3.14431  -2.90491
H    -1.88082  -0.76102  -3.48050
N    -4.25312  0.75849  3.51359
C    -4.73959  0.83083  4.89149
H    -4.97344  0.69821  2.79036
H    -5.52763  1.59346  4.94762
H    -3.91511  1.05925  5.56987
H    -5.18221  -0.13898  5.17090
Hg    -0.20695  2.00011  4.35035
