31
Energy: -573019.8183095  eV PBE+vdW (tier 2 basis)
C    0.43691  -0.15002  0.61356
C    -0.12966  -0.00981  1.98300
O    0.42233  -0.43704  3.02725
H    1.52114  0.02065  0.65354
H    0.00504  0.53851  -0.11983
H    0.29641  -1.18585  0.26521
N    -1.35935  0.58219  2.20425
C    -2.46715  0.68723  1.28605
C    -3.05013  2.15420  1.20973
O    -4.18800  2.27018  0.74572
H    -1.58918  0.62807  3.20267
H    -2.10744  0.46460  0.27195
C    -3.63051  -0.30132  1.67422
C    -4.93515  -0.10419  0.98513
N    -5.22288  -0.44310  -0.33168
C    -6.15386  0.30416  1.52728
C    -6.51854  -0.23580  -0.59328
N    -7.08681  0.21925  0.53632
H    -3.81752  -0.22071  2.75398
H    -3.26342  -1.32362  1.49441
H    -4.57247  -0.81416  -1.02269
H    -6.39712  0.64257  2.52887
H    -7.02290  -0.41462  -1.53965
H    -8.07857  0.45183  0.62892
N    -2.27661  3.16811  1.59878
C    -2.65654  4.57750  1.46493
H    -1.31547  2.95380  1.85845
H    -2.14262  5.14715  2.24751
H    -3.74262  4.67198  1.56641
H    -2.35244  4.97093  0.48368
Hg    2.74669  -0.74366  3.57975
