31
Energy: -573019.7006204  eV PBE+vdW (tier 2 basis)
C    -0.39788  1.36541  0.27345
C    -0.27712  0.96169  1.70806
O    0.73068  1.44280  2.32785
H    -1.36390  1.08906  -0.16559
H    0.41909  0.89249  -0.29406
H    -0.24912  2.45120  0.18653
N    -1.21096  0.14061  2.23198
C    -1.41700  -0.23420  3.63914
C    -0.47855  -1.39154  4.09625
O    0.52378  -1.10171  4.86162
H    -1.90611  -0.18624  1.56329
H    -1.09690  0.61953  4.25526
C    -2.92712  -0.48466  3.95904
C    -3.78625  0.73080  4.16276
N    -4.04097  1.29508  5.41291
C    -4.56636  1.43770  3.28008
C    -4.93036  2.28966  5.30127
N    -5.24871  2.38757  4.00824
H    -2.97891  -1.10853  4.86385
H    -3.38211  -1.09150  3.16476
H    -3.67706  0.97781  6.31016
H    -4.72218  1.32234  2.21397
H    -5.32609  2.89471  6.11214
H    -5.92343  3.05524  3.63088
N    -0.64733  -2.66578  3.80286
C    -1.72581  -3.36771  3.09824
H    0.08235  -3.27075  4.19776
H    -1.29322  -4.27188  2.65442
H    -2.14295  -2.75307  2.29572
H    -2.51411  -3.67511  3.79956
Hg    1.60562  0.68999  4.20259
