31
Energy: -573019.0691407  eV PBE+vdW (tier 2 basis)
C    -0.32367  0.64592  0.05557
C    0.13506  -0.10187  1.25592
O    1.40399  -0.23343  1.38592
H    -1.26406  1.17791  0.22765
H    -0.40211  -0.03533  -0.80863
H    0.46311  1.36671  -0.21753
N    -0.66686  -0.56104  2.25861
C    -1.85146  -1.43702  2.28384
C    -1.32451  -2.83778  2.72563
O    -0.19351  -3.29581  2.33157
H    -0.17243  -0.57305  3.15437
H    -2.51741  -1.04510  3.06700
C    -2.62790  -1.49464  0.93762
C    -4.03209  -2.03303  1.01449
N    -4.51348  -3.01810  0.15539
C    -5.12833  -1.60714  1.72977
C    -5.83153  -3.18445  0.32725
N    -6.21010  -2.33758  1.28778
H    -2.05144  -2.06563  0.19606
H    -2.69967  -0.46693  0.55674
H    -3.97755  -3.52221  -0.55007
H    -5.23863  -0.82759  2.47545
H    -6.47025  -3.87665  -0.21437
H    -7.17103  -2.23559  1.61978
N    -2.10899  -3.58944  3.48109
C    -1.79189  -4.92780  3.98877
H    -3.03193  -3.22164  3.71417
H    -0.71588  -5.10435  3.91919
H    -2.32046  -5.68918  3.39661
H    -2.13331  -4.99333  5.02912
Hg    1.80930  -2.20859  2.31703
