31
Energy: -573019.3208596  eV PBE+vdW (tier 2 basis)
C    -2.49974  3.04487  1.38992
C    -1.42162  2.07204  1.69868
O    -0.43887  2.46956  2.41032
H    -3.22042  2.67049  0.65537
H    -2.02773  3.96039  0.99434
H    -3.01101  3.35738  2.31328
N    -1.41392  0.79662  1.21960
C    -2.53573  -0.14455  1.33033
C    -2.51817  -0.64041  2.81034
O    -1.40106  -0.69678  3.44123
H    -0.50700  0.33686  1.33333
H    -3.47112  0.39165  1.12190
C    -2.36908  -1.35844  0.38654
C    -2.42945  -1.08770  -1.09044
N    -2.39467  -2.13709  -2.00438
C    -2.51989  0.05418  -1.85132
C    -2.46172  -1.66843  -3.25675
N    -2.53887  -0.33844  -3.17367
H    -3.15301  -2.09007  0.63900
H    -1.41577  -1.86102  0.62668
H    -2.32686  -3.13065  -1.78398
H    -2.56779  1.09894  -1.57535
H    -2.45563  -2.26140  -4.16724
H    -2.60370  0.28443  -3.98011
N    -3.61092  -1.07302  3.41920
C    -4.95065  -1.32714  2.89511
H    -3.46180  -1.33853  4.40027
H    -5.68209  -0.86787  3.57542
H    -5.14186  -2.41107  2.88315
H    -5.07719  -0.91693  1.89003
Hg    0.09835  0.97512  4.01120
