31
Energy: -573019.0919703  eV PBE+vdW (tier 2 basis)
C    -0.85665  1.05873  1.00263
C    -0.41121  0.12968  2.07430
O    0.82678  0.20535  2.40184
H    -0.20511  1.94610  1.02773
H    -1.89886  1.36812  1.12407
H    -0.69043  0.60414  0.01150
N    -1.21686  -0.70392  2.78909
C    -2.16513  -1.75961  2.38558
C    -1.35231  -3.08704  2.46946
O    -0.12345  -3.13501  2.11235
H    -0.82421  -0.89287  3.71486
H    -2.95786  -1.77417  3.14873
C    -2.80664  -1.53510  0.98278
C    -4.00147  -2.37699  0.64126
N    -5.30950  -2.05443  1.00733
C    -4.11528  -3.46891  -0.18628
C    -6.17446  -2.89849  0.43082
N    -5.45728  -3.76434  -0.29059
H    -2.05206  -1.68537  0.19924
H    -3.11388  -0.48203  0.92679
H    -5.60677  -1.26279  1.57656
H    -3.36352  -4.02432  -0.73547
H    -7.25664  -2.87732  0.52687
H    -5.86016  -4.51214  -0.85813
N    -1.97513  -4.18691  2.86537
C    -1.37115  -5.51306  3.01812
H    -2.97237  -4.11886  3.07092
H    -0.28351  -5.43424  2.96070
H    -1.72799  -6.17904  2.21876
H    -1.68563  -5.93079  3.98338
Hg    1.62418  -1.82539  2.82097
