31
Energy: -573019.3030780  eV PBE+vdW (tier 2 basis)
C    0.36077  -0.84786  0.29544
C    0.24903  0.01602  1.49504
O    1.33591  0.37445  2.07315
H    1.00462  -1.70630  0.55833
H    0.89154  -0.32144  -0.51228
H    -0.60879  -1.23099  -0.03922
N    -0.93798  0.39420  2.03712
C    -2.07123  1.00671  1.34090
C    -1.75017  2.53006  1.24153
O    -0.98181  3.11707  2.08362
H    -0.86233  0.68572  3.01515
H    -2.13351  0.58359  0.32869
C    -3.37344  0.69773  2.15824
C    -4.71079  0.92876  1.52083
N    -5.38524  -0.03301  0.76614
C    -5.60144  1.96636  1.66251
C    -6.61947  0.39072  0.46801
N    -6.75664  1.60743  1.00171
H    -3.34579  1.27177  3.09622
H    -3.30180  -0.36088  2.45080
H    -5.04647  -0.96263  0.52239
H    -5.52569  2.89634  2.21428
H    -7.37029  -0.15618  -0.09559
H    -7.61089  2.16499  0.94929
N    -2.34763  3.24352  0.30025
C    -2.14778  4.67440  0.04890
H    -3.04677  2.77364  -0.27595
H    -2.94600  5.25732  0.53210
H    -2.19031  4.84557  -1.03292
H    -1.18408  4.99112  0.45589
Hg    1.10246  2.46380  2.80044
