31
Energy: -573019.7562626  eV PBE+vdW (tier 2 basis)
C    0.90743  0.86284  0.45872
C    0.53306  -0.03754  1.59375
O    1.50873  -0.69166  2.10302
H    1.58457  0.32632  -0.22153
H    1.48333  1.71154  0.86156
H    0.04095  1.23330  -0.10140
N    -0.75943  -0.08150  1.97252
C    -1.55352  -0.98536  2.85495
C    -1.35012  -0.72289  4.37195
O    -0.40804  -1.25838  5.07140
H    -1.32825  0.60573  1.48180
H    -2.59040  -0.68695  2.64786
C    -1.43789  -2.49641  2.51616
C    -2.24454  -2.96799  1.33445
N    -2.54205  -4.31923  1.16969
C    -2.81069  -2.33847  0.25397
C    -3.25402  -4.50824  0.05208
N    -3.42411  -3.31106  -0.51020
H    -1.77345  -3.05457  3.40426
H    -0.38505  -2.78211  2.36134
H    -2.27789  -5.08001  1.79483
H    -2.83557  -1.29900  -0.04599
H    -3.62628  -5.45813  -0.32146
H    -3.93766  -3.15127  -1.37808
N    -2.24860  0.01364  4.99675
C    -2.23051  0.36385  6.42242
H    -3.07347  0.31344  4.47508
H    -2.62138  1.38232  6.52955
H    -1.21215  0.29050  6.81265
H    -2.88311  -0.32641  6.97781
Hg    1.55810  -1.42328  4.15508
