31
Energy: -573019.8624472  eV PBE+vdW (tier 2 basis)
C    -1.82379  -2.86203  1.41922
C    -1.40682  -1.58204  2.06997
O    -0.45963  -0.95299  1.48614
H    -2.80166  -3.21725  1.76456
H    -1.05443  -3.62275  1.63188
H    -1.83632  -2.73401  0.32796
N    -2.03977  -1.19388  3.19583
C    -1.98746  0.09902  3.90862
C    -0.80246  0.16190  4.92163
O    0.31712  0.69967  4.57846
H    -2.72356  -1.86615  3.54159
H    -1.76653  0.88709  3.17118
C    -3.34837  0.43270  4.56516
C    -4.47696  0.80266  3.63791
N    -5.73138  1.12754  4.14980
C    -4.58516  0.96290  2.27980
C    -6.56361  1.47229  3.15990
N    -5.87785  1.37495  2.02037
H    -3.17881  1.28229  5.24665
H    -3.67519  -0.41078  5.19924
H    -6.00605  1.12598  5.13192
H    -3.87047  0.83121  1.47792
H    -7.60175  1.77432  3.26802
H    -6.26416  1.58235  1.09843
N    -0.92575  -0.29747  6.14879
C    0.13774  -0.29975  7.16804
H    -1.84361  -0.61234  6.46108
H    0.06961  0.61492  7.77426
H    1.11611  -0.33690  6.68098
H    -0.00965  -1.17202  7.81347
Hg    0.85961  0.49958  2.47221
