31
Energy: -573019.6307335  eV PBE+vdW (tier 2 basis)
C    2.14540  -0.96968  1.72538
C    1.17951  -1.09068  2.86400
O    1.70320  -1.42220  3.98213
H    2.88924  -1.77546  1.78514
H    2.69918  -0.02361  1.84235
H    1.65498  -0.98802  0.74451
N    -0.12273  -0.85058  2.61779
C    -1.35386  -0.99442  3.43680
C    -1.44704  0.05765  4.56897
O    -1.05971  -0.19237  5.77734
H    -0.29479  -0.55533  1.65852
H    -2.15845  -0.74926  2.73419
C    -1.63111  -2.44813  3.95671
C    -2.50555  -3.30408  3.08417
N    -2.04280  -4.23289  2.15317
C    -3.87413  -3.43417  3.07691
C    -3.07119  -4.89698  1.60810
N    -4.18620  -4.41151  2.15864
H    -2.13252  -2.36910  4.93145
H    -0.68558  -2.97459  4.14716
H    -1.07196  -4.44887  1.93732
H    -4.63923  -2.93859  3.66362
H    -3.00777  -5.68654  0.86492
H    -5.12753  -4.74267  1.94013
N    -2.01935  1.23161  4.37191
C    -2.75156  1.79094  3.23486
H    -1.99993  1.83317  5.20525
H    -2.72004  1.13639  2.36108
H    -2.29846  2.75998  2.98003
H    -3.79486  1.97082  3.53017
Hg    0.93386  -1.05782  6.01029
