18
Energy: -603545.72823 eV PBE+vdW (tier 2 basis)
N    -0.295423  0.487539  0.237938
C    0.011810  -0.274631  1.505066
C    1.473289  -0.126011  1.966932
O    1.964184  -0.877410  2.766395
H    -0.232353  1.503298  0.382476
H    -1.291653  0.184979  -0.008250
H    -0.615004  0.192000  2.280587
C    -0.368016  -1.757695  1.374466
C    -1.807635  -1.989827  0.971155
O    -2.300476  -3.217236  1.288599
N    -2.461278  -1.089257  0.351158
H    -0.155841  -2.227244  2.343127
H    0.285794  -2.269577  0.647984
H    0.346872  0.248879  -0.528814
H    -3.425576  -1.320315  0.096131
O    2.052365  0.939478  1.382063
H    2.965386  1.041800  1.726243
Pb    -3.097443  -5.057770  1.791743
