18
Energy: -603546.629678 eV PBE+vdW (tier 2 basis)
N    -0.696192  -1.477310  0.760338
C    -0.157337  -0.881226  2.028269
C    0.550512  0.486064  1.799669
O    1.383365  0.909359  2.553939
H    0.085401  -1.689216  0.124786
H    -1.229570  -0.747287  0.266653
H    -1.026038  -0.644545  2.664907
C    0.792462  -1.826527  2.776395
C    0.118751  -2.952676  3.513343
O    -0.895892  -3.584418  3.025473
N    0.583174  -3.331737  4.682520
H    1.384698  -1.208111  3.465313
H    1.525175  -2.273912  2.080872
H    1.367611  -2.860361  5.129189
H    0.166310  -4.124158  5.172771
O    0.052657  1.088482  0.706379
H    0.463788  1.973705  0.602421
Pb    -2.065878  -3.497127  1.148764
