18
Energy: -603545.816491 eV PBE+vdW (tier 2 basis)
N    4.339637  1.675884  -0.484077
C    4.257329  1.714458  0.960690
C    4.920628  0.484326  1.548115
O    5.736906  -0.217373  1.056614
H    1.946113  1.059817  -0.882455
H    4.523445  2.600894  -0.874309
H    4.832158  2.548071  1.417430
C    2.778169  1.944527  1.412053
C    1.911931  0.756685  1.114494
O    1.536809  -0.044265  2.065433
N    1.567995  0.491859  -0.121525
H    2.420807  2.825536  0.863188
H    2.715479  2.193633  2.478265
H    5.071904  1.046996  -0.817673
H    1.012730  -0.332804  -0.352049
O    4.530605  0.214227  2.957215
H    5.305741  -0.284999  3.302569
Pb    2.436614  -0.593471  3.974021
