18
Energy: -603546.701588 eV PBE+vdW (tier 2 basis)
N    -1.239263  -1.110320  1.259400
C    0.013027  -0.829343  2.034672
C    0.715222  0.357103  1.317858
O    0.108578  1.021601  0.510336
H    -0.992349  -1.633070  0.406802
H    -1.545989  -0.189154  0.888656
H    -0.280775  -0.432114  3.021683
C    0.887200  -2.071089  2.228538
C    0.317299  -3.111536  3.170346
O    -0.944739  -3.238288  3.387438
N    1.141100  -3.934897  3.781921
H    1.871807  -1.748248  2.593381
H    1.080577  -2.566982  1.260310
H    2.151077  -3.874210  3.669318
H    0.778254  -4.669490  4.390284
O    1.960724  0.528166  1.749131
H    2.356088  1.319607  1.322713
Pb    -2.834838  -2.360738  2.597212
