18
Energy: -603547.284037 eV PBE+vdW (tier 2 basis)
N    0.977476  -1.978342  -3.307172
C    0.895331  -2.329647  -1.831811
C    2.315317  -2.313582  -1.267233
O    2.463780  -2.013200  -0.049850
H    1.813015  -2.447114  -3.706832
H    1.097215  -0.962571  -3.444889
H    0.257126  -1.589176  -1.337356
C    0.339831  -3.774432  -1.677581
C    0.701590  -4.498308  -0.369838
O    1.896617  -4.773735  -0.063609
N    -0.300723  -4.909087  0.391783
H    0.768420  -4.409334  -2.470089
H    -0.748738  -3.756954  -1.813872
H    -1.275612  -4.746582  0.157362
H    -0.105177  -5.457586  1.228610
O    3.221178  -2.831454  -1.995568
H    0.141766  -2.264965  -3.838585
Pb    4.027592  -3.797933  0.089531
