18
Energy: -603547.38833 eV PBE+vdW (tier 2 basis)
N    1.560345  -0.711757  0.416905
C    0.618202  -0.557561  1.558313
C    0.904803  -1.682042  2.572126
O    1.380261  -2.768383  2.210292
H    2.489839  -0.361798  0.676610
H    1.257071  -0.134935  -0.374931
H    0.782614  0.412225  2.055497
C    -0.862118  -0.575096  1.102027
C    -1.376790  -1.823046  0.388622
O    -0.617681  -2.702382  -0.122728
N    -2.687620  -1.950370  0.274466
H    -1.018665  0.281095  0.424144
H    -1.501611  -0.369620  1.972605
H    -3.343594  -1.273292  0.655487
H    -3.075100  -2.744016  -0.235515
O    0.611175  -1.525546  3.836173
H    0.320359  -0.624725  4.084413
Pb    1.620510  -3.184750  -0.095508
