18
Energy: -603546.746728 eV PBE+vdW (tier 2 basis)
N    0.438431  -0.832909  -0.356713
C    0.025304  -0.246573  0.961750
C    1.355544  0.163432  1.654021
O    2.417751  -0.204862  1.199473
H    0.388052  -0.091091  -1.066776
H    1.469934  -0.986081  -0.227918
H    -0.580333  0.652205  0.784391
C    -0.742099  -1.217813  1.891405
C    -2.086040  -1.652692  1.365509
O    -2.187890  -2.314141  0.266157
N    -3.181844  -1.375649  2.037640
H    -0.849315  -0.727116  2.866750
H    -0.142515  -2.127489  2.066066
H    -3.162027  -0.874745  2.923275
H    -4.090279  -1.691061  1.694368
O    1.141494  0.897557  2.735276
H    1.995330  1.144173  3.153663
Pb    -0.673644  -2.799874  -1.283292
