18
Energy: -603546.877298 eV PBE+vdW (tier 2 basis)
N    0.730329  -1.884168  -2.969007
C    1.219634  -2.574552  -1.772523
C    2.767265  -2.471870  -1.873173
O    3.582390  -3.013242  -1.074934
H    0.045144  -1.153486  -2.778196
H    0.367259  -2.500587  -3.697560
H    0.938007  -1.982182  -0.887296
C    0.693854  -4.033922  -1.611790
C    0.560608  -4.527387  -0.186441
O    1.549981  -4.591021  0.622406
N    -0.624109  -4.924838  0.236826
H    1.342428  -4.744042  -2.149189
H    -0.288526  -4.086682  -2.096445
H    -1.450369  -4.907840  -0.355455
H    -0.731586  -5.293134  1.182259
O    3.176732  -1.756195  -2.844994
H    2.250804  -1.482612  -3.291062
Pb    3.763245  -4.246264  0.774239
