18
Energy: -603546.605435 eV PBE+vdW (tier 2 basis)
N    -0.157617  1.097858  0.744791
C    -0.557818  -0.172606  1.252148
C    0.400702  -0.901263  2.213129
O    0.093762  -1.941496  2.859342
H    -0.184230  1.850887  1.429109
H    -3.006372  -0.943051  -1.534418
H    -1.467326  -0.015815  1.858862
C    -0.917288  -1.143495  0.059549
C    -2.275878  -1.770501  0.186529
O    -2.584815  -2.531857  1.180518
N    -3.188536  -1.543479  -0.733234
H    -0.183667  -1.957538  -0.047357
H    -0.857015  -0.537600  -0.851266
H    0.736309  1.108236  0.255480
H    -4.110071  -1.976494  -0.666395
O    1.573657  -0.358347  2.340004
H    2.145575  -0.847690  2.974309
Pb    -1.685371  -3.385750  3.019897
