18
Energy: -603546.617235 eV PBE+vdW (tier 2 basis)
N    0.618724  -0.056806  0.149897
C    -0.027228  0.030222  1.447167
C    0.946653  0.203104  2.599367
O    0.804298  -0.292214  3.745639
H    0.088641  0.447225  -0.562088
H    1.565807  0.320496  0.140828
H    -0.654591  0.944095  1.545395
C    -1.014861  -1.159140  1.648569
C    -0.327205  -2.492561  1.768382
O    -0.187778  -3.068393  2.917344
N    0.159259  -3.072434  0.695573
H    -1.682912  -1.157537  0.777154
H    -1.654885  -1.000765  2.525479
H    0.115639  -2.603377  -0.208572
H    0.643341  -3.968226  0.757903
O    1.954362  0.985958  2.319871
H    2.529681  1.148236  3.100450
Pb    0.082056  -2.163882  4.913641
