18
Energy: -603547.679059 eV PBE+vdW (tier 2 basis)
N    -1.238176  -0.502080  0.687654
C    -0.156218  -0.055258  1.608854
C    1.130524  0.110374  0.792511
O    1.338527  -0.499292  -0.270132
H    -1.587801  0.294940  0.143028
H    -2.042106  -0.842533  1.225665
H    -0.393500  0.928410  2.041349
C    0.044225  -1.022713  2.797487
C    0.429758  -2.462021  2.477196
O    0.353623  -2.966588  1.312542
N    0.836277  -3.215370  3.484016
H    -0.890352  -1.046460  3.382804
H    0.794983  -0.585920  3.472073
H    0.916149  -2.864068  4.435030
H    1.066681  -4.195527  3.323273
O    1.980274  0.939061  1.335098
H    2.807466  1.017279  0.806978
Pb    -0.197335  -2.244233  -0.787426
