20
Energy: -30969.83228 eV PBE+vdW (tier 2 basis)
C    -0.793238  0.474683  -0.048125
C    -0.516942  -0.357500  1.155838
O    -0.107537  -1.558367  1.036905
H    0.149156  0.601762  -0.602255
H    -1.200457  1.462798  0.189134
H    -1.484129  -0.055823  -0.716283
N    -0.690909  0.178303  2.370592
C    -0.287489  -0.430292  3.641375
C    -1.211763  -1.552012  4.129089
O    -1.211414  -2.674311  3.522422
H    -1.016716  1.141241  2.406083
H    0.722050  -0.855487  3.536886
H    -0.219786  0.375412  4.380940
N    -1.957093  -1.328460  5.193442
C    -2.860976  -2.289607  5.829978
H    -1.893778  -0.409034  5.627098
H    -2.580100  -2.402615  6.883824
H    -2.786621  -3.252015  5.320258
H    -3.890277  -1.914860  5.772073
Ca    -0.390627  -3.526183  1.744967
