20
Energy: -30968.2302571 eV PBE+vdW (tier 2 basis)
C    -1.232906  -0.228392  -0.415108
C    -0.770745  0.485814  0.804880
O    0.006929  1.542826  0.653893
H    -1.788352  0.466941  -1.060461
H    -1.872696  -1.084784  -0.186519
H    -0.362447  -0.579151  -0.987754
N    -1.083920  0.134979  2.015144
C    -1.903814  -0.959224  2.516423
C    -1.817636  -0.749669  4.057637
O    -1.136198  0.210851  4.456583
H    -0.754527  0.642066  2.897000
H    -2.941366  -0.880757  2.162860
H    -1.494306  -1.936594  2.225447
N    -2.478098  -1.612771  4.824623
C    -2.499857  -1.557069  6.287742
H    -3.001329  -2.358653  4.374394
H    -1.894203  -0.708200  6.613896
H    -2.086010  -2.483589  6.702439
H    -3.529760  -1.429833  6.641039
Ca    1.173241  3.128210  0.426843
