20
Energy: -30969.7418353 eV PBE+vdW (tier 2 basis)
C    -0.099141  3.798432  1.790936
C    -0.424301  2.344773  1.786273
O    0.488158  1.473682  1.960721
H    0.433700  4.055845  2.715788
H    -0.978052  4.442407  1.684796
H    0.593105  3.999785  0.959548
N    -1.692342  1.963523  1.581186
C    -2.145255  0.586905  1.365209
C    -2.206607  -0.257829  2.641111
O    -1.108818  -0.681903  3.144347
H    -2.377166  2.701957  1.439373
H    -3.112873  0.633249  0.858260
H    -1.450417  0.078276  0.681145
N    -3.353432  -0.581617  3.204759
C    -4.729654  -0.236987  2.833968
H    -3.256670  -1.192239  4.019893
H    -5.268997  0.061407  3.740032
H    -5.226554  -1.111356  2.394964
H    -4.755371  0.594181  2.125797
Ca    0.982688  -0.321492  2.961893
