20
Energy: -30968.2190886 eV PBE+vdW (tier 2 basis)
C    0.050112  -0.346721  0.035580
C    -0.460960  0.559294  1.102630
O    -0.427126  1.864660  0.921119
H    -0.744728  -1.030818  -0.296433
H    0.866798  -0.972041  0.425405
H    0.415187  0.218280  -0.825555
N    -0.946193  0.111247  2.221913
C    -1.105516  -1.256820  2.688381
C    -1.743391  -1.048671  4.092888
O    -1.948146  0.123214  4.452973
H    -1.324820  0.715437  3.016570
H    -1.769392  -1.833743  2.028300
H    -0.137810  -1.774157  2.760296
N    -2.025645  -2.131535  4.810725
C    -2.628163  -2.060697  6.146026
H    -1.818540  -3.047018  4.424188
H    -2.758052  -3.079160  6.520226
H    -3.603674  -1.563150  6.097570
H    -1.976973  -1.502155  6.828299
Ca    -0.375845  3.828161  0.649113
