20
Energy: -30968.1741907 eV PBE+vdW (tier 2 basis)
C    -1.757532  0.417359  -0.111224
C    -1.001273  0.829577  1.115242
O    -0.093938  1.797828  0.916579
H    -2.489032  -0.373000  0.078444
H    -1.055967  0.061841  -0.878552
H    -2.286539  1.284453  -0.530422
N    -1.130200  0.362855  2.305257
C    -2.075750  -0.683331  2.643173
C    -1.883250  -0.904317  4.140158
O    -0.986385  -0.157179  4.697497
H    -0.659354  0.397527  3.882861
H    -3.125182  -0.400472  2.456869
H    -1.883241  -1.632211  2.115305
N    -2.566747  -1.780674  4.826111
C    -2.432187  -2.042299  6.265325
H    -3.255139  -2.331903  4.316019
H    -3.394923  -1.857851  6.755556
H    -1.670234  -1.382551  6.685350
H    -2.141713  -3.088462  6.415209
Ca    1.213587  3.203812  0.569242
