20
Energy: -30968.118046 eV PBE+vdW (tier 2 basis)
C    -0.305576  2.005796  0.610123
C    -0.268632  1.351177  1.960858
O    0.899177  1.396566  2.613499
H    -0.519883  1.261005  -0.170497
H    0.643695  2.491536  0.370250
H    -1.103647  2.760374  0.564675
N    -1.256091  0.754373  2.530115
C    -2.553322  0.656330  1.892670
C    -3.414017  -0.108846  2.882480
O    -2.821282  -0.463905  3.977968
H    -1.870607  -0.085823  3.824957
H    -3.022776  1.635513  1.690811
H    -2.533847  0.108606  0.933833
N    -4.670669  -0.409784  2.685209
C    -5.463100  -0.060249  1.498889
H    -5.133052  -0.922536  3.436923
H    -4.983514  -0.433896  0.586537
H    -5.606034  1.025337  1.432275
H    -6.441964  -0.536291  1.594538
Ca    2.603143  1.464714  3.564887
