20
Energy: -30968.0856082 eV PBE+vdW (tier 2 basis)
C    0.205029  -0.408454  0.164030
C    -0.023941  0.371256  1.414340
O    1.011060  0.937184  2.006240
H    0.649139  0.240469  -0.604210
H    -0.724479  -0.830880  -0.230384
H    0.908523  -1.230113  0.359883
N    -1.219776  0.486416  1.903570
C    -1.718767  1.173431  3.081992
C    -3.247302  0.861487  3.009967
O    -3.630494  0.167237  2.057355
H    -2.088664  0.043881  1.460186
H    -1.273907  0.769878  4.002702
H    -1.530121  2.255113  3.028068
N    -4.030861  1.351721  3.967066
C    -5.479989  1.120172  3.991050
H    -3.622157  1.922660  4.699300
H    -5.875541  1.502186  4.935521
H    -5.688908  0.047554  3.914088
H    -5.965723  1.637607  3.155035
Ca    2.817344  1.583842  2.524559
