20
Energy: -30969.8325511 eV PBE+vdW (tier 2 basis)
C    -0.742815  2.043039  1.755990
C    -0.650544  0.831090  0.895137
O    0.041972  0.844002  -0.174484
H    -1.224742  2.842936  1.173577
H    0.265137  2.398060  2.007411
H    -1.313701  1.881750  2.676075
N    -1.318578  -0.272977  1.252563
C    -1.488909  -1.475093  0.431598
C    -0.253496  -2.380707  0.368134
O    0.769909  -2.001426  -0.292453
H    -1.857102  -0.225864  2.114217
H    -2.356280  -2.017166  0.824682
H    -1.735528  -1.179667  -0.599327
N    -0.305022  -3.550504  0.974172
C    0.752500  -4.564231  0.981996
H    -1.161344  -3.784020  1.473751
H    1.578013  -4.234010  0.348644
H    0.345857  -5.509158  0.602651
H    1.106728  -4.713605  2.009414
Ca    1.464945  -0.245447  -1.288747
