20
Energy: -30969.0869468 eV PBE+vdW (tier 2 basis)
C    0.498391  1.609555  1.052132
C    -0.698838  1.474059  1.923869
O    -0.602987  1.589655  3.189132
H    1.262170  0.860335  1.302772
H    0.273329  1.578753  -0.017231
H    0.948363  2.588400  1.284422
N    -1.927592  1.247084  1.391317
C    -2.169026  0.177682  0.440719
C    -2.089758  -1.180498  1.172189
O    -1.713480  -1.218485  2.396547
H    -2.693503  1.411956  2.046372
H    -3.154119  0.308605  -0.026747
H    -1.430029  0.198096  -0.372725
N    -2.409153  -2.278145  0.521053
C    -2.864651  -2.377556  -0.874708
H    -2.344628  -3.145724  1.054928
H    -2.905876  -3.436753  -1.141073
H    -2.163332  -1.878264  -1.553369
H    -3.868598  -1.948992  -0.988552
Ca    -1.036220  -0.262633  4.205068
