20
Energy: -30969.0877448 eV PBE+vdW (tier 2 basis)
C    -0.519233  3.168629  1.829894
C    -0.235123  1.724541  1.617182
O    0.860265  1.208222  2.013431
H    0.314694  3.724572  1.371380
H    -0.501500  3.426599  2.897849
H    -1.452201  3.508658  1.372651
N    -1.125521  0.925552  0.973827
C    -2.523767  0.865616  1.357193
C    -2.648615  0.134939  2.712389
O    -1.589258  -0.182614  3.359667
H    -0.730527  0.032858  0.673875
H    -2.952635  1.873864  1.445116
H    -3.101830  0.345022  0.582032
N    -3.845494  -0.147008  3.180127
C    -5.137269  0.148300  2.540184
H    -3.868312  -0.635486  4.076093
H    -5.212799  1.210350  2.279348
H    -5.929307  -0.087201  3.255580
H    -5.279265  -0.470503  1.644969
Ca    0.552699  -0.233911  3.587212
