20
Energy: -30967.9778988 eV PBE+vdW (tier 2 basis)
C    0.397916  -0.075925  -0.028405
C    -0.032842  0.119248  1.391817
O    0.870010  -0.230557  2.331373
H    -0.388238  0.229692  -0.723803
H    0.635358  -1.133616  -0.213594
H    1.299523  0.517544  -0.238928
N    -1.194203  0.591505  1.656943
C    -1.717068  0.822367  2.983430
C    -3.117804  1.382473  2.733260
O    -3.449915  1.497653  1.489552
H    -2.598654  1.147651  1.010737
H    -1.794322  -0.097324  3.587222
H    -1.129308  1.554672  3.561896
N    -3.967459  1.738132  3.661841
C    -3.782814  1.686093  5.111832
H    -4.863362  2.094013  3.321614
H    -3.873430  2.696437  5.527920
H    -2.797768  1.283723  5.360742
H    -4.554077  1.044838  5.554494
Ca    2.563458  -0.902617  3.071055
