20
Energy: -30968.005529 eV PBE+vdW (tier 2 basis)
C    0.287140  0.039949  0.102514
C    -0.049662  0.392296  1.511979
O    0.911193  0.369609  2.416540
H    1.055510  0.726531  -0.280457
H    -0.587760  0.094430  -0.552861
H    0.694141  -0.980351  0.059968
N    -1.264895  0.712939  1.831928
C    -1.862926  1.092329  3.100484
C    -3.349753  1.326501  2.693092
O    -3.632207  1.149478  1.499057
H    -2.075625  0.745425  1.131514
H    -1.774890  0.290400  3.847421
H    -1.410568  2.008997  3.505228
N    -4.217818  1.697485  3.634899
C    -3.941011  1.917071  5.052908
H    -5.170584  1.832625  3.302407
H    -3.211767  2.724462  5.203468
H    -3.591803  0.999282  5.545043
H    -4.872826  2.218804  5.538534
Ca    2.643111  0.195739  3.376333
