20
Energy: -30969.741263 eV PBE+vdW (tier 2 basis)
C    0.262708  0.276606  0.585831
C    0.434322  -0.927171  1.446406
O    1.596161  -1.323815  1.785171
H    0.740624  0.077123  -0.385188
H    -0.784751  0.546309  0.416763
H    0.792967  1.128948  1.030493
N    -0.653309  -1.598153  1.848719
C    -0.654943  -2.894558  2.531969
C    -0.274584  -2.825415  4.013887
O    0.948696  -2.626597  4.328803
H    -1.553603  -1.240577  1.538973
H    -1.644034  -3.339565  2.390446
H    0.071344  -3.563407  2.047049
N    -1.179082  -3.006061  4.955626
C    -2.620393  -3.263165  4.825537
H    -0.804648  -2.999151  5.906715
H    -3.100531  -2.966416  5.762702
H    -2.808982  -4.330877  4.655832
H    -3.057133  -2.667989  4.018124
Ca    2.768720  -2.024361  3.397804
