20
Energy: -30968.1246784 eV PBE+vdW (tier 2 basis)
C    0.094019  0.280646  0.226682
C    -0.051791  0.436133  1.710095
O    1.105407  0.556089  2.378245
H    0.701619  -0.607339  0.004001
H    0.623971  1.149572  -0.187493
H    -0.863077  0.181744  -0.292845
N    -1.141474  0.465911  2.390048
C    -2.452975  0.346527  1.781586
C    -3.425606  0.439085  2.949865
O    -2.874964  0.590250  4.113421
H    -1.869850  0.600898  3.859501
H    -2.676269  1.153997  1.064428
H    -2.606650  -0.614219  1.262396
N    -4.727107  0.377670  2.851360
C    -5.522878  0.210640  1.633237
H    -5.239952  0.455945  3.731938
H    -4.876455  0.137623  0.755279
H    -6.191669  1.071324  1.515819
H    -6.122628  -0.703490  1.714141
Ca    2.805329  0.725995  3.321298
