20
Energy: -30969.7412008 eV PBE+vdW (tier 2 basis)
C    0.213776  2.837353  0.955585
C    -0.574665  2.189154  2.040566
O    -0.069976  2.016484  3.197032
H    -0.312590  2.874590  -0.003601
H    1.169847  2.312751  0.828297
H    0.454645  3.863977  1.270274
N    -1.831735  1.801438  1.786704
C    -2.796493  1.322797  2.780437
C    -2.553052  -0.114271  3.250801
O    -1.580590  -0.346030  4.048191
H    -2.184808  1.974394  0.848758
H    -2.748890  1.963333  3.673386
H    -3.796192  1.443130  2.353281
N    -3.349430  -1.095679  2.876283
C    -4.522808  -1.058036  1.992215
H    -3.129600  -2.000813  3.297380
H    -5.420981  -0.772644  2.554657
H    -4.668451  -2.062403  1.583424
H    -4.365939  -0.371151  1.155441
Ca    0.157932  0.641626  4.785889
