20
Energy: -30969.0837689 eV PBE+vdW (tier 2 basis)
C    0.338520  1.733364  1.071169
C    -0.847383  1.507191  1.939633
O    -0.760008  1.612976  3.206320
H    1.147122  1.027961  1.308367
H    0.115395  1.707539  0.001279
H    0.727546  2.733460  1.321722
N    -2.057739  1.204312  1.403378
C    -2.227934  0.139130  0.432562
C    -2.050854  -1.225612  1.141398
O    -1.678124  -1.247431  2.368866
H    -2.833456  1.308430  2.059197
H    -3.223705  0.214477  -0.022700
H    -1.494287  0.228629  -0.380208
N    -2.277269  -2.344422  0.488583
C    -2.692486  -2.527609  -0.907017
H    -2.133539  -3.199520  1.029639
H    -1.899268  -3.050051  -1.455856
H    -2.891317  -1.568905  -1.391189
H    -3.604321  -3.135847  -0.931412
Ca    -1.076894  -0.278073  4.194271
