17
Energy: -101135.799308 eV PBE+vdW (tier 2 basis)
N    1.032337  0.211394  0.628774
C    -0.375742  0.098578  1.181337
C    -0.331981  -0.564121  2.580902
O    0.151423  -1.676144  2.808493
H    1.723631  0.549368  1.310538
H    1.258408  -0.781780  0.280446
H    -0.796407  1.104943  1.280408
C    -1.199539  -0.761952  0.194062
C    -0.626371  -2.171456  0.194433
O    -1.334968  -3.147842  0.552808
O    0.654218  -2.300221  0.019055
H    -1.153223  -0.314254  -0.810511
H    -2.252255  -0.781019  0.497760
O    -0.909448  0.203542  3.475447
H    -0.936169  -0.222504  4.361617
H    1.049000  0.856536  -0.173854
Sr    0.498087  -4.019069  1.743285
