17
Energy: -101135.590042 eV PBE+vdW (tier 2 basis)
N    -0.363812  -0.452131  -0.014237
C    0.100602  0.012677  1.350004
C    1.633228  -0.189704  1.461044
O    2.168109  -1.225695  1.063781
H    0.245607  -0.151504  -0.785557
H    -1.314344  -0.108593  -0.210700
H    -0.179802  1.066185  1.472528
C    -0.606447  -0.878421  2.409988
C    -0.103769  -2.306069  2.221046
O    0.581063  -2.860403  3.118743
O    -0.217312  -2.827777  1.038991
H    -1.696263  -0.814306  2.272317
H    -0.373991  -0.525538  3.420977
O    2.356552  0.726195  2.060701
H    1.872394  1.536825  2.317746
H    -0.391973  -1.531502  0.074737
Sr    2.032159  -3.739238  1.470889
