17
Energy: -101134.443622 eV PBE+vdW (tier 2 basis)
N    0.756142  -0.137041  0.167525
C    -0.164126  -0.159738  1.271960
C    0.586783  0.556853  2.399735
O    1.604260  0.227605  2.913247
H    0.327964  -0.293077  -0.741456
H    1.587589  -0.712616  0.289054
H    -1.037380  0.441185  0.977689
C    -0.664955  -1.552714  1.757483
C    -1.802594  -1.475528  2.735353
O    -2.207408  -0.375862  3.187206
O    -2.427567  -2.544617  3.149625
H    0.162714  -2.116935  2.221751
H    -0.981545  -2.144924  0.883028
O    -0.048483  1.808197  2.816502
H    0.678358  2.312349  3.245356
H    -2.073509  -3.377263  2.773470
Sr    -2.364776  1.834930  3.666737
