17
Energy: -101134.379078 eV PBE+vdW (tier 2 basis)
N    0.559016  0.386332  0.674382
C    0.087081  -0.216086  1.888673
C    1.184758  -1.173117  2.376121
O    1.898575  -1.866983  1.736534
H    -0.097396  1.049941  0.266330
H    1.480167  0.815507  0.740358
H    -0.138842  0.492519  2.726331
C    -1.208278  -1.000082  1.544546
C    -1.997962  -1.535419  2.704298
O    -1.712659  -1.269018  3.893823
O    -3.037164  -2.301152  2.505238
H    -0.966271  -1.813525  0.841312
H    -1.874807  -0.319906  0.985281
O    1.335106  -1.160337  3.830733
H    2.135153  -1.713911  3.971647
H    -3.220651  -2.483786  1.560183
Sr    -0.328658  -0.636181  5.571145
