17
Energy: -101135.205287 eV PBE+vdW (tier 2 basis)
N    0.545813  -1.255723  0.375619
C    -0.127272  -0.354012  1.284611
C    0.870938  0.202354  2.308319
O    0.973262  -0.158144  3.505671
H    1.079553  -2.002373  0.818331
H    1.104520  -0.791863  -0.338383
H    -0.479216  0.508565  0.699084
C    -1.347662  -1.110216  1.885952
C    -2.208740  -0.323263  2.842977
O    -1.919758  -0.216355  4.054063
O    -3.288198  0.294654  2.433839
H    -0.993700  -2.006992  2.414059
H    -1.930217  -1.459883  1.023628
O    1.695002  1.069449  1.767791
H    2.410961  1.334967  2.383623
H    -3.490864  0.142166  1.488825
Sr    -0.167424  -0.378331  5.529992
