17
Energy: -101135.678515 eV PBE+vdW (tier 2 basis)
N    0.646078  -0.409279  0.439975
C    0.446804  -0.410541  1.939644
C    0.642537  1.078040  2.321965
O    0.770861  1.916957  1.452372
H    -0.079547  -0.937386  -0.056544
H    0.628107  0.618509  0.188637
H    -0.609536  -0.656520  2.118505
C    1.352514  -1.384564  2.689198
C    1.061779  -2.858568  2.460576
O    1.585970  -3.705195  3.257030
O    0.312233  -3.238012  1.487835
H    1.263236  -1.190604  3.767338
H    2.417682  -1.207240  2.461642
O    0.612902  1.265463  3.630438
H    0.698475  2.222020  3.834933
H    1.560866  -0.785714  0.162799
Sr    0.554040  -5.518365  2.233657
