17
Energy: -101135.218517 eV PBE+vdW (tier 2 basis)
N    0.363356  0.043718  0.125306
C    -0.119300  0.114920  1.479444
C    0.984480  -0.299629  2.462211
O    0.996109  0.076456  3.656204
H    1.176797  0.631628  -0.052253
H    -0.353692  0.276639  -0.560539
H    -0.444288  1.118799  1.833780
C    -1.341832  -0.844165  1.573319
C    -2.181202  -0.816030  2.824555
O    -1.923671  -0.110533  3.820136
O    -3.250062  -1.571495  2.897327
H    -1.018540  -1.880200  1.376955
H    -2.008083  -0.588412  0.731553
O    1.913632  -1.063827  1.960552
H    2.600729  -1.281068  2.628917
H    -3.419861  -2.099404  2.090286
Sr    -0.466572  0.869603  5.295245
