17
Energy: -101135.720813 eV PBE+vdW (tier 2 basis)
N    0.880493  0.608547  -0.741891
C    0.687639  -0.453358  0.333080
C    1.144169  0.066469  1.709708
O    1.035814  -0.587341  2.735313
H    1.878120  0.825003  -0.892920
H    0.412609  1.496732  -0.503420
H    -0.396028  -0.632433  0.404365
C    1.381474  -1.765754  -0.081006
C    1.136450  -2.771754  1.046529
O    2.127671  -3.186461  1.719611
O    -0.073345  -3.002058  1.376822
H    2.460717  -1.632347  -0.229444
H    0.925242  -2.140796  -1.008679
O    1.646901  1.293998  1.640408
H    1.923932  1.617408  2.526098
H    0.494079  0.279416  -1.640353
Sr    0.715064  -3.095272  3.605779
