17
Energy: -101135.890905 eV PBE+vdW (tier 2 basis)
N    0.014655  -0.214384  0.065385
C    0.237284  0.029126  1.549688
C    1.762376  -0.075375  1.763289
O    2.221655  0.169329  2.905820
H    -0.748211  -0.867647  -0.151859
H    -0.170609  0.660768  -0.443874
H    -0.112922  1.041514  1.782265
C    -0.510976  -0.967510  2.461039
C    0.113048  -2.349078  2.685665
O    1.323169  -2.577272  2.609472
O    -0.679176  -3.337507  3.045890
H    -1.562088  -1.055573  2.148167
H    -0.545874  -0.504733  3.462404
O    2.436618  -0.575362  0.801387
H    0.937442  -0.599046  -0.266808
H    -1.624270  -3.095844  3.110002
Sr    3.626376  -1.762067  2.604856
