17
Energy: -101135.429836 eV PBE+vdW (tier 2 basis)
N    -0.133739  0.454061  0.278784
C    0.241498  -0.056123  1.653450
C    1.703539  -0.514846  1.648510
O    2.254838  -0.773493  2.763279
H    0.229021  1.399370  0.101508
H    -1.182321  0.472981  0.234430
H    0.141976  0.787223  2.351059
C    -0.686364  -1.208223  2.088716
C    -2.170120  -0.865812  2.230156
O    -2.583282  -0.021543  1.215220
O    -2.892193  -1.297293  3.076656
H    -0.349789  -1.569951  3.066869
H    -0.608282  -2.053053  1.383876
O    2.316145  -0.649904  0.534031
H    0.248649  -0.163256  -0.452961
H    -3.545154  0.143238  1.313872
Sr    4.287580  -1.378376  1.731548
