17
Energy: -101135.802724 eV PBE+vdW (tier 2 basis)
N    0.118672  0.094403  0.091968
C    0.108946  -0.152025  1.577364
C    1.528643  -0.151706  2.152110
O    1.666256  -0.233986  3.413832
H    0.868086  -0.433467  -0.374300
H    0.245233  1.085242  -0.142839
H    -0.437086  0.685836  2.035200
C    -0.637761  -1.466625  1.888472
C    -1.983177  -1.549405  1.177584
O    -2.848388  -2.309481  1.816871
O    -2.205662  -0.986740  0.104335
H    -0.776673  -1.559126  2.971656
H    -0.050359  -2.342264  1.566069
O    2.528143  -0.072466  1.360392
H    -0.867725  -0.253009  -0.225250
H    -3.681370  -2.380984  1.300649
Sr    4.016223  -0.091197  3.250889
