17
Energy: -101135.742456 eV PBE+vdW (tier 2 basis)
N    -0.384542  -0.182378  0.614301
C    -0.197427  -0.077341  2.108213
C    1.238179  0.471306  2.268896
O    1.873226  0.842754  1.303258
H    -1.310110  0.118946  0.290748
H    0.370762  0.415927  0.202929
H    -0.876998  0.702109  2.481677
C    -0.501876  -1.387171  2.850016
C    0.189263  -2.636772  2.339193
O    0.470594  -3.572389  3.148768
O    0.440421  -2.769946  1.074648
H    -1.585126  -1.592820  2.811730
H    -0.262223  -1.259518  3.912500
O    1.613575  0.499335  3.541175
H    2.489985  0.933778  3.619376
H    -0.194354  -1.169816  0.335023
Sr    1.276651  -5.006006  1.493550
