17
Energy: -101135.801403 eV PBE+vdW (tier 2 basis)
N    -0.129251  2.318773  1.429091
C    0.202280  0.938045  1.947573
C    1.703634  0.758365  1.520017
O    2.235730  -0.376279  1.800530
H    -0.817969  2.330742  0.667209
H    0.841810  2.605348  1.042756
H    0.144536  0.975870  3.043250
C    -0.767274  -0.129054  1.381877
C    -0.812409  -1.427280  2.174375
O    -1.929641  -1.549782  2.855423
O    0.073225  -2.296631  2.177565
H    -0.495451  -0.378205  0.345342
H    -1.790222  0.268643  1.379915
O    2.227018  1.714666  0.953940
H    -0.441702  2.970521  2.158029
H    -1.967544  -2.407705  3.333252
Sr    2.448229  -2.561037  1.966857
