17
Energy: -101134.150668 eV PBE+vdW (tier 2 basis)
N    -0.997923  0.373899  0.295237
C    -0.428934  0.074087  1.601947
C    1.062003  0.119713  1.265670
O    1.741666  1.166864  1.357556
H    -1.615108  -0.340917  -0.084486
H    -1.438324  1.288304  0.236711
H    -0.585598  0.906267  2.302359
C    -0.960746  -1.202150  2.286902
C    -1.101803  -2.423390  1.403798
O    -2.097131  -3.003198  1.106463
O    0.165059  -2.861261  0.918557
H    -1.966654  -0.980328  2.662867
H    -0.334946  -1.460411  3.155437
O    1.714713  -0.931004  0.729396
H    1.128986  -1.818981  0.725256
H    0.024366  -3.649793  0.352365
Sr    3.734560  0.569324  0.301651
