17
Energy: -101134.976261 eV PBE+vdW (tier 2 basis)
N    -0.202868  -0.164940  0.148243
C    0.227534  -0.354903  1.495581
C    1.484630  -1.212404  1.708404
O    1.921527  -1.549754  2.856948
H    -0.418525  -1.018485  -0.363625
H    0.399853  0.435073  -0.409547
H    0.526132  0.633229  1.896005
C    -0.977680  -0.870249  2.347847
C    -0.929883  -0.708514  3.843186
O    -1.989820  -0.489187  4.496614
O    0.198400  -0.808167  4.505018
H    -1.168493  -1.938230  2.142291
H    -1.861738  -0.334586  1.980453
O    2.133402  -1.566858  0.651035
H    2.945158  -2.082269  0.864672
H    1.261703  -1.224539  3.627799
Sr    -1.018172  -0.457329  6.612539
