17
Energy: -101134.954266 eV PBE+vdW (tier 2 basis)
N    -0.635643  0.370170  0.320281
C    0.001399  -0.192875  1.486701
C    1.514466  -0.193431  1.298165
O    2.061309  0.587642  0.470257
H    -1.590493  0.671822  0.512373
H    -0.119199  1.165342  -0.053384
H    -0.133209  0.395824  2.426658
C    -0.621949  -1.604750  1.718733
C    -0.329243  -2.288471  3.014132
O    0.820549  -2.307796  3.565160
O    -1.314043  -2.906581  3.576754
H    -0.311327  -2.287031  0.908433
H    -1.711175  -1.515764  1.626332
O    2.278488  -0.963927  2.029824
H    1.514962  -1.772785  2.974737
H    -1.045848  -3.374112  4.401262
Sr    4.267341  -0.028952  0.945817
