17
Energy: -101134.954077 eV PBE+vdW (tier 2 basis)
N    0.603037  -0.968433  -0.348060
C    0.027245  -0.296542  0.868256
C    1.102084  0.213768  1.865841
O    0.877136  0.376621  3.035238
H    1.452667  -0.436853  -0.586014
H    0.980391  -1.879937  -0.057906
H    -0.482692  0.619713  0.522567
C    -0.981429  -1.158491  1.636243
C    -2.254749  -1.471313  0.898907
O    -2.350826  -1.355938  -0.343861
O    -3.305485  -1.910708  1.536725
H    -1.200695  -0.642876  2.584854
H    -0.530378  -2.120667  1.941964
O    2.253526  0.479194  1.218406
H    2.903893  0.846917  1.853960
H    -3.189355  -1.958275  2.508266
Sr    -1.137834  -1.138268  -2.257795
