17
Energy: -101135.619002 eV PBE+vdW (tier 2 basis)
N    0.270807  -0.152603  0.242630
C    0.338383  -0.255578  1.749784
C    1.893202  -0.413574  1.996093
O    2.306874  -0.277870  3.199301
H    1.300318  -0.424655  0.006769
H    -0.395388  -0.786497  -0.212960
H    -0.020786  0.684948  2.183926
C    -0.529061  -1.440791  2.224543
C    -0.724368  -1.617065  3.725775
O    -0.060745  -1.044182  4.596144
O    -1.649867  -2.462485  4.126743
H    -0.109437  -2.392897  1.852754
H    -1.534229  -1.350612  1.780398
O    2.565054  -0.644001  0.990604
H    0.083755  0.801697  -0.087335
H    -2.159541  -2.881026  3.404551
Sr    2.055032  -0.344809  5.398278
