17
Energy: -101136.072442 eV PBE+vdW (tier 2 basis)
N    -0.792629  0.677568  0.562229
C    -0.253922  -0.127325  1.694675
C    1.188520  -0.526389  1.356699
O    1.626168  -0.538040  0.198784
H    -1.807252  0.769847  0.675222
H    -0.441872  1.637311  0.655271
H    -0.209863  0.461869  2.624090
C    -1.124897  -1.364852  2.018796
C    -1.370643  -2.338004  0.878974
O    -0.992180  -2.126468  -0.282733
O    -2.026586  -3.448813  1.114730
H    -2.106002  -1.021484  2.389390
H    -0.673120  -1.906526  2.864789
O    1.886388  -0.853979  2.415943
H    2.804401  -1.114546  2.179172
H    -2.296597  -3.568743  2.047629
Sr    0.067085  -0.536426  -1.645658
