17
Energy: -101135.733243 eV PBE+vdW (tier 2 basis)
N    0.522071  -0.675699  -0.183614
C    0.494304  -0.095274  1.208955
C    1.313063  1.210412  1.097044
O    2.040754  1.394358  0.144197
H    1.404164  -0.328074  -0.622750
H    -0.254718  -0.325034  -0.758208
H    -0.547108  0.118596  1.478651
C    1.146533  -1.043468  2.231239
C    0.609829  -2.462016  2.282864
O    0.615733  -3.086796  3.387937
O    0.206088  -3.048900  1.201830
H    1.059002  -0.599524  3.230366
H    2.229366  -1.130017  2.030362
O    1.121945  1.996837  2.145744
H    1.673013  2.805372  2.064193
H    0.463801  -1.713418  -0.122103
Sr    -0.141840  -5.090355  2.469293
