17
Energy: -101135.065705 eV PBE+vdW (tier 2 basis)
N    -0.051082  0.015984  -0.184685
C    -0.176967  -0.467115  1.227662
C    1.097514  -0.018691  1.992140
O    1.841361  0.806388  1.514762
H    0.585034  0.833780  -0.105410
H    0.537470  -0.658243  -0.692687
H    -1.001367  0.088590  1.709271
C    -0.477624  -1.965090  1.347462
C    -1.797306  -2.384753  0.740725
O    -2.462371  -1.628111  0.001744
O    -2.279040  -3.579390  0.958816
H    -0.463142  -2.245898  2.411919
H    0.317266  -2.572406  0.877372
O    1.194680  -0.605812  3.183931
H    1.978231  -0.257078  3.661326
H    -1.732561  -4.127794  1.558551
Sr    -2.346095  0.272638  -1.276900
