17
Energy: -101135.645514 eV PBE+vdW (tier 2 basis)
N    0.453715  0.425845  -0.686655
C    0.552777  -0.322093  0.637658
C    1.222813  0.561829  1.706079
O    1.677126  0.100631  2.721782
H    1.370290  0.498695  -1.153469
H    0.123914  1.391347  -0.525003
H    -0.483426  -0.492387  0.969339
C    1.273408  -1.659461  0.465476
C    1.186761  -2.511034  1.730746
O    2.213317  -3.172540  2.089769
O    0.086926  -2.559509  2.382480
H    2.332408  -1.525375  0.209493
H    0.798271  -2.245344  -0.338272
O    1.184651  1.860261  1.355788
H    1.578813  2.413410  2.063742
H    -0.194321  -0.039096  -1.338921
Sr    1.159555  -3.813179  4.072967
