17
Energy: -101135.658998 eV PBE+vdW (tier 2 basis)
N    0.102085  0.479095  0.712491
C    -1.208201  -0.065382  1.262552
C    -0.942944  -0.566116  2.701716
O    -1.213822  -1.677686  3.080097
H    0.565213  1.082201  1.409315
H    0.701449  -0.349156  0.501227
H    -1.906725  0.781174  1.317925
C    -1.766477  -1.164421  0.366570
C    -0.896671  -2.403079  0.292054
O    0.390330  -2.290046  0.399969
O    -1.433689  -3.536107  0.105746
H    -1.923727  -0.791289  -0.659271
H    -2.757793  -1.457948  0.732972
O    -0.375923  0.418886  3.419106
H    -0.241589  0.128699  4.346236
H    -0.037452  1.025426  -0.148431
Sr    0.540933  -4.710250  0.398726
