17
Energy: -101135.582918 eV PBE+vdW (tier 2 basis)
N    0.194502  -0.323023  0.239578
C    0.301802  -0.363939  1.703172
C    1.835467  -0.336261  1.992139
O    2.326887  -0.271480  3.141472
H    -0.246832  -1.141129  -0.180096
H    -0.265540  0.514908  -0.115472
H    -0.112887  0.557155  2.140277
C    -0.453986  -1.584519  2.287914
C    -0.660916  -1.675631  3.788448
O    0.015371  -1.066219  4.632129
O    -1.598222  -2.476199  4.242100
H    0.041072  -2.524996  1.985377
H    -1.447810  -1.603782  1.814115
O    2.561423  -0.346049  0.935621
H    1.826498  -0.344379  0.182947
H    -2.118635  -2.922828  3.544285
Sr    2.054600  -0.251994  5.398887
