17
Energy: -101135.021191 eV PBE+vdW (tier 2 basis)
N    -0.765361  -1.859413  1.678024
C    0.079833  -0.678506  1.445087
C    1.526844  -1.143225  1.538918
O    2.124268  -1.400071  2.625159
H    -1.745424  -1.594514  1.549739
H    -0.587146  -2.587588  0.981899
H    -0.024594  -0.219880  0.446563
C    -0.273359  0.404514  2.491961
C    -0.395765  -0.099239  3.912272
O    -1.390442  0.200459  4.627284
O    0.557178  -0.826670  4.446218
H    -1.235029  0.854034  2.215167
H    0.465274  1.223204  2.481185
O    2.134925  -1.295414  0.407712
H    3.058193  -1.621980  0.516594
H    1.486823  -1.197755  3.480871
Sr    -0.690221  -0.955959  6.537349
