34
Energy: -109020.773883 eV PBE+vdW (tier 2 basis)
C    0.542228  2.944541  2.918057
C    0.130230  1.563770  3.327555
O    0.765892  0.561251  2.917279
H    0.567423  2.999548  1.821886
H    1.568102  3.123842  3.268372
H    -0.108918  3.735700  3.303599
N    -0.938933  1.457374  4.146074
C    -1.566997  0.264344  4.755484
C    -0.552480  -0.582170  5.548669
O    0.177472  -1.439880  4.979897
H    -1.374687  2.338902  4.400500
H    -2.258265  0.696298  5.488383
C    -2.490676  -0.569240  3.819348
C    -1.907707  -1.440415  2.729010
C    -1.548253  -0.917249  1.470003
C    -1.772606  -2.830535  2.909807
C    -1.033358  -1.726507  0.455204
C    -1.268137  -3.663954  1.903168
C    -0.911352  -3.120071  0.650472
O    -0.447527  -3.841175  -0.384317
H    -3.189689  0.149728  3.367789
H    -3.099913  -1.199849  4.482725
H    -1.677497  0.146182  1.268715
H    -2.065881  -3.281391  3.858494
H    -0.783870  -1.310799  -0.520852
H    -1.206667  -4.740413  2.072808
H    -0.524288  -4.799449  -0.226851
N    -0.477688  -0.408707  6.866416
C    -1.216707  0.527617  7.719948
H    0.198027  -1.018044  7.326789
H    -0.824955  0.434108  8.736579
H    -2.287299  0.288105  7.748326
H    -1.068168  1.565194  7.397654
Sr    0.957144  -1.752658  2.788010
