34
Energy: -109019.494658 eV PBE+vdW (tier 2 basis)
C    -0.731063  1.673083  -0.355118
C    -0.509337  0.533041  0.580882
O    0.398703  -0.333721  0.349135
H    0.200742  2.244565  -0.461091
H    -1.528942  2.348211  -0.029185
H    -0.981775  1.277815  -1.349387
N    -1.274615  0.412880  1.666938
C    -1.199850  -0.742843  2.566667
C    -2.506256  -1.089032  3.317517
O    -2.736522  -2.283664  3.472082
H    -2.043388  1.070862  1.772648
H    -1.077522  -1.619750  1.917319
C    0.004817  -0.677937  3.559405
C    1.085625  -1.695657  3.279333
C    2.450051  -1.338011  3.245699
C    0.766335  -3.057417  3.083437
C    3.456273  -2.285564  3.015541
C    1.759754  -4.019925  2.852864
C    3.124146  -3.649448  2.848137
O    4.142486  -4.505800  2.669571
H    -0.370444  -0.855163  4.578381
H    0.428914  0.333899  3.559382
H    2.740266  -0.299717  3.417590
H    -0.277876  -3.378769  3.138385
H    4.508525  -1.999263  3.028839
H    1.476182  -5.068371  2.740044
H    3.855250  -5.436364  2.708960
N    -3.283235  -0.079089  3.771372
C    -4.509063  -0.337066  4.533404
H    -2.913859  0.865934  3.805684
H    -4.292988  -0.472429  5.601299
H    -4.973356  -1.250436  4.150857
H    -5.194630  0.505664  4.402829
Sr    1.849650  -2.058518  0.535583
