34
Energy: -109019.379067 eV PBE+vdW (tier 2 basis)
C    -2.479500  -1.733583  -1.859548
C    -2.107579  -0.592522  -0.972268
O    -1.576108  0.462467  -1.484950
H    -1.657448  -1.971235  -2.544452
H    -3.329381  -1.412329  -2.481047
H    -2.777602  -2.632594  -1.313265
N    -2.340319  -0.613354  0.327104
C    -2.519638  -1.728408  1.253469
C    -2.830675  -1.006027  2.593202
O    -2.447451  0.166106  2.722279
H    -2.161468  0.241564  0.889889
H    -3.351005  -2.373478  0.947254
C    -1.195882  -2.589578  1.392285
C    0.025082  -1.783542  1.016347
C    0.501578  -0.746622  1.838249
C    0.614065  -1.955045  -0.242395
C    1.422298  0.189151  1.365082
C    1.557903  -1.044646  -0.731778
C    1.911023  0.050328  0.063388
O    2.620272  1.083135  -0.587569
H    -1.274171  -3.468009  0.740290
H    -1.126538  -2.960757  2.423016
H    0.102435  -0.617601  2.843211
H    0.325277  -2.801123  -0.866257
H    1.740444  1.017926  1.999482
H    2.052863  -1.204646  -1.692709
H    3.304626  1.479317  -0.017509
N    -3.446110  -1.702029  3.559601
C    -4.037495  -3.037655  3.471231
H    -3.597564  -1.173830  4.416319
H    -4.396730  -3.314668  4.466186
H    -3.302555  -3.793252  3.166598
H    -4.895011  -3.059225  2.785025
Sr    0.366511  1.566230  -1.695594
