34
Energy: -109019.777089 eV PBE+vdW (tier 2 basis)
C    -0.434459  1.193459  -0.479792
C    -0.441157  0.032696  0.459896
O    0.256795  -1.012716  0.193303
H    -0.832702  0.864085  -1.450026
H    0.596596  1.528780  -0.651802
H    -1.033086  2.034808  -0.117531
N    -1.177415  0.098191  1.550935
C    -1.464193  -0.941457  2.530747
C    -2.803366  -0.424656  3.171595
O    -3.096360  0.760634  3.007520
H    -1.791597  0.915908  1.749408
H    -1.626090  -1.902427  2.017421
C    -0.376401  -1.076107  3.631032
C    0.879478  -1.848734  3.292898
C    2.128229  -1.209404  3.167711
C    0.875361  -3.260222  3.221092
C    3.322853  -1.931243  3.010679
C    2.053729  -4.001951  3.069771
C    3.303678  -3.343811  3.006758
O    4.396960  -4.120675  2.912570
H    -0.842324  -1.567641  4.497823
H    -0.110781  -0.065283  3.967926
H    2.183141  -0.121413  3.227961
H    -0.063470  -3.805380  3.336147
H    4.273260  -1.395433  2.965276
H    2.034102  -5.092416  3.080051
H    5.221493  -3.617444  3.042383
N    -3.516512  -1.310336  3.882476
C    -4.765775  -0.965522  4.564741
H    -3.228677  -2.282945  3.891329
H    -4.740196  -1.336433  5.595362
H    -5.624441  -1.403484  4.040934
H    -4.866350  0.122881  4.570230
Sr    1.798679  -2.567312  0.526178
