34
Energy: -109019.525277 eV PBE+vdW (tier 2 basis)
C    0.016784  0.030815  0.123483
C    -0.027198  -0.150464  1.612879
O    0.958040  -0.338036  2.326366
H    0.794196  -0.615962  -0.296601
H    0.304717  1.069027  -0.096535
H    -0.942344  -0.171907  -0.367105
N    -1.268657  -0.103857  2.226111
C    -1.260341  -0.074611  3.666367
C    -0.529850  -1.259534  4.309431
O    0.061821  -1.017554  5.422288
H    -2.103353  0.154406  1.709965
H    -0.648669  0.786602  3.994665
C    -2.678573  0.086018  4.272452
C    -2.654046  0.466610  5.737395
C    -2.344583  1.785551  6.139510
C    -2.957153  -0.458963  6.753405
C    -2.349054  2.170177  7.485218
C    -2.965702  -0.096496  8.109704
C    -2.698550  1.237614  8.489372
O    -2.726658  1.688813  9.754648
H    -3.266473  -0.830419  4.129001
H    -3.189501  0.884043  3.713391
H    -2.126483  2.544121  5.385037
H    -3.210806  -1.486422  6.488890
H    -2.160995  3.205320  7.772296
H    -3.245309  -0.835556  8.863128
H    -3.126266  1.046073  10.368695
N    -0.591177  -2.510083  3.882887
C    -1.187142  -3.076661  2.670422
H    -0.024566  -3.150834  4.437868
H    -0.500681  -2.978788  1.819714
H    -2.136392  -2.592885  2.432219
H    -1.370563  -4.139385  2.855953
Sr    -0.091471  0.255223  7.252478
