34
Energy: -109019.474044 eV PBE+vdW (tier 2 basis)
C    -0.626681  0.888994  0.299983
C    -0.547408  0.714110  1.788130
O    -0.037638  1.530800  2.548374
H    -1.109538  0.052577  -0.218095
H    0.389656  1.017063  -0.094234
H    -1.171445  1.815741  0.078789
N    -1.081249  -0.477047  2.299752
C    -1.138189  -0.587843  3.731896
C    -0.383944  -1.730541  4.393402
O    -0.068348  -1.554105  5.625901
H    -1.695213  -1.020151  1.702813
H    -0.556305  0.310193  4.025965
C    -2.571224  -0.433116  4.339866
C    -2.597229  0.196133  5.712423
C    -2.112451  1.511165  5.913016
C    -3.126445  -0.472227  6.832638
C    -2.156636  2.128806  7.166662
C    -3.178816  0.130374  8.100789
C    -2.725667  1.456664  8.274745
O    -2.771861  2.131134  9.434883
H    -3.103504  -1.393785  4.350812
H    -3.118340  0.223267  3.648124
H    -1.705844  2.072832  5.068109
H    -3.523588  -1.482202  6.719656
H    -1.818222  3.157658  7.294709
H    -3.629528  -0.409522  8.935965
H    -3.307345  1.673876  10.108700
N    -0.035515  -2.863770  3.809187
C    -0.303054  -3.363785  2.454762
H    0.502621  -3.482531  4.415706
H    0.263933  -2.800018  1.706886
H    -1.373830  -3.327915  2.226502
H    0.011964  -4.410492  2.424343
Sr    -0.280114  -0.166337  7.399846
