34
Energy: -109019.882949 eV PBE+vdW (tier 2 basis)
C    2.597930  1.858335  2.046731
C    1.337763  1.256830  2.581599
O    0.975006  0.101784  2.199438
H    2.488084  1.980864  0.959446
H    3.433107  1.164229  2.205564
H    2.845187  2.828854  2.488813
N    0.622120  1.974508  3.459312
C    -0.738967  1.749320  3.994197
C    -0.801080  0.616906  5.026698
O    -0.490549  -0.574983  4.695965
H    1.018733  2.881202  3.690662
H    -0.979048  2.687921  4.504873
C    -1.840891  1.553032  2.916061
C    -3.214101  1.656413  3.530090
C    -3.796403  2.916859  3.750415
C    -3.923253  0.521757  3.942454
C    -5.033310  3.041682  4.366773
C    -5.166758  0.626518  4.561625
C    -5.730663  1.893560  4.779887
O    -6.931865  2.088348  5.364915
H    -1.717224  0.586726  2.403487
H    -1.687912  2.328867  2.152577
H    -3.284002  3.820828  3.414616
H    -3.512419  -0.475846  3.764388
H    -5.491909  4.017628  4.518094
H    -5.710438  -0.272228  4.855871
H    -7.362207  1.241664  5.572108
N    -1.230962  0.864968  6.251049
C    -1.726951  2.122560  6.824782
H    -1.298827  0.036976  6.843303
H    -2.696230  2.391705  6.387120
H    -1.006439  2.935128  6.679490
H    -1.849337  1.971484  7.900661
Sr    0.137819  -1.863404  2.931934
