34
Energy: -109020.010014 eV PBE+vdW (tier 2 basis)
C    0.974778  -0.847300  2.302248
C    -0.045941  -0.023178  1.589361
O    -0.038105  0.053913  0.318024
H    0.903816  -1.882500  1.940476
H    0.851722  -0.838030  3.389795
H    1.980943  -0.487730  2.048719
N    -0.962049  0.620029  2.316990
C    -2.182385  1.275381  1.818951
C    -1.868270  2.623097  1.135622
O    -1.479928  2.633667  -0.077825
H    -1.003844  0.374332  3.311349
H    -2.602434  0.640827  1.021534
C    -3.209401  1.341743  2.981062
C    -3.349734  0.016667  3.687223
C    -2.678341  -0.213894  4.901293
C    -4.108855  -1.026649  3.139170
C    -2.746691  -1.445176  5.543630
C    -4.193055  -2.261248  3.774158
C    -3.506760  -2.481631  4.980727
O    -3.542128  -3.650681  5.656103
H    -4.166624  1.685523  2.565225
H    -2.891314  2.089470  3.726553
H    -2.131620  0.599502  5.387113
H    -4.669800  -0.871419  2.215395
H    -2.247432  -1.614188  6.496347
H    -4.808171  -3.053240  3.344343
H    -4.135755  -4.285857  5.221018
N    -2.037860  3.741668  1.815366
C    -1.807884  5.093012  1.304166
H    -2.367546  3.656654  2.774031
H    -1.824653  5.076601  0.211932
H    -0.838339  5.471143  1.653413
H    -2.601017  5.751012  1.673956
Sr    -0.399325  1.262481  -1.548469
