34
Energy: -109019.462809 eV PBE+vdW (tier 2 basis)
C    -0.731120  -0.850763  -0.570820
C    -0.931400  0.207277  0.462560
O    -0.126060  1.211032  0.507226
H    -0.962968  -0.409371  -1.552228
H    -1.372127  -1.725375  -0.430879
H    0.319306  -1.162174  -0.603045
N    -1.937880  0.166855  1.316439
C    -2.732273  -0.954354  1.813027
C    -3.778402  -0.249853  2.723208
O    -3.485580  0.856032  3.199105
H    -2.096916  0.973964  1.950441
H    -3.227345  -1.488730  0.992553
C    -1.850036  -1.965349  2.653507
C    -0.617933  -1.292877  3.212060
C    -0.702857  -0.345304  4.247751
C    0.623198  -1.488535  2.593825
C    0.369646  0.493445  4.553666
C    1.721924  -0.676553  2.898503
C    1.563105  0.343024  3.842525
O    2.591850  1.308964  3.886966
H    -1.551494  -2.798013  2.004839
H    -2.475703  -2.390183  3.449599
H    -1.640150  -0.203692  4.783755
H    0.739932  -2.274522  1.847449
H    0.267853  1.258521  5.324948
H    2.702081  -0.859908  2.451608
H    2.783660  1.604907  4.795735
N    -4.908733  -0.925318  2.962585
C    -5.974916  -0.439065  3.837708
H    -5.062116  -1.803242  2.475722
H    -6.147437  -1.148608  4.655764
H    -6.902729  -0.314900  3.266841
H    -5.671730  0.527346  4.248378
Sr    1.589331  2.080976  1.663751
