34
Energy: -109019.746871 eV PBE+vdW (tier 2 basis)
C    -0.896244  0.944003  0.183167
C    -0.787899  0.413704  1.583282
O    0.151603  0.624825  2.334014
H    -1.690227  0.471680  -0.406595
H    0.066428  0.812898  -0.323972
H    -1.086599  2.025531  0.231306
N    -1.861446  -0.393602  2.023078
C    -1.898304  -0.722310  3.430363
C    -1.730954  -2.214956  3.696478
O    -1.717982  -2.641355  4.904134
H    -2.736894  -0.330012  1.508945
H    -0.962338  -0.261785  3.811926
C    -3.118638  -0.100541  4.161047
C    -3.023830  -0.008882  5.666484
C    -1.944611  0.649079  6.302275
C    -4.043420  -0.514461  6.496586
C    -1.882749  0.791435  7.692048
C    -4.003765  -0.377142  7.894275
C    -2.933820  0.310069  8.508455
O    -2.823711  0.526018  9.828683
H    -4.041130  -0.628859  3.881665
H    -3.214754  0.923193  3.768857
H    -1.141865  1.081839  5.701579
H    -4.903451  -1.014159  6.047530
H    -1.062351  1.335549  8.161392
H    -4.834377  -0.751130  8.496261
H    -3.642267  0.307451  10.310410
N    -1.555555  -3.010751  2.664083
C    -1.305936  -4.447519  2.701725
H    -1.543384  -2.527172  1.762769
H    -0.291415  -4.657563  2.340671
H    -2.026545  -4.960548  2.054502
H    -1.412964  -4.809888  3.726582
Sr    -1.713608  -2.127641  7.093998
