34
Energy: -109019.693253 eV PBE+vdW (tier 2 basis)
C    0.277453  -1.656318  0.285837
C    0.272337  -1.108010  1.674756
O    1.366930  -0.695456  2.206965
H    0.925579  -2.543675  0.258127
H    0.709387  -0.919404  -0.403773
H    -0.721655  -1.935319  -0.062555
N    -0.863555  -1.064332  2.341313
C    -1.092941  -0.689216  3.730328
C    -2.493592  -1.326416  4.018644
O    -3.190185  -1.640336  3.052778
H    -1.753169  -1.423752  1.938729
H    -0.318368  -1.141103  4.367784
C    -1.165489  0.848738  3.948991
C    0.134097  1.584502  4.184089
C    0.550645  2.627521  3.334137
C    0.918170  1.348165  5.336397
C    1.674095  3.420660  3.621502
C    2.041220  2.125637  5.643542
C    2.409860  3.205321  4.807578
O    3.468930  3.938149  5.192047
H    -1.807519  1.038181  4.821746
H    -1.695521  1.285700  3.092887
H    -0.030260  2.854991  2.438896
H    0.624532  0.567623  6.040684
H    1.932836  4.247820  2.957237
H    2.599364  1.962771  6.566302
H    3.566003  4.753520  4.666953
N    -2.880311  -1.475006  5.299065
C    -2.116291  -1.232276  6.515877
H    -3.819879  -1.854207  5.398038
H    -2.062936  -0.163623  6.772944
H    -1.101757  -1.646639  6.443882
H    -2.614856  -1.745807  7.343284
Sr    2.793847  0.688597  3.185991
