34
Energy: -109020.007594 eV PBE+vdW (tier 2 basis)
C    -2.347598  0.633091  -0.909679
C    -2.254139  -0.146990  0.361532
O    -1.692812  -1.287892  0.376854
H    -1.327064  0.883138  -1.235112
H    -2.923076  1.559338  -0.811808
H    -2.789217  0.011290  -1.698369
N    -2.761739  0.392030  1.476391
C    -2.585295  -0.070852  2.865526
C    -3.583349  -1.203975  3.194685
O    -3.506299  -2.294765  2.533047
H    -3.197447  1.306730  1.377527
H    -1.592458  -0.545897  2.922607
C    -2.601083  1.185469  3.768263
C    -2.535752  0.929175  5.255737
C    -1.481328  0.203396  5.835967
C    -3.537646  1.431080  6.100769
C    -1.436506  -0.029711  7.202673
C    -3.504752  1.206928  7.477232
C    -2.452814  0.468827  8.037455
O    -2.339387  0.204125  9.356539
H    -3.508534  1.770331  3.545072
H    -1.749440  1.805037  3.444421
H    -0.657665  -0.162458  5.219126
H    -4.343536  2.043355  5.688326
H    -0.610219  -0.575780  7.655306
H    -4.284984  1.624862  8.114757
H    -3.052273  0.632383  9.860378
N    -4.465739  -1.034086  4.153835
C    -5.436413  -2.034920  4.590484
H    -4.346042  -0.202524  4.747182
H    -6.340205  -1.519232  4.930051
H    -5.027491  -2.621569  5.424131
H    -5.683596  -2.701210  3.760505
Sr    -2.204168  -3.398337  1.034075
