34
Energy: -109019.498928 eV PBE+vdW (tier 2 basis)
C    -1.965977  -1.772375  0.694535
C    -0.913946  -1.078796  1.497259
O    0.314195  -1.379628  1.353546
H    -2.045326  -1.323854  -0.308057
H    -2.952512  -1.744300  1.167589
H    -1.655299  -2.814717  0.554081
N    -1.252576  -0.114376  2.380692
C    -2.221562  0.936482  2.074163
C    -1.543366  1.906968  1.062023
O    -0.405383  1.616995  0.547188
H    -0.488020  0.175341  2.992754
H    -3.075569  0.476218  1.556601
C    -2.738598  1.609178  3.373257
C    -3.873467  2.584770  3.163573
C    -3.702266  3.958582  3.417459
C    -5.139973  2.144689  2.741858
C    -4.743410  4.863104  3.243854
C    -6.190854  3.037363  2.563562
C    -5.999741  4.407775  2.813387
O    -6.969195  5.334411  2.668041
H    -1.900395  2.115740  3.875855
H    -3.053236  0.786257  4.032246
H    -2.740789  4.325892  3.781796
H    -5.326662  1.081907  2.573093
H    -4.612082  5.922233  3.459618
H    -7.168802  2.670376  2.248946
H    -7.812404  4.921513  2.414816
N    -2.182679  3.012535  0.753191
C    -1.694408  4.033615  -0.173835
H    -3.040225  3.204037  1.290780
H    -1.552027  3.605537  -1.172973
H    -0.745969  4.457768  0.178286
H    -2.442610  4.828283  -0.228664
Sr    1.470132  0.321475  0.293481
