34
Energy: -109019.649294 eV PBE+vdW (tier 2 basis)
C    0.527330  1.505841  0.557642
C    0.166380  0.172874  1.138537
O    0.721889  -0.890012  0.674552
H    0.008875  2.337219  1.045142
H    0.272676  1.510751  -0.511191
H    1.610669  1.666967  0.639276
N    -0.721556  0.147056  2.113699
C    -1.396439  -0.967982  2.771765
C    -2.758270  -0.321706  3.201487
O    -2.814959  0.909851  3.248951
H    -1.216868  1.020542  2.396042
H    -1.543709  -1.788826  2.055459
C    -0.641682  -1.475616  4.036926
C    0.707865  -2.039345  3.690317
C    1.866019  -1.256402  3.800786
C    0.823334  -3.328469  3.148877
C    3.083862  -1.673159  3.255787
C    2.035025  -3.778996  2.615554
C    3.144643  -2.918560  2.625370
O    4.189757  -3.279482  1.764457
H    -1.266376  -2.239885  4.519292
H    -0.549896  -0.642291  4.746132
H    1.813152  -0.279509  4.281884
H    -0.040537  -3.994127  3.131407
H    3.962214  -1.027228  3.305108
H    2.145665  -4.796220  2.231468
H    5.059071  -2.984424  2.093267
N    -3.751631  -1.160838  3.524493
C    -5.062033  -0.709804  3.995789
H    -3.610273  -2.158445  3.406138
H    -5.842551  -0.995562  3.280498
H    -5.037868  0.379003  4.088421
H    -5.284183  -1.154420  4.972881
Sr    2.280408  -2.388797  0.110785
