34
Energy: -109019.826839 eV PBE+vdW (tier 2 basis)
C    -0.617128  2.659403  4.382389
C    -0.292034  1.211941  4.230923
O    0.919594  0.816600  4.190270
H    -1.693671  2.855058  4.405894
H    -0.164307  3.224022  3.556129
H    -0.161748  3.030835  5.310860
N    -1.291285  0.329407  4.143043
C    -1.090790  -1.121874  4.192242
C    -0.361869  -1.632144  2.938337
O    0.860603  -1.987814  3.064136
H    -2.240431  0.640721  4.382554
H    -0.387230  -1.326955  5.014384
C    -2.425122  -1.846794  4.546467
C    -3.160960  -1.118935  5.641576
C    -2.758373  -1.218014  6.984591
C    -4.245636  -0.281422  5.333730
C    -3.409863  -0.510502  7.983471
C    -4.911015  0.436199  6.327479
C    -4.493755  0.326527  7.661926
O    -5.082775  0.977501  8.687651
H    -2.162499  -2.871150  4.843763
H    -3.069011  -1.930761  3.664570
H    -1.940910  -1.886903  7.261848
H    -4.618616  -0.224107  4.307927
H    -3.116070  -0.606880  9.027603
H    -5.769486  1.057696  6.069150
H    -5.853819  1.484855  8.381890
N    -0.939479  -1.719141  1.748975
C    -2.276401  -1.314484  1.305644
H    -0.340295  -2.132558  1.033642
H    -2.195657  -0.954901  0.274328
H    -2.663519  -0.500296  1.922544
H    -2.969769  -2.164591  1.325781
Sr    2.572331  -0.712543  3.893279
