34
Energy: -109019.56324 eV PBE+vdW (tier 2 basis)
C    -0.378759  1.958877  0.304478
C    -0.398500  0.605870  0.935468
O    0.309340  -0.342864  0.459197
H    0.650090  2.342356  0.288267
H    -1.020879  2.682676  0.816904
H    -0.704350  1.869674  -0.741419
N    -1.174201  0.392807  1.997959
C    -1.309900  -0.889642  2.696129
C    -2.684989  -0.999261  3.444304
O    -2.735859  -1.606267  4.504353
H    -1.683573  1.188305  2.379894
H    -1.329479  -1.668798  1.916364
C    -0.161594  -1.168802  3.692908
C    0.937333  -2.076447  3.212754
C    2.294056  -1.696669  3.272788
C    0.663147  -3.392549  2.767191
C    3.332709  -2.574306  2.917924
C    1.681578  -4.280178  2.403385
C    3.038425  -3.893381  2.508545
O    3.960336  -4.814994  2.182312
H    -0.657239  -1.640182  4.561627
H    0.255930  -0.217945  4.046926
H    2.556157  -0.699859  3.631638
H    -0.367635  -3.752021  2.745218
H    4.370287  -2.249597  3.019673
H    1.450707  -5.304479  2.108402
H    4.861588  -4.543222  2.434633
N    -3.744100  -0.415010  2.838831
C    -5.093561  -0.504467  3.402755
H    -3.657129  -0.090851  1.881630
H    -5.695597  0.323903  3.017504
H    -5.028231  -0.433647  4.492523
H    -5.571855  -1.457676  3.141645
Sr    1.767747  -2.068353  0.440289
