34
Energy: -109019.771389 eV PBE+vdW (tier 2 basis)
C    0.396086  2.297187  0.790338
C    0.179142  0.865399  1.155242
O    0.898824  -0.051131  0.613574
H    1.445424  2.570992  0.960791
H    -0.251244  2.979279  1.349932
H    0.200608  2.421045  -0.284280
N    -0.761695  0.563594  2.027163
C    -1.256737  -0.746146  2.429984
C    -2.684315  -0.396749  2.988398
O    -2.916756  0.779445  3.271117
H    -1.388261  1.291055  2.431733
H    -1.337172  -1.400979  1.547957
C    -0.407106  -1.418324  3.543458
C    0.858902  -2.136671  3.130693
C    2.135121  -1.644982  3.479675
C    0.813825  -3.395611  2.496370
C    3.304620  -2.378403  3.241689
C    1.971838  -4.151188  2.250668
C    3.233189  -3.666881  2.664291
O    4.390976  -4.334135  2.517137
H    -1.050131  -2.150577  4.053501
H    -0.171011  -0.653938  4.295602
H    2.219193  -0.681598  3.985066
H    -0.149301  -3.830728  2.223246
H    4.275071  -2.003688  3.569598
H    1.883435  -5.144830  1.806678
H    4.253207  -5.267220  2.271752
N    -3.539988  -1.417732  3.143994
C    -4.890814  -1.254464  3.685451
H    -3.273906  -2.339307  2.814257
H    -4.998004  -0.224885  4.036371
H    -5.044623  -1.944098  4.523293
H    -5.640197  -1.451292  2.909206
Sr    2.319796  -1.747441  0.541054
