34
Energy: -109019.772285 eV PBE+vdW (tier 2 basis)
C    0.186504  1.882125  0.377143
C    -0.051079  0.534339  0.974210
O    0.541941  -0.496786  0.488932
H    -0.336229  2.680701  0.912379
H    -0.156688  1.869175  -0.667256
H    1.262350  2.099307  0.358885
N    -0.880799  0.422405  1.993370
C    -1.399218  -0.788735  2.616649
C    -2.769118  -0.295269  3.207130
O    -2.920273  0.917625  3.359910
H    -1.424473  1.236431  2.346951
H    -1.557128  -1.562208  1.848792
C    -0.509002  -1.327381  3.769171
C    0.782907  -2.020030  3.395590
C    2.020843  -1.340718  3.412068
C    0.819653  -3.404840  3.133591
C    3.234830  -2.006827  3.208000
C    2.026169  -4.096815  2.932708
C    3.256388  -3.407791  3.012546
O    4.463603  -3.984932  2.882280
H    -1.116671  -2.033406  4.352370
H    -0.291064  -0.487923  4.443843
H    2.043217  -0.271049  3.625522
H    -0.108522  -3.979457  3.133375
H    4.183544  -1.473349  3.278768
H    2.010164  -5.179373  2.791136
H    4.416046  -4.957682  2.919976
N    -3.663564  -1.239827  3.533547
C    -4.966294  -0.936446  4.129557
H    -3.465609  -2.207360  3.302158
H    -5.001887  0.133299  4.350987
H    -5.096413  -1.506158  5.056801
H    -5.773625  -1.188025  3.431206
Sr    1.881498  -2.259021  0.608703
