34
Energy: -109019.420751 eV PBE+vdW (tier 2 basis)
C    0.149336  -2.294527  1.181730
C    0.126689  -1.332380  2.323081
O    1.212325  -0.832863  2.773724
H    0.754773  -3.167482  1.463187
H    0.639534  -1.828795  0.316553
H    -0.848528  -2.634066  0.885524
N    -1.038083  -1.006675  2.876682
C    -1.203499  -0.114863  4.031195
C    -2.579425  -0.413453  4.722773
O    -3.399011  0.486016  4.844492
H    -1.880782  -1.410432  2.471733
H    -0.398719  -0.365097  4.741190
C    -1.137338  1.381155  3.648653
C    0.166886  2.086333  3.902181
C    0.805334  2.837486  2.889143
C    0.765390  2.111177  5.181926
C    1.969927  3.578102  3.130850
C    1.933838  2.842080  5.444930
C    2.533824  3.616880  4.425953
O    3.628774  4.377295  4.593041
H    -1.941372  1.865730  4.231019
H    -1.430865  1.499111  2.598255
H    0.365836  2.869909  1.890523
H    0.294021  1.581814  6.012015
H    2.418475  4.186612  2.344624
H    2.337595  2.864299  6.459220
H    3.865282  4.486030  5.532190
N    -2.795927  -1.681992  5.152306
C    -1.880589  -2.815237  5.223264
H    -3.720687  -1.806650  5.559925
H    -2.150450  -3.429420  6.088824
H    -0.845271  -2.484242  5.370869
H    -1.929404  -3.452591  4.328398
Sr    2.684112  0.737731  3.448029
