34
Energy: -109019.554967 eV PBE+vdW (tier 2 basis)
C    0.531156  -0.759115  0.739016
C    0.410590  -0.451521  2.200294
O    1.471877  -0.205337  2.883782
H    1.151606  -1.657115  0.612920
H    1.039169  0.067719  0.224672
H    -0.437038  -0.931943  0.259078
N    -0.797089  -0.449072  2.730473
C    -1.234815  -0.348078  4.120351
C    -2.581141  -1.145123  4.099635
O    -3.112389  -1.326934  2.999905
H    -1.622008  -0.745319  2.164640
H    -0.486705  -0.811411  4.777494
C    -1.515328  1.119672  4.562004
C    -0.265732  1.954172  4.534676
C    0.032839  2.770000  3.433999
C    0.679505  1.853443  5.566564
C    1.292070  3.357213  3.280777
C    1.939728  2.447964  5.448375
C    2.252730  3.151842  4.274392
O    3.617179  3.394955  4.067468
H    -1.938510  1.096737  5.574929
H    -2.284404  1.540421  3.900892
H    -0.713980  2.918206  2.653703
H    0.440695  1.298574  6.474745
H    1.523398  3.946549  2.391756
H    2.666325  2.411000  6.263921
H    3.774948  4.212857  3.560466
N    -3.114040  -1.563419  5.258951
C    -2.598902  -1.431930  6.615531
H    -4.017733  -2.019787  5.145297
H    -2.891963  -2.315146  7.193038
H    -2.998778  -0.541786  7.122248
H    -1.503930  -1.389565  6.618146
Sr    3.354673  0.773275  3.583866
