34
Energy: -109019.722376 eV PBE+vdW (tier 2 basis)
C    1.082509  -0.630473  1.090664
C    -0.250123  0.016105  0.858157
O    -1.104184  -0.453645  0.092692
H    1.775655  -0.017882  1.677633
H    1.535749  -0.878832  0.124045
H    0.916191  -1.579460  1.619767
N    -0.508040  1.182133  1.539259
C    -1.848673  1.757404  1.622394
C    -2.255997  2.520998  0.335187
O    -2.728116  3.715327  0.382374
H    0.219565  1.573514  2.128736
H    -2.546143  0.901929  1.680363
C    -1.929691  2.592041  2.911476
C    -3.242607  3.262430  3.250513
C    -4.503186  2.705437  2.954274
C    -3.236026  4.497067  3.938493
C    -5.698721  3.349492  3.305059
C    -4.417200  5.152545  4.305851
C    -5.671788  4.570358  4.016331
O    -6.762209  5.236406  4.425231
H    -1.142550  3.360790  2.893192
H    -1.671575  1.913208  3.740473
H    -4.573022  1.745412  2.441381
H    -2.281937  4.953215  4.211149
H    -6.653049  2.871707  3.075049
H    -4.387408  6.084988  4.870574
H    -7.578255  4.714134  4.320018
N    -2.133443  1.852529  -0.785413
C    -2.440207  2.362066  -2.116350
H    -1.799701  0.859307  -0.659364
H    -3.469769  2.104046  -2.400219
H    -1.758239  1.895045  -2.833741
H    -2.311937  3.448132  -2.147527
Sr    -4.177871  5.134523  1.324278
