34
Energy: -109019.495641 eV PBE+vdW (tier 2 basis)
C    -0.438849  -0.221335  -0.133998
C    -0.420243  0.579397  1.127061
O    -0.128338  1.817804  1.104856
H    -1.393818  -0.083562  -0.664911
H    -0.287147  -1.291681  0.037252
H    0.350359  0.161249  -0.792365
N    -0.724594  0.001023  2.309559
C    -1.852112  -0.912089  2.480223
C    -3.156111  -0.060586  2.408150
O    -3.097717  1.183075  2.099674
H    -0.519667  0.583920  3.122702
H    -1.869116  -1.599386  1.622129
C    -1.693248  -1.746240  3.777909
C    -2.735139  -2.825431  3.962621
C    -2.852876  -3.889273  3.046592
C    -3.588768  -2.818094  5.077624
C    -3.791666  -4.894578  3.225895
C    -4.530832  -3.825014  5.275758
C    -4.639145  -4.872811  4.348360
O    -5.520008  -5.887798  4.463474
H    -1.703857  -1.068982  4.645753
H    -0.685074  -2.185263  3.730756
H    -2.181440  -3.954543  2.187485
H    -3.504439  -2.022093  5.819697
H    -3.871995  -5.723013  2.523908
H    -5.169625  -3.806128  6.159817
H    -6.026283  -5.819182  5.290901
N    -4.287216  -0.680441  2.660991
C    -5.623568  -0.092806  2.650746
H    -4.193431  -1.656478  2.980603
H    -6.255638  -0.639931  1.941043
H    -5.566902  0.957522  2.357829
H    -6.065069  -0.173473  3.651521
Sr    -1.992966  3.114734  1.548485
