34
Energy: -109019.685249 eV PBE+vdW (tier 2 basis)
C    0.429875  -1.736996  0.245181
C    0.372653  -1.151738  1.617657
O    1.442189  -0.700752  2.169379
H    0.858130  -1.006044  -0.453162
H    -0.551395  -2.054100  -0.120846
H    1.103901  -2.605108  0.257998
N    -0.782884  -1.114262  2.250057
C    -1.060462  -0.703167  3.619839
C    -2.456799  -1.359379  3.886082
O    -3.116276  -1.720162  2.910740
H    -1.652615  -1.504484  1.832913
H    -0.296776  -1.120889  4.292844
C    -1.167336  0.839301  3.791201
C    0.110466  1.605108  4.049744
C    0.555387  2.612028  3.166349
C    0.841070  1.438009  5.244952
C    1.652246  3.431117  3.464361
C    1.942513  2.247389  5.565535
C    2.335691  3.287547  4.693169
O    3.345839  4.141171  4.932565
H    -1.844309  1.041909  4.633768
H    -1.672654  1.241740  2.903821
H    0.012153  2.787986  2.236404
H    0.526062  0.687692  5.972324
H    1.946165  4.237487  2.791244
H    2.447971  2.115148  6.524329
H    3.662502  4.093626  5.853035
N    -2.881151  -1.473739  5.158294
C    -2.163968  -1.170723  6.389632
H    -3.816021  -1.868315  5.240419
H    -2.666990  -1.681719  7.216027
H    -2.158030  -0.094359  6.619018
H    -1.133003  -1.547826  6.357672
Sr    2.812854  0.742505  3.142452
