34
Energy: -109019.747123 eV PBE+vdW (tier 2 basis)
C    0.263534  1.981082  0.741918
C    0.006379  1.181094  1.974283
O    0.931906  0.972437  2.821395
H    0.587430  2.989503  1.035923
H    -0.610844  2.063606  0.088411
H    1.093633  1.530920  0.181294
N    -1.221081  0.686188  2.189045
C    -1.614649  0.023182  3.442436
C    -0.982999  -1.382938  3.547992
O    0.026468  -1.516627  4.318629
H    -1.951115  0.914972  1.518057
H    -1.130697  0.583208  4.255825
C    -3.129054  0.103279  3.723485
C    -3.436074  -0.399575  5.115558
C    -3.849344  -1.720627  5.345060
C    -3.302587  0.452818  6.221168
C    -4.110343  -2.184569  6.627948
C    -3.563563  0.005769  7.513255
C    -3.968036  -1.321815  7.725305
O    -4.248615  -1.831915  8.945985
H    -3.709113  -0.445819  2.971058
H    -3.412300  1.162932  3.629624
H    -4.011338  -2.399314  4.506112
H    -3.029576  1.500491  6.073917
H    -4.454699  -3.202850  6.801055
H    -3.483640  0.694705  8.355539
H    -4.191774  -1.143355  9.629663
N    -1.408502  -2.426836  2.855007
C    -2.474457  -2.538982  1.858070
H    -0.908203  -3.289813  3.070927
H    -2.610523  -1.599866  1.316881
H    -3.421461  -2.838269  2.324007
H    -2.182004  -3.308234  1.135922
Sr    1.874491  -0.193626  4.545582
