34
Energy: -109019.809116 eV PBE+vdW (tier 2 basis)
C    0.586233  0.801910  1.014400
C    0.023160  0.527309  2.366875
O    0.450856  1.130084  3.393871
H    0.097949  0.231643  0.217458
H    1.660245  0.570359  1.018830
H    0.494687  1.875618  0.801541
N    -0.974478  -0.391732  2.482552
C    -1.532724  -0.605665  3.808108
C    -0.715913  -1.609077  4.647590
O    -0.003822  -1.131718  5.584010
H    -1.325766  -0.855507  1.649888
H    -1.274316  0.349333  4.260781
C    -3.057846  -0.605391  4.087316
C    -3.149708  -0.031121  5.494749
C    -2.801072  1.319469  5.702606
C    -3.341320  -0.833545  6.623632
C    -2.576591  1.830826  6.986382
C    -3.148249  -0.337986  7.914295
C    -2.738570  0.989444  8.109702
O    -2.502294  1.542288  9.316967
H    -3.522736  -1.595391  4.020952
H    -3.549828  0.047766  3.352178
H    -2.757058  2.006254  4.850060
H    -3.636061  -1.876889  6.503842
H    -2.409286  2.897326  7.151217
H    -3.316780  -0.988732  8.773608
H    -2.744482  0.936640  10.039628
N    -0.738589  -2.911057  4.406965
C    -1.442109  -3.638825  3.352948
H    -0.135242  -3.462749  5.019059
H    -0.724854  -4.028755  2.619513
H    -2.160862  -2.991385  2.844661
H    -1.989096  -4.480702  3.792927
Sr    0.315522  1.181957  5.808890
