34
Energy: -109019.825049 eV PBE+vdW (tier 2 basis)
C    0.134170  -1.632988  0.451042
C    -0.072344  -1.026169  1.797587
O    0.883819  -0.434984  2.400466
H    0.492417  -0.856887  -0.239091
H    -0.774503  -2.087031  0.043511
H    0.923094  -2.395150  0.511789
N    -1.278337  -1.107765  2.365599
C    -1.643695  -0.393098  3.592008
C    -0.876843  -0.937897  4.808041
O    0.056782  -0.213066  5.297958
H    -2.073924  -1.404406  1.785979
H    -1.285100  0.642957  3.487129
C    -3.195271  -0.323700  3.749436
C    -3.866619  -0.038560  2.431587
C    -4.369027  -1.096370  1.649669
C    -3.967351  1.265059  1.924927
C    -4.943879  -0.867252  0.404302
C    -4.547244  1.510708  0.684831
C    -5.035605  0.443659  -0.088781
O    -5.612180  0.602150  -1.299196
H    -3.404911  0.459694  4.489822
H    -3.584104  -1.259670  4.164423
H    -4.364480  -2.116423  2.043705
H    -3.616656  2.111313  2.518864
H    -5.357639  -1.683088  -0.186296
H    -4.640384  2.535008  0.320768
H    -5.682390  1.543749  -1.531124
N    -1.140285  -2.111937  5.363436
C    -2.079629  -3.165654  4.969386
H    -0.585472  -2.301656  6.198808
H    -2.281513  -3.129038  3.896542
H    -3.018220  -3.083899  5.531746
H    -1.618803  -4.132343  5.199125
Sr    1.880235  0.585020  4.166869
