34
Energy: -109019.741445 eV PBE+vdW (tier 2 basis)
C    0.570676  -3.321934  2.066598
C    0.096999  -3.039225  3.451668
O    0.874852  -3.183079  4.451911
H    0.968901  -4.343955  2.016836
H    1.403018  -2.643629  1.830913
H    -0.212855  -3.199695  1.312009
N    -1.158545  -2.620181  3.641565
C    -1.664691  -2.230652  4.956977
C    -1.782320  -3.458550  5.880771
O    -0.982419  -3.492233  6.883818
H    -1.786935  -2.514338  2.842459
H    -0.864841  -1.646121  5.435157
C    -2.872316  -1.249789  4.876479
C    -4.067037  -1.659554  4.063510
C    -4.043948  -1.603616  2.656292
C    -5.249710  -2.084286  4.683719
C    -5.130825  -2.016199  1.895295
C    -6.354256  -2.484377  3.937958
C    -6.297171  -2.469172  2.534216
O    -7.320491  -2.844815  1.738788
H    -2.448263  -0.312575  4.483845
H    -3.167607  -1.036636  5.913313
H    -3.190098  -1.159144  2.135133
H    -5.317773  -2.092635  5.773041
H    -5.118339  -1.952512  0.808403
H    -7.271756  -2.789251  4.443771
H    -8.105310  -3.075462  2.264572
N    -2.602216  -4.478320  5.682748
C    -3.492330  -4.821416  4.571465
H    -2.540172  -5.182957  6.419647
H    -3.184960  -5.794976  4.169195
H    -3.459513  -4.063789  3.788199
H    -4.524126  -4.891612  4.932256
Sr    1.301375  -3.401311  6.687471
