34
Energy: -109019.877717 eV PBE+vdW (tier 2 basis)
C    0.195564  3.384715  2.314057
C    0.007438  2.028472  2.911047
O    0.178618  0.990656  2.199725
H    0.194579  4.191881  3.053700
H    -0.629397  3.559356  1.606937
H    1.128471  3.413405  1.738823
N    -0.352910  1.955393  4.199193
C    -0.865537  0.804573  4.968579
C    0.210193  -0.231795  5.296691
O    0.725252  -0.951234  4.379644
H    -0.499993  2.854553  4.648644
H    -1.205576  1.251564  5.908542
C    -2.119939  0.128943  4.331990
C    -3.210835  1.121327  4.037328
C    -3.373434  1.655949  2.749375
C    -4.074107  1.560774  5.051618
C    -4.355523  2.598700  2.476204
C    -5.061584  2.506306  4.796146
C    -5.207479  3.035814  3.503468
O    -6.143171  3.951106  3.172128
H    -2.458780  -0.639575  5.043194
H    -1.839736  -0.402967  3.409545
H    -2.741406  1.306444  1.929691
H    -3.995858  1.144935  6.058452
H    -4.498623  2.994631  1.472001
H    -5.733343  2.821743  5.595655
H    -6.705658  4.165280  3.935780
N    0.553065  -0.441779  6.559726
C    0.097996  0.254992  7.769516
H    1.217542  -1.204402  6.692970
H    -0.951443  0.024184  7.990768
H    0.237461  1.338158  7.679207
H    0.708971  -0.095123  8.606008
Sr    0.844185  -1.163982  2.116644
