24
Energy: -568494.33857 eV PBE+vdW (tier 2 basis)
N    -0.273387  0.717589  1.936451
C    0.524318  -0.435158  2.036611
C    1.385519  -0.632208  0.686017
O    1.943555  -1.697468  0.458033
H    -0.192187  1.440065  2.647191
H    -1.206605  0.636171  1.536571
H    1.308713  -0.269757  2.793878
C    -0.204048  -1.810584  2.293497
C    -0.573513  -2.007933  3.711545
C    -1.929429  -1.985333  4.126952
C    0.456111  -2.260696  4.681257
C    -2.251977  -2.229311  5.446520
C    0.132791  -2.505549  5.999846
C    -1.220259  -2.484464  6.393243
H    0.550037  -2.561058  1.981449
H    -1.068169  -1.899303  1.621683
H    -2.717182  -1.800868  3.396256
H    1.498701  -2.299767  4.361636
H    -3.291396  -2.233161  5.772506
H    0.909050  -2.722887  6.731921
H    -1.484409  -2.666253  7.435550
O    1.474680  0.409705  -0.089082
H    0.916270  1.137036  0.288002
Hg    3.369817  -2.003810  -1.634532
