24
Energy: -568494.550552 eV PBE+vdW (tier 2 basis)
N    0.005786  1.346521  1.233279
C    0.182411  0.478798  2.468295
C    1.656499  -0.045449  2.313081
O    2.420058  -0.383841  3.331788
H    0.236050  2.334299  1.410681
H    -0.939209  1.306959  0.829132
H    0.097048  1.127269  3.348864
C    -0.929493  -0.612906  2.481657
C    -0.767231  -1.501842  3.690048
C    -0.219829  -2.794201  3.554726
C    -0.996802  -0.973139  4.975695
C    0.289477  -3.468980  4.665050
C    -0.481584  -1.615450  6.107212
C    0.259918  -2.841498  5.953180
H    -0.877426  -1.205033  1.557150
H    -1.907769  -0.107833  2.508789
H    -0.128886  -3.247753  2.567220
H    -1.522282  -0.025149  5.098616
H    0.744923  -4.453919  4.559147
H    -0.628347  -1.199170  7.104691
H    0.607903  -3.381394  6.836082
O    2.122645  -0.033570  1.184492
H    0.718562  0.971327  0.553392
Hg    1.907579  -1.342046  5.124736
