24
Energy: -568494.689171 eV PBE+vdW (tier 2 basis)
N    -0.210025  1.125176  0.928961
C    -0.140419  -0.245605  1.568721
C    1.247611  -0.822119  1.158556
O    1.714398  -1.641531  2.061483
H    0.264093  1.839050  1.502412
H    -1.173412  1.448242  0.760491
H    -0.221337  -0.125563  2.653211
C    -1.282188  -1.162457  0.998765
C    -0.831647  -2.608153  0.886774
C    -0.241329  -3.053749  -0.308796
C    -0.876219  -3.473088  2.004237
C    0.439576  -4.276736  -0.355054
C    -0.203884  -4.689460  1.994216
C    0.527423  -5.090088  0.834478
H    -1.557598  -0.806307  -0.004768
H    -2.167381  -1.067936  1.640738
H    -0.266142  -2.430625  -1.202296
H    -1.405436  -3.165997  2.906872
H    0.875053  -4.638106  -1.288101
H    -0.221296  -5.341471  2.867219
H    0.963040  -6.090233  0.776248
O    1.680096  -0.545215  0.050192
H    0.307131  1.058058  0.026397
Hg    2.335951  -3.527905  1.240433
