24
Energy: -568494.00684 eV PBE+vdW (tier 2 basis)
N    0.574944  -0.574573  0.050204
C    0.032684  -0.244957  1.346271
C    1.142189  0.208283  2.361233
O    2.333101  0.214085  2.089523
H    0.034415  -0.206581  -0.735349
H    0.743980  -1.574156  -0.085915
H    -0.622222  0.633636  1.225264
C    -0.791600  -1.465933  1.982280
C    -2.194459  -1.515403  1.482955
C    -2.566090  -2.375385  0.432016
C    -3.189071  -0.695895  2.103023
C    -3.893341  -2.453989  0.040435
C    -4.515597  -0.770951  1.711932
C    -4.874158  -1.641024  0.673171
H    -0.786983  -1.343540  3.074512
H    -0.238164  -2.391448  1.772445
H    -1.826774  -3.026500  -0.036353
H    -2.909380  -0.025107  2.917794
H    -4.196872  -3.148261  -0.742481
H    -5.272588  -0.162150  2.203834
H    -5.910401  -1.694901  0.338890
O    0.758257  0.615083  3.551848
H    -0.208806  0.633232  3.684796
Hg    2.947940  0.205437  -0.286329
