24
Energy: -568494.767604 eV PBE+vdW (tier 2 basis)
N    -1.033501  -0.426602  0.175243
C    -0.852490  -0.126806  1.607842
C    0.364397  0.812005  1.748852
O    1.334403  0.735356  0.987355
H    -1.243442  0.410028  -0.379625
H    -1.782215  -1.107821  0.016252
H    -1.750556  0.375489  2.003551
C    -0.642911  -1.439897  2.453783
C    0.702206  -2.123019  2.309267
C    1.718972  -1.907331  3.231931
C    0.985298  -3.027388  1.209078
C    2.977250  -2.526790  3.096277
C    2.284219  -3.630699  1.075171
C    3.272050  -3.362353  2.012741
H    -1.464777  -2.124610  2.193914
H    -0.793619  -1.173574  3.507727
H    1.542091  -1.265235  4.095738
H    0.147522  -3.507743  0.689154
H    3.735941  -2.349968  3.859559
H    2.453517  -4.343158  0.267228
H    4.252466  -3.829075  1.927445
O    0.408669  1.672094  2.738959
H    -0.425933  1.744758  3.244687
Hg    1.162442  -1.274663  -0.295129
