24
Energy: -568494.601248 eV PBE+vdW (tier 2 basis)
N    -0.384979  -0.476625  -0.012531
C    -0.047380  -0.025510  1.402314
C    1.515457  -0.001116  1.526258
O    2.157110  -0.502797  0.579663
H    -1.325651  -0.905639  -0.037875
H    0.330977  -1.155867  -0.327048
H    -0.414446  1.002877  1.514392
C    -0.669379  -0.963949  2.459552
C    -2.165209  -0.961739  2.326640
C    -2.917848  0.155192  2.799393
C    -2.836967  -2.047337  1.732217
C    -4.301303  0.162573  2.707167
C    -4.224058  -2.036728  1.637729
C    -4.960714  -0.926259  2.120514
H    -0.346856  -0.572248  3.436354
H    -0.255892  -1.977467  2.358849
H    -2.403306  0.992709  3.273963
H    -2.280353  -2.929044  1.408199
H    -4.873292  1.004536  3.094246
H    -4.752233  -2.890144  1.213690
H    -6.047504  -0.926906  2.038396
O    1.963415  0.516918  2.583877
H    -0.368182  0.304636  -0.683061
Hg    4.205594  0.102933  2.028100
