24
Energy: -568494.620279 eV PBE+vdW (tier 2 basis)
N    0.298880  -0.342834  0.013587
C    0.051539  -0.204058  1.505457
C    1.504273  -0.023941  2.078923
O    1.756583  0.589923  3.215168
H    0.245744  0.558793  -0.480709
H    -0.337335  -1.001706  -0.454729
H    -0.541717  0.706457  1.658104
C    -0.721793  -1.462863  1.999097
C    -0.887787  -1.509721  3.503216
C    -1.632717  -0.520812  4.175355
C    -0.224848  -2.478129  4.275484
C    -1.530228  -0.383731  5.609384
C    -0.193779  -2.416944  5.679052
C    -0.786760  -1.352127  6.351091
H    -0.183041  -2.363194  1.670271
H    -1.708671  -1.469839  1.509506
H    -2.295083  0.156378  3.630220
H    0.306580  -3.289275  3.775047
H    -2.181259  0.321983  6.131321
H    0.326659  -3.192422  6.240494
H    -0.729344  -1.267494  7.436106
O    2.422905  -0.431017  1.385078
H    1.297484  -0.677767  -0.046682
Hg    0.347075  0.830960  4.765940
