24
Energy: -568494.410368 eV PBE+vdW (tier 2 basis)
N    -0.264658  0.741656  0.274911
C    0.080154  0.019166  1.567697
C    1.562256  -0.463497  1.450619
O    1.940299  -1.376647  2.228429
H    -1.015745  1.432970  0.411081
H    -0.578306  0.065684  -0.443560
H    0.095609  0.788250  2.356280
C    -0.949112  -1.066185  1.928375
C    -1.185673  -2.155557  0.920618
C    -0.506742  -3.401044  1.041906
C    -2.098440  -1.967354  -0.139755
C    -0.696243  -4.400418  0.099592
C    -2.288639  -2.968094  -1.083647
C    -1.586585  -4.192330  -0.964929
H    -1.901207  -0.541939  2.122496
H    -0.609332  -1.488962  2.884253
H    0.146622  -3.571158  1.897719
H    -2.705712  -1.060292  -0.193149
H    -0.184098  -5.356101  0.201447
H    -2.995292  -2.828331  -1.900913
H    -1.769872  -4.988078  -1.686786
O    2.267184  0.167769  0.622699
H    0.584085  1.218016  -0.079739
Hg    4.198447  -1.152523  1.486352
