24
Energy: -568494.745436 eV PBE+vdW (tier 2 basis)
N    0.490023  2.511653  3.489786
C    1.036362  1.103951  3.369989
C    0.634674  0.597154  1.964512
O    -0.492645  0.885097  1.562637
H    0.359364  2.811744  4.466902
H    1.105113  3.200713  3.030969
H    2.121772  1.140109  3.506583
C    0.334273  0.176132  4.424620
C    0.296664  -1.281393  3.995688
C    1.379458  -2.150089  4.240903
C    -0.794044  -1.773631  3.270334
C    1.435310  -3.443343  3.701445
C    -0.730646  -3.073892  2.649135
C    0.416160  -3.903287  2.874346
H    -0.699570  0.526352  4.561170
H    0.854564  0.285136  5.385736
H    2.212257  -1.806423  4.857110
H    -1.704568  -1.182912  3.156578
H    2.289094  -4.083375  3.921038
H    -1.643127  -3.514767  2.236425
H    0.451962  -4.900768  2.436476
O    1.483005  -0.242928  1.462794
H    -0.424053  2.529221  2.993480
Hg    0.186597  -1.877454  0.794346
