24
Energy: -568494.131799 eV PBE+vdW (tier 2 basis)
N    -0.102181  1.212414  0.270129
C    0.061931  0.461307  1.420102
C    1.570626  -0.111077  1.490534
O    2.325057  0.521390  2.212135
H    -0.113307  2.228693  0.313546
H    -0.066893  0.801370  -0.659510
H    -0.035081  1.099662  2.304592
C    -0.935165  -0.793976  1.624894
C    -1.055965  -1.776936  0.524746
C    -1.801386  -1.468460  -0.649475
C    -0.490800  -3.077908  0.660548
C    -1.982301  -2.421192  -1.635783
C    -0.666354  -4.027197  -0.334776
C    -1.405500  -3.700275  -1.490254
H    -1.889774  -0.267833  1.786357
H    -0.634073  -1.265412  2.569183
H    -2.268639  -0.487533  -0.752468
H    0.027498  -3.349421  1.582586
H    -2.571742  -2.191019  -2.522394
H    -0.258598  -5.030407  -0.216998
H    -1.537273  -4.444779  -2.275676
O    1.927355  -1.131033  0.760758
H    1.160362  -1.618791  0.358675
Hg    4.755841  -0.001341  2.440535
