18
Energy: -166046.59077 eV PBE+vdW (tier 2 basis)
N    -0.102865  0.064308  -0.058423
C    0.005070  -0.047279  1.447945
C    1.495637  -0.088636  1.846692
O    2.351685  0.188052  0.952176
H    -0.024511  -0.858268  -0.514913
H    0.664638  0.649958  -0.428790
H    -0.389384  0.889904  1.872637
C    -0.855014  -1.215084  1.995586
O    -0.973687  -0.913913  3.362411
C    -0.334999  -2.614367  1.687680
H    -1.850842  -1.087108  1.510840
H    -1.176896  -1.716040  3.877653
H    -1.050699  -3.362338  2.053901
H    0.633240  -2.799653  2.171257
H    -0.239893  -2.803143  0.607260
O    1.787735  -0.344101  3.052682
H    -1.004135  0.478634  -0.340789
Cd    3.957922  -0.030925  2.604195
