18
Energy: -166046.310452 eV PBE+vdW (tier 2 basis)
N    0.042061  -0.026282  0.043819
C    0.083941  0.016716  1.527966
C    1.496679  0.270085  2.056213
O    2.521414  -0.087790  1.430718
H    -0.156824  0.891387  -0.371597
H    -0.739784  -0.682580  -0.181283
H    -0.595503  0.810864  1.877348
C    -0.443291  -1.397893  2.048683
O    -1.403763  -1.824062  1.095080
C    -0.953304  -1.358454  3.476789
H    0.402133  -2.109158  1.970654
H    -2.297998  -1.850383  1.482291
H    -0.156066  -1.118688  4.193474
H    -1.319441  -2.354983  3.756888
H    -1.774342  -0.637013  3.597922
O    1.679018  0.793915  3.231316
H    0.858660  1.085744  3.681407
Cd    2.064410  -0.781425  -0.585688
