18
Energy: -166046.102176 eV PBE+vdW (tier 2 basis)
N    0.514725  -0.191307  0.109779
C    -0.103402  0.064759  1.470203
C    0.392015  -1.099704  2.342731
O    1.382196  -1.727556  2.083374
H    0.691640  0.678491  -0.411371
H    1.413325  -0.694489  0.253318
H    0.376020  0.974014  1.868543
C    -1.631502  0.297057  1.415403
O    -2.350243  -0.887245  1.120994
C    -2.042195  1.313739  0.329062
H    -1.904699  0.735958  2.389291
H    -0.090896  -0.793663  -0.469929
H    -3.105573  1.548770  0.438866
H    -1.896176  0.921298  -0.686148
H    -1.469392  2.245094  0.456481
O    -0.398421  -1.323579  3.440997
H    0.104184  -1.911862  4.050282
Cd    -2.839605  -2.175772  2.633124
