18
Energy: -166046.129396 eV PBE+vdW (tier 2 basis)
N    0.297232  -0.408377  0.176126
C    -0.084901  -0.016419  1.581299
C    0.992771  -0.699637  2.456753
O    1.910995  -1.292924  1.927534
H    0.402498  0.388307  -0.463440
H    1.228988  -0.897474  0.311746
H    0.018177  1.073458  1.685477
C    -1.560043  -0.373644  1.958445
O    -1.636646  -1.780886  1.722802
C    -2.588290  0.433857  1.183847
H    -1.619033  -0.147535  3.035633
H    -0.362682  -1.084860  -0.229649
H    -2.558349  0.243673  0.102233
H    -2.476094  1.512120  1.359076
H    -3.600578  0.174952  1.544004
O    0.781840  -0.509957  3.747293
H    1.519087  -0.893850  4.270741
Cd    -3.348973  -2.806807  2.114078
