18
Energy: -166046.420525 eV PBE+vdW (tier 2 basis)
N    0.024554  0.686552  0.036568
C    0.295971  0.116586  1.410679
C    1.701089  -0.554414  1.260177
O    2.267004  -1.166692  2.268762
H    -0.766255  0.248834  -0.455634
H    0.918764  0.463397  -0.494153
H    0.379936  0.962282  2.107463
C    -0.861357  -0.804488  1.878350
O    -0.675490  -0.955870  3.342871
C    -0.959869  -2.145993  1.180683
H    -1.800266  -0.234947  1.779893
H    -1.523835  -1.215727  3.751809
H    -0.041461  -2.741361  1.285747
H    -1.145171  -2.025316  0.102553
H    -1.807915  -2.724113  1.569022
O    2.262268  -0.458238  0.180967
H    -0.126561  1.704339  0.042342
Cd    1.357594  -1.668828  4.059902
