18
Energy: -166046.214487 eV PBE+vdW (tier 2 basis)
N    -0.037087  0.524329  -0.037124
C    0.275746  0.081682  1.315674
C    1.619113  -0.696420  1.192997
O    2.229724  -1.299928  2.127000
H    -0.135348  1.534654  -0.144171
H    -0.818361  0.050681  -0.492922
H    0.491883  0.961121  1.944810
C    -0.877064  -0.708545  1.983963
O    -0.566136  -0.720730  3.461128
C    -1.130901  -2.106130  1.464997
H    -1.780909  -0.084339  1.910504
H    -1.392167  -0.851637  3.969872
H    -1.404459  -2.081331  0.399651
H    -1.977310  -2.572349  1.985001
H    -0.250744  -2.761948  1.553157
O    2.136666  -0.669104  0.029637
H    1.425420  -0.117941  -0.510883
Cd    1.369933  -1.613063  4.035707
