18
Energy: -166045.83175 eV PBE+vdW (tier 2 basis)
N    0.535356  -0.590763  0.071402
C    -0.017043  -0.108827  1.245092
C    0.987238  0.340642  2.329387
O    0.605105  0.526065  3.490121
H    0.202728  -0.273355  -0.835902
H    1.277203  -1.287315  0.064299
H    -0.656615  0.760991  1.030655
C    -1.037281  -1.208298  1.968021
O    -1.565417  -0.476867  3.086736
C    -0.380355  -2.510317  2.350042
H    -1.844014  -1.340639  1.236898
H    -0.702760  -0.009526  3.528234
H    0.444907  -2.391095  3.064473
H    -0.019181  -3.050737  1.466260
H    -1.139444  -3.161735  2.816300
O    2.204815  0.521723  1.898200
H    2.799059  0.852378  2.611413
Cd    -3.133933  -1.141783  4.541777
