18
Energy: -166046.863101 eV PBE+vdW (tier 2 basis)
N    1.046122  -0.842617  0.459759
C    0.140812  -0.305995  1.510884
C    0.977420  -0.005611  2.776186
O    1.933941  -0.732416  3.104718
H    0.511166  -1.176549  -0.349682
H    1.700199  -0.129947  0.116477
H    -0.362212  0.610495  1.166074
C    -0.962399  -1.362765  1.855516
O    -0.238545  -2.621712  2.103757
C    -2.007990  -1.529527  0.771508
H    -1.431466  -1.059610  2.804294
H    -0.818192  -3.287098  2.517549
H    -2.556831  -0.588105  0.627615
H    -2.744230  -2.286406  1.072545
H    -1.587371  -1.841856  -0.194616
O    0.660110  0.979410  3.565803
H    -0.054474  1.564502  3.239179
Cd    2.003650  -2.477968  1.752017
