29
Energy: -605776.666412 eV PBE+vdW (tier 2 basis)
C    0.366326  0.308412  -0.118395
C    -0.223771  1.069043  1.017597
O    0.062580  2.313126  1.146295
H    0.045829  0.782168  -1.058127
H    0.073023  -0.746427  -0.130508
H    1.461420  0.385465  -0.083680
N    -1.054574  0.451593  1.858251
C    -1.859518  1.080535  2.919822
C    -0.953820  1.301761  4.148723
O    -0.250127  2.375073  4.232011
H    -1.241709  -0.531950  1.669792
H    -2.136085  2.087409  2.565263
C    -3.175784  0.306192  3.169749
C    -4.037904  1.048559  4.201861
C    -3.954965  0.109824  1.860032
H    -2.924333  -0.699032  3.561599
H    -4.363633  2.022597  3.810222
H    -3.532835  1.220038  5.161436
H    -4.943085  0.467859  4.413571
H    -4.206496  1.075544  1.399137
H    -4.898101  -0.406981  2.072466
H    -3.425712  -0.497723  1.114143
N    -0.890650  0.384696  5.087195
C    -0.061485  0.428632  6.294614
H    -1.513098  -0.416412  4.985588
H    0.523365  1.350019  6.304559
H    0.606260  -0.441294  6.307089
H    -0.711526  0.392254  7.177360
Pb    0.399407  3.873021  2.698336
