29
Energy: -605775.117078 eV PBE+vdW (tier 2 basis)
C    -1.002419  0.512916  -0.139734
C    -1.141240  0.806086  1.310287
O    -0.701775  1.989680  1.740540
H    0.063012  0.414896  -0.395564
H    -1.405908  1.348836  -0.726576
H    -1.515661  -0.409233  -0.426409
N    -1.654931  0.013624  2.195084
C    -2.234553  -1.327514  2.078970
C    -3.006848  -1.403123  3.433810
O    -2.745356  -0.531483  4.285298
H    -1.813376  0.276448  3.225251
H    -2.935286  -1.361182  1.231607
C    -1.136120  -2.429411  1.900234
C    -0.199342  -2.524162  3.107403
C    -1.754305  -3.785644  1.541745
H    -0.548304  -2.100779  1.026600
H    0.290755  -1.569192  3.340852
H    0.591817  -3.255965  2.904631
H    -0.730132  -2.858579  4.009253
H    -2.231095  -4.265024  2.407408
H    -0.962580  -4.468432  1.209489
H    -2.484287  -3.715923  0.722792
N    -3.890813  -2.386596  3.596915
C    -4.672202  -2.589382  4.815853
H    -4.028823  -3.041223  2.832394
H    -4.435534  -1.791051  5.522986
H    -4.424236  -3.560586  5.262210
H    -5.742593  -2.568549  4.578247
Pb    -0.065864  3.870548  2.372423
