29
Energy: -605776.608479 eV PBE+vdW (tier 2 basis)
C    -0.425792  -0.015327  -0.253737
C    -0.215703  -0.121191  1.220888
O    0.967937  -0.342482  1.642792
H    -1.468929  0.156503  -0.538067
H    -0.069254  -0.941361  -0.726515
H    0.197561  0.799515  -0.647256
N    -1.280883  0.012456  2.017608
C    -1.476310  -0.112553  3.485566
C    -0.733868  0.969655  4.277987
O    0.542084  1.061633  4.312333
H    -2.147322  0.173590  1.510321
H    -2.544619  0.116733  3.595343
C    -1.351514  -1.552760  4.081852
C    -2.275470  -2.509975  3.314628
C    0.049721  -2.164791  4.222406
H    -1.753979  -1.441490  5.102767
H    -2.322438  -3.477782  3.827778
H    -1.917027  -2.697172  2.293311
H    -3.302514  -2.125387  3.255856
H    -0.019261  -3.150288  4.704106
H    0.695637  -1.586603  4.914507
H    0.526895  -2.352017  3.247317
N    -1.470764  1.806884  4.986140
C    -0.962306  2.868027  5.859713
H    -2.482668  1.722679  4.914995
H    -1.521498  2.847818  6.801462
H    -1.105128  3.843798  5.377872
H    0.100058  2.705784  6.052621
Pb    2.243763  -0.119790  3.451784
