29
Energy: -605775.436099 eV PBE+vdW (tier 2 basis)
C    0.607379  0.906617  2.662865
C    0.077338  -0.130443  3.593371
O    0.915278  -0.916000  4.190647
H    0.121232  1.880752  2.802969
H    0.438494  0.590433  1.621185
H    1.686279  1.014579  2.810014
N    -1.212094  -0.361067  3.870919
C    -2.329058  0.322550  3.239405
C    -2.652239  1.621468  3.953920
O    -2.534246  1.559863  5.264043
H    -2.764830  2.384999  5.737886
H    -2.078391  0.565512  2.196840
C    -3.582114  -0.629048  3.175953
C    -4.146676  -1.022967  4.543258
C    -4.683712  -0.089944  2.259529
H    -3.156133  -1.526197  2.694361
H    -4.698414  -0.202053  5.020717
H    -3.383528  -1.348115  5.270271
H    -4.849013  -1.857259  4.426272
H    -4.309985  0.154471  1.256736
H    -5.180319  0.795232  2.682353
H    -5.463144  -0.851246  2.133950
N    -3.041259  2.720076  3.354617
C    -3.192972  2.999475  1.916500
H    -3.286246  3.513399  3.953247
H    -2.767042  3.988942  1.717639
H    -4.256641  3.001568  1.651696
H    -2.669902  2.252149  1.317006
Pb    -0.664043  -2.212747  5.168829
