29
Energy: -605775.494247 eV PBE+vdW (tier 2 basis)
C    0.737629  0.855659  3.213710
C    0.029802  0.071459  4.262021
O    0.725945  -0.514272  5.179234
H    1.719592  1.162433  3.590016
H    0.173222  1.736577  2.885782
H    0.912759  0.213694  2.334828
N    -1.300856  -0.118774  4.351849
C    -2.247335  0.180003  3.273552
C    -2.708037  1.622182  3.406480
O    -2.782278  2.145734  4.610366
H    -2.358003  1.528671  5.245642
H    -1.778921  0.046590  2.286634
C    -3.451579  -0.821497  3.392076
C    -4.659083  -0.469962  2.517546
C    -2.974012  -2.243522  3.076640
H    -3.773517  -0.768304  4.448911
H    -5.089882  0.509788  2.759979
H    -5.453361  -1.208591  2.679251
H    -4.411169  -0.499121  1.448187
H    -3.761076  -2.972774  3.302833
H    -2.074818  -2.560086  3.643509
H    -2.704736  -2.355350  2.016974
N    -3.055584  2.412327  2.427196
C    -3.101291  2.151199  0.985805
H    -3.355086  3.347819  2.719961
H    -2.587618  1.219340  0.739806
H    -2.612564  2.985021  0.469461
H    -4.145714  2.088479  0.657082
Pb    -0.945431  -1.832724  5.947670
