29
Energy: -605776.500302 eV PBE+vdW (tier 2 basis)
C    0.508817  -1.201095  0.188496
C    0.220587  -0.614995  1.526313
O    1.118532  0.094875  2.101764
H    1.414992  -1.819305  0.247893
H    0.729425  -0.383342  -0.513109
H    -0.317745  -1.800596  -0.206731
N    -0.970782  -0.822581  2.093821
C    -1.439008  -0.190619  3.333790
C    -0.729666  -0.840462  4.541606
O    0.261293  -0.203889  5.070724
H    -1.649888  -1.360934  1.558486
H    -1.061783  0.845584  3.327796
C    -2.982452  -0.078813  3.389139
C    -3.423191  0.482183  4.747167
C    -3.480722  0.807251  2.237974
H    -3.413776  -1.084384  3.262342
H    -3.123732  -0.144661  5.598130
H    -4.515981  0.562290  4.776308
H    -3.022142  1.492602  4.911774
H    -3.093678  1.832407  2.327782
H    -4.575082  0.866695  2.269614
H    -3.212654  0.426951  1.243016
N    -1.054342  -2.007833  5.057544
C    -2.124978  -2.944045  4.697991
H    -0.477592  -2.276726  5.857618
H    -3.070396  -2.655762  5.174381
H    -1.835670  -3.934480  5.061821
H    -2.252885  -2.999908  3.613551
Pb    1.868499  0.951593  4.029001
