29
Energy: -605775.100553 eV PBE+vdW (tier 2 basis)
C    -1.131715  -0.294572  -0.482880
C    -1.019293  0.294653  0.875126
O    -0.480761  1.512945  0.965000
H    -0.129281  -0.510292  -0.880038
H    -1.603857  0.433383  -1.156428
H    -1.710341  -1.221376  -0.484686
N    -1.410701  -0.247737  1.984549
C    -2.102609  -1.503819  2.288442
C    -2.854932  -1.088836  3.591737
O    -2.516962  -0.018188  4.131574
H    -1.470298  0.305464  2.900014
H    -2.812155  -1.749781  1.485758
C    -1.139907  -2.710921  2.540147
C    -0.436408  -3.173008  1.262219
C    -0.149463  -2.445342  3.677795
H    -1.815962  -3.523434  2.854949
H    0.305904  -2.441204  0.912259
H    -1.139740  -3.387743  0.446230
H    0.114073  -4.100304  1.464036
H    0.432206  -3.352859  3.878289
H    -0.643258  -2.159188  4.615071
H    0.568493  -1.654902  3.415025
N    -3.791883  -1.916670  4.052994
C    -4.560663  -1.682746  5.274877
H    -3.982571  -2.769518  3.534157
H    -5.633127  -1.703259  5.047993
H    -4.287095  -0.705748  5.680233
H    -4.335796  -2.461977  6.014070
Pb    0.288102  3.445978  1.070489
