29
Energy: -605775.769729 eV PBE+vdW (tier 2 basis)
C    0.390923  -0.352852  1.107500
C    -0.394684  0.430117  2.091442
O    0.171530  1.390200  2.737423
H    -0.070911  -1.304813  0.832527
H    1.422304  -0.492462  1.448462
H    0.442499  0.258728  0.188373
N    -1.694059  0.185034  2.336293
C    -2.275987  -1.157514  2.557115
C    -1.376445  -1.824648  3.629687
O    -0.728844  -1.099959  4.479617
H    -2.172457  0.944642  2.819859
H    -3.228164  -0.947140  3.072899
C    -2.648350  -1.991240  1.293016
C    -3.797545  -2.969385  1.607438
C    -3.068468  -1.075444  0.135340
H    -1.762094  -2.567835  0.976117
H    -3.984832  -3.609187  0.737488
H    -4.725174  -2.418710  1.817787
H    -3.631533  -3.639702  2.463925
H    -3.383195  -1.690411  -0.716014
H    -2.261511  -0.421764  -0.215377
H    -3.922922  -0.443545  0.414831
N    -1.300800  -3.134258  3.685860
C    -0.561649  -3.923723  4.674543
H    -1.835319  -3.649285  2.986387
H    -1.189398  -4.764100  4.990030
H    -0.317911  -3.300937  5.537493
H    0.359223  -4.316671  4.224678
Pb    0.197772  0.914865  4.947260
