29
Energy: -605776.631617 eV PBE+vdW (tier 2 basis)
C    -0.250109  0.757449  -0.504383
C    -0.500294  1.383870  0.823452
O    -0.038440  2.560531  1.049842
H    0.829553  0.731140  -0.703462
H    -0.698196  1.397380  -1.279256
H    -0.664627  -0.252290  -0.590472
N    -1.216790  0.723212  1.731177
C    -1.752609  1.232377  3.003574
C    -0.670532  1.146375  4.097844
O    0.319970  1.967709  4.067606
H    -1.547461  -0.203198  1.462720
H    -1.926248  2.313456  2.870867
C    -3.131081  0.581377  3.305242
C    -4.216564  1.247623  2.446762
C    -3.169495  -0.949120  3.135172
H    -3.349650  0.829798  4.356941
H    -4.041211  1.090726  1.372762
H    -4.280642  2.327700  2.633271
H    -5.197196  0.816142  2.679458
H    -2.345799  -1.499422  3.615010
H    -3.186396  -1.248380  2.075279
H    -4.102417  -1.337634  3.560338
N    -0.769620  0.264319  5.065762
C    0.169920  0.080150  6.174985
H    -1.582795  -0.349521  5.043256
H    -0.381395  0.137866  7.120853
H    0.935598  0.857077  6.140847
H    0.638393  -0.908733  6.094222
Pb    0.949133  3.641024  2.718335
