29
Energy: -605775.506196 eV PBE+vdW (tier 2 basis)
C    0.985296  -0.424400  2.884305
C    0.194815  -0.380205  4.145769
O    0.769493  -0.744265  5.248800
H    2.051535  -0.462765  3.128884
H    0.791095  0.438323  2.234794
H    0.736236  -1.337874  2.322402
N    -1.085351  -0.009513  4.276901
C    -1.981215  0.273002  3.180288
C    -2.642807  1.622112  3.359312
O    -2.745047  2.034021  4.609349
H    -3.197747  2.895790  4.716699
H    -1.415758  0.317271  2.237251
C    -3.082327  -0.846943  2.998184
C    -2.456274  -2.074187  2.329887
C    -3.785075  -1.209466  4.309575
H    -3.841160  -0.434448  2.313684
H    -1.667852  -2.519909  2.953066
H    -2.026974  -1.835551  1.347912
H    -3.219718  -2.846553  2.174971
H    -4.154654  -0.343129  4.876128
H    -3.134780  -1.822402  4.961210
H    -4.652655  -1.849345  4.104377
N    -3.125286  2.327018  2.367514
C    -3.109927  2.014729  0.928481
H    -3.603783  3.201929  2.596764
H    -2.825171  2.921521  0.383920
H    -4.113101  1.702249  0.612723
H    -2.392752  1.221127  0.708575
Pb    -1.090053  -0.566139  6.526273
