29
Energy: -605775.992456 eV PBE+vdW (tier 2 basis)
C    -0.156655  2.500180  -0.214438
C    -0.077748  1.171045  0.439905
O    1.072019  0.655514  0.703170
H    0.240801  3.283653  0.447869
H    -1.164185  2.761445  -0.548981
H    0.517058  2.475814  -1.085417
N    -1.177748  0.470669  0.767978
C    -2.344483  1.031324  1.450418
C    -1.864326  1.458710  2.860040
O    -0.740646  1.047203  3.338800
H    -1.011249  -0.514529  0.984378
H    -2.682195  1.927611  0.910657
C    -3.507227  -0.010664  1.455068
C    -3.176491  -1.270221  2.264485
C    -4.840563  0.605120  1.893451
H    -3.603371  -0.285374  0.391811
H    -2.280600  -1.806500  1.911881
H    -3.998770  -1.990398  2.175673
H    -3.053632  -1.053034  3.335632
H    -5.655197  -0.092088  1.662854
H    -5.066565  1.540684  1.361642
H    -4.890856  0.778949  2.978200
N    -2.641756  2.248922  3.568739
C    -2.389545  2.736512  4.927770
H    -3.520374  2.534903  3.137879
H    -1.544785  2.198346  5.361205
H    -3.285905  2.568455  5.535533
H    -2.174743  3.812264  4.900129
Pb    1.305739  0.174486  2.902669
