29
Energy: -605774.931985 eV PBE+vdW (tier 2 basis)
C    -1.238503  0.626179  0.246129
C    -0.983043  0.572740  1.707848
O    -0.293704  1.580992  2.243779
H    -0.284030  0.598379  -0.298496
H    -1.732858  1.575974  -0.001500
H    -1.858329  -0.205320  -0.097375
N    -1.382220  -0.354888  2.520207
C    -2.174069  -1.577812  2.329773
C    -2.897081  -1.630738  3.712605
O    -2.288243  -1.102983  4.663703
H    -1.268832  -0.278001  3.573222
H    -2.859561  -1.466533  1.480944
C    -1.224809  -2.812645  2.130722
C    -2.000864  -4.134563  2.135920
C    -0.389979  -2.679448  0.853929
H    -0.547594  -2.810214  3.000859
H    -1.292389  -4.960390  1.997509
H    -2.724657  -4.189816  1.311365
H    -2.521755  -4.317537  3.082507
H    0.269816  -3.550817  0.760162
H    0.263123  -1.796385  0.852405
H    -1.020693  -2.656821  -0.046519
N    -4.096388  -2.202703  3.851987
C    -4.986281  -2.796813  2.859941
H    -4.434189  -2.185194  4.814809
H    -5.988547  -2.366550  2.972702
H    -5.051631  -3.883630  2.998684
H    -4.635183  -2.595570  1.845022
Pb    0.763426  3.178175  3.068335
