29
Energy: -605776.593199 eV PBE+vdW (tier 2 basis)
C    -0.169556  -1.123286  -0.795417
C    -0.544873  -0.268919  0.367615
O    0.215242  -0.270466  1.393525
H    -0.875595  -1.061675  -1.629900
H    -0.101672  -2.166941  -0.455751
H    0.833516  -0.839727  -1.142744
N    -1.670270  0.451070  0.295018
C    -2.347444  1.268316  1.328349
C    -1.587519  2.584970  1.536296
O    -0.498228  2.612972  2.215206
H    -2.185619  0.346203  -0.575402
H    -3.320263  1.508959  0.882223
C    -2.673726  0.554392  2.666786
C    -3.531212  1.480517  3.538358
C    -3.331093  -0.807891  2.438597
H    -1.726176  0.360176  3.230601
H    -3.733863  1.008927  4.506913
H    -4.503874  1.667154  3.061241
H    -3.055769  2.450866  3.737827
H    -4.268604  -0.696685  1.874768
H    -3.585136  -1.265366  3.402094
H    -2.687405  -1.512394  1.898424
N    -2.043813  3.714920  1.033916
C    -3.266544  3.952829  0.252720
H    -1.468305  4.532823  1.244991
H    -3.317931  3.286636  -0.615811
H    -3.231424  4.982425  -0.113748
H    -4.160242  3.837630  0.878183
Pb    0.708398  0.984566  3.172122
