29
Energy: -605776.052349 eV PBE+vdW (tier 2 basis)
C    -0.715506  -0.297340  -1.270549
C    -0.187524  0.308972  -0.031741
O    0.870892  0.945396  0.037438
H    -1.781235  -0.064271  -1.411126
H    -0.656495  -1.397568  -1.179425
H    -0.127677  0.014135  -2.139226
N    -0.880371  0.141585  1.234205
C    -1.950951  1.160512  1.554759
C    -1.293733  2.505837  1.843271
O    -0.203465  2.539118  2.526778
H    -1.345971  -0.773690  1.288633
H    -2.630285  1.243570  0.693492
C    -2.760540  0.645346  2.787725
C    -3.815302  1.665620  3.235370
C    -3.414113  -0.710232  2.485472
H    -2.033064  0.519704  3.609562
H    -4.349252  1.269800  4.107167
H    -4.565719  1.843923  2.453152
H    -3.381095  2.625680  3.541192
H    -3.995816  -1.032948  3.357799
H    -2.704287  -1.532408  2.298748
H    -4.108876  -0.647108  1.636083
N    -1.827259  3.648868  1.462275
C    -3.068640  3.933078  0.737688
H    -1.302599  4.468702  1.778859
H    -3.827771  4.310535  1.434107
H    -3.453261  3.039301  0.241194
H    -2.860915  4.701100  -0.015466
Pb    1.282831  0.879781  2.442563
