29
Energy: -605775.570565 eV PBE+vdW (tier 2 basis)
C    0.868208  0.819727  3.470332
C    -0.051372  0.299338  4.518581
O    0.447656  -0.133230  5.626067
H    0.435009  1.644547  2.892285
H    1.124974  0.007055  2.771106
H    1.803015  1.145158  3.939786
N    -1.397017  0.218591  4.428663
C    -2.121439  0.330586  3.164434
C    -2.654567  1.749266  3.012302
O    -2.672092  2.521402  4.071077
H    -2.225924  2.025478  4.799033
H    -1.451067  0.127862  2.314290
C    -3.289747  -0.714586  3.102456
C    -2.737708  -2.140820  3.170147
C    -4.387927  -0.461859  4.139164
H    -3.742696  -0.601343  2.105543
H    -2.369123  -2.416816  4.180695
H    -1.914786  -2.319273  2.466231
H    -3.532175  -2.866868  2.956819
H    -4.030811  -0.553032  5.180181
H    -5.187959  -1.203800  4.028279
H    -4.850446  0.529705  4.046605
N    -3.121035  2.266495  1.908077
C    -3.205371  1.663452  0.573528
H    -3.468340  3.226357  1.992281
H    -2.898427  2.415318  -0.161568
H    -4.239160  1.361912  0.363166
H    -2.542000  0.798279  0.492656
Pb    -1.430675  -1.179899  6.343782
