29
Energy: -605776.632518 eV PBE+vdW (tier 2 basis)
C    -0.146141  0.984269  -0.328313
C    -0.492663  1.530827  1.013032
O    -0.074540  2.702675  1.330974
H    -0.555483  1.660042  -1.094061
H    -0.534871  -0.025311  -0.496853
H    0.944437  0.985748  -0.457735
N    -1.246869  0.805943  1.837344
C    -1.872432  1.233216  3.098897
C    -0.858570  1.109940  4.253186
O    0.111742  1.952124  4.329707
H    -1.537536  -0.111123  1.499488
H    -2.063603  2.316096  3.013322
C    -3.250798  0.538278  3.277968
C    -4.296971  1.228020  2.389791
C    -3.241755  -0.981071  3.024407
H    -3.539823  0.724140  4.325584
H    -5.279514  0.764497  2.537137
H    -4.052126  1.133684  1.322081
H    -4.398114  2.294760  2.629166
H    -4.189688  -1.411434  3.368340
H    -2.436488  -1.539727  3.525400
H    -3.185626  -1.222188  1.951128
N    -0.996538  0.174167  5.164260
C    -0.124458  -0.051051  6.319938
H    -1.792102  -0.453718  5.057433
H    0.364679  -1.028153  6.220987
H    -0.733975  -0.047664  7.231276
H    0.628522  0.737215  6.371279
Pb    0.782702  3.709511  3.113631
