29
Energy: -605775.440102 eV PBE+vdW (tier 2 basis)
C    0.047805  0.627472  1.757364
C    -1.028727  1.113144  2.654624
O    -0.924923  2.268904  3.211705
H    -0.024258  -0.437602  1.521594
H    1.037308  0.884344  2.151992
H    -0.062044  1.180863  0.807344
N    -2.126127  0.383125  2.913568
C    -2.118952  -1.062837  3.239698
C    -1.050010  -1.205083  4.361836
O    -0.917575  -0.200565  5.178456
H    -2.894869  0.914931  3.320076
H    -3.066558  -1.201382  3.789807
C    -2.206005  -2.038757  2.028563
C    -2.961886  -3.310279  2.451636
C    -2.930913  -1.380498  0.845656
H    -1.189333  -2.294926  1.693561
H    -2.858788  -4.087961  1.685882
H    -4.034183  -3.091979  2.554586
H    -2.625835  -3.739385  3.403433
H    -3.064693  -2.125597  0.052250
H    -2.379295  -0.538366  0.411478
H    -3.932136  -1.027390  1.129668
N    -0.289011  -2.250111  4.620049
C    -0.068201  -3.560123  3.992522
H    0.258503  -2.109448  5.472767
H    -0.635468  -4.329938  4.530878
H    1.000072  -3.785962  4.081316
H    -0.346226  -3.558981  2.941109
Pb    -0.883673  2.040386  5.465580
