29
Energy: -605775.976006 eV PBE+vdW (tier 2 basis)
C    0.850215  0.463855  1.890010
C    0.153047  1.704022  2.311087
O    0.822185  2.792187  2.470599
H    1.715337  0.332499  2.559087
H    1.269960  0.577536  0.879504
H    0.219814  -0.427794  1.942469
N    -1.171849  1.732656  2.537124
C    -2.178330  1.159568  1.636058
C    -2.022546  1.909454  0.292936
O    -1.478899  3.078190  0.244076
H    -1.500242  2.553173  3.051001
H    -1.965614  0.091830  1.475775
C    -3.587904  1.292909  2.291342
C    -4.720766  0.832059  1.367748
C    -3.605503  0.513300  3.613572
H    -3.736949  2.368412  2.502886
H    -5.669400  0.878348  1.915622
H    -4.593185  -0.216420  1.057194
H    -4.844791  1.462661  0.478579
H    -4.562266  0.678260  4.123086
H    -2.811794  0.816027  4.308853
H    -3.506557  -0.566772  3.435450
N    -2.466555  1.331167  -0.802133
C    -2.466829  1.894002  -2.154985
H    -2.901407  0.415468  -0.692707
H    -1.846689  1.270269  -2.810340
H    -2.078332  2.913367  -2.129398
H    -3.494244  1.900989  -2.538613
Pb    0.038091  4.479780  1.180120
