29
Energy: -605775.635531 eV PBE+vdW (tier 2 basis)
C    -0.834549  1.367560  1.590880
C    -1.395105  1.213036  2.956610
O    -1.084769  2.107537  3.838461
H    0.235393  1.107848  1.578832
H    -0.884429  2.440149  1.349517
H    -1.363404  0.793841  0.829662
N    -2.259044  0.251340  3.340703
C    -2.105583  -1.221802  3.231576
C    -1.224192  -1.597395  4.438640
O    -0.310064  -0.779437  4.856562
H    -2.732157  0.514979  4.207806
H    -3.110899  -1.638368  3.387838
C    -1.588807  -1.736233  1.855764
C    -1.194938  -3.218854  1.865512
C    -2.664169  -1.478871  0.789289
H    -0.675095  -1.172429  1.617331
H    -0.391598  -3.452111  2.576283
H    -0.819603  -3.483429  0.869685
H    -2.054181  -3.873193  2.059475
H    -2.252408  -1.665483  -0.210080
H    -3.065288  -0.457452  0.804554
H    -3.513604  -2.162780  0.924702
N    -1.375027  -2.732452  5.091740
C    -2.343835  -3.818902  4.918532
H    -0.696612  -2.868639  5.844754
H    -3.164345  -3.517608  4.264154
H    -2.744769  -4.078866  5.904991
H    -1.846028  -4.698330  4.492539
Pb    0.170110  1.328345  5.525688
