29
Energy: -605776.148814 eV PBE+vdW (tier 2 basis)
C    0.116286  2.311102  1.487806
C    -0.250791  1.099213  2.247018
O    -0.217417  1.011357  3.480640
H    0.281801  3.158304  2.160119
H    -0.639936  2.553543  0.726594
H    1.050941  2.111790  0.931905
N    -0.639523  -0.121189  1.561038
C    -2.103752  -0.260014  1.217443
C    -2.909682  -0.463566  2.498706
O    -2.449149  -1.206642  3.437297
H    -0.131973  -0.231991  0.673509
H    -2.443587  0.658463  0.710222
C    -2.269892  -1.461746  0.234567
C    -3.748120  -1.704761  -0.097837
C    -1.456481  -1.234732  -1.047690
H    -1.880952  -2.355216  0.755000
H    -3.825342  -2.522728  -0.823568
H    -4.211124  -0.821792  -0.562794
H    -4.341870  -1.999783  0.775800
H    -1.611021  -2.080469  -1.728879
H    -0.365502  -1.187631  -0.898039
H    -1.777098  -0.326504  -1.577336
N    -4.103822  0.082899  2.587722
C    -5.056301  -0.109515  3.686021
H    -4.426272  0.632508  1.792689
H    -5.924323  -0.672463  3.320174
H    -5.390060  0.870886  4.044540
H    -4.573923  -0.661453  4.494923
Pb    -0.248117  -1.408867  3.768412
