29
Energy: -605775.892432 eV PBE+vdW (tier 2 basis)
C    -0.550878  0.318501  -1.010214
C    -0.282393  -0.015433  0.410370
O    0.919903  -0.257438  0.796530
H    -0.032976  1.245012  -1.297761
H    -1.616192  0.383622  -1.246890
H    -0.098020  -0.477969  -1.622534
N    -1.269383  -0.074202  1.323083
C    -2.298301  0.962285  1.497244
C    -1.532829  2.274204  1.741679
O    -0.373111  2.243232  2.318796
H    -1.015588  -0.544332  2.194821
H    -2.906688  1.041433  0.586281
C    -3.215557  0.541660  2.689872
C    -4.203080  1.632423  3.113286
C    -3.944152  -0.761522  2.337399
H    -2.534807  0.357091  3.542862
H    -4.785055  1.269506  3.968745
H    -4.922685  1.862369  2.316363
H    -3.713595  2.560007  3.437357
H    -4.508530  -1.112213  3.209837
H    -3.268324  -1.574249  2.040375
H    -4.661934  -0.602777  1.520570
N    -2.012434  3.448114  1.385486
C    -3.269382  3.795887  0.715778
H    -1.414686  4.238250  1.639107
H    -3.957813  4.259117  1.432966
H    -3.745323  2.912599  0.284723
H    -3.047729  4.513454  -0.082177
Pb    1.577548  1.110912  2.485827
