29
Energy: -605774.994282 eV PBE+vdW (tier 2 basis)
C    0.515651  1.141594  0.767726
C    -0.036059  0.216605  1.798006
O    0.729894  -0.136393  2.824904
H    0.797766  2.095899  1.236150
H    -0.210032  1.346710  -0.025696
H    1.414641  0.701405  0.311983
N    -1.241477  -0.248477  1.701804
C    -2.014814  -1.159562  2.545057
C    -3.143970  -1.561864  1.544525
O    -3.254283  -0.875272  0.514203
H    -1.872358  -0.057652  0.857023
H    -1.399047  -2.029069  2.818704
C    -2.535696  -0.450441  3.842083
C    -3.491963  0.705226  3.534512
C    -3.147363  -1.456520  4.823899
H    -1.628922  -0.037990  4.316322
H    -3.771714  1.212372  4.465879
H    -4.420214  0.350375  3.066461
H    -3.049940  1.459528  2.870296
H    -3.300174  -0.972011  5.796237
H    -2.503646  -2.331825  4.993445
H    -4.136571  -1.802402  4.495393
N    -3.920269  -2.605008  1.848316
C    -5.017383  -3.073354  1.003862
H    -3.744037  -3.102874  2.715958
H    -5.968240  -2.989868  1.545900
H    -4.854775  -4.123418  0.731246
H    -5.054914  -2.458781  0.101374
Pb    2.568542  -0.103047  3.857703
