29
Energy: -605776.312903 eV PBE+vdW (tier 2 basis)
C    1.353364  0.072623  0.901350
C    0.901264  -0.860095  1.969406
O    1.757997  -1.314244  2.806905
H    1.783681  0.967865  1.373571
H    0.546828  0.375538  0.225711
H    2.160146  -0.398154  0.323203
N    -0.389121  -1.199890  2.050413
C    -0.955577  -1.997303  3.137031
C    -0.481468  -3.468463  3.042302
O    0.360879  -3.861748  3.943022
H    -1.035794  -0.776758  1.386064
H    -0.459080  -1.657451  4.059587
C    -2.461889  -1.696987  3.407037
C    -3.425869  -1.700629  2.216176
C    -2.962514  -2.596548  4.544029
H    -2.427226  -0.662092  3.787503
H    -4.344094  -1.181688  2.518421
H    -3.721449  -2.709598  1.910656
H    -3.061864  -1.158926  1.328799
H    -3.969008  -2.285644  4.847020
H    -2.324237  -2.540148  5.436508
H    -3.031281  -3.649363  4.233768
N    -0.834584  -4.341716  2.123687
C    -1.702085  -4.225408  0.951028
H    -0.407186  -5.261319  2.259182
H    -1.215571  -4.746724  0.118860
H    -1.856598  -3.181471  0.677852
H    -2.669725  -4.703402  1.147038
Pb    2.225406  -2.747280  4.475115
