29
Energy: -605775.766979 eV PBE+vdW (tier 2 basis)
C    0.132262  0.099104  0.871654
C    -0.625008  0.653711  2.023459
O    -0.079919  1.591957  2.726201
H    -0.511630  -0.117558  0.014018
H    0.636829  -0.836283  1.165497
H    0.910846  0.816454  0.590213
N    -1.853099  0.246588  2.386902
C    -2.327692  -1.146306  2.514446
C    -1.554261  -1.733587  3.731808
O    -0.607854  -1.073107  4.308076
H    -2.294167  0.886101  3.049176
H    -3.379256  -1.054161  2.831521
C    -2.351128  -1.970909  1.188414
C    -2.963863  -3.369967  1.367196
C    -3.150601  -1.188362  0.135355
H    -1.317148  -2.110089  0.841864
H    -3.144502  -3.805394  0.376890
H    -3.944351  -3.336287  1.868513
H    -2.300210  -4.078865  1.879678
H    -3.102168  -1.712230  -0.826522
H    -2.784500  -0.166669  -0.023269
H    -4.210670  -1.118929  0.418084
N    -1.911261  -2.909456  4.199116
C    -1.318041  -3.612349  5.339677
H    -2.665776  -3.387580  3.706895
H    -0.336995  -3.190998  5.566754
H    -1.214098  -4.672018  5.082806
H    -1.975645  -3.521390  6.214120
Pb    0.405368  0.895048  4.801804
