29
Energy: -605776.499153 eV PBE+vdW (tier 2 basis)
C    1.334104  1.020861  0.301160
C    0.315961  0.496804  1.252569
O    0.236934  1.008541  2.424424
H    2.331439  0.947521  0.755732
H    1.140525  2.090612  0.134090
H    1.331793  0.500770  -0.662345
N    -0.507319  -0.480787  0.863958
C    -1.644389  -0.988205  1.642148
C    -1.123429  -1.861860  2.803796
O    -1.078774  -1.333074  3.980897
H    -0.414372  -0.808555  -0.095994
H    -2.101996  -0.119734  2.144538
C    -2.752016  -1.588631  0.741959
C    -3.863420  -2.195255  1.608038
C    -3.308977  -0.504169  -0.191840
H    -2.310114  -2.384192  0.121539
H    -3.514823  -3.004739  2.263851
H    -4.644253  -2.616990  0.964709
H    -4.342602  -1.431074  2.236781
H    -3.777730  0.310932  0.377974
H    -4.081654  -0.939047  -0.836846
H    -2.552303  -0.065274  -0.856122
N    -0.704490  -3.103535  2.672899
C    -0.651022  -3.971742  1.491658
H    -0.399688  -3.527801  3.551618
H    -0.347487  -3.411344  0.603199
H    -1.621068  -4.454605  1.319242
H    0.098057  -4.745967  1.682629
Pb    -0.475888  0.749540  4.530740
