29
Energy: -605776.176212 eV PBE+vdW (tier 2 basis)
C    -0.029258  2.038260  -0.863012
C    0.026178  1.275192  0.399929
O    0.986996  1.271494  1.174717
H    0.829123  2.711293  -0.949388
H    -0.974798  2.592240  -0.958715
H    -0.007988  1.326907  -1.709022
N    -1.077904  0.405287  0.794993
C    -2.217177  1.051428  1.546094
C    -1.749188  1.484023  2.935334
O    -0.896185  0.784064  3.586412
H    -1.491333  -0.056883  -0.023759
H    -2.557577  1.938219  0.988347
C    -3.406625  0.036527  1.604735
C    -3.072384  -1.274503  2.326369
C    -4.668712  0.691799  2.177565
H    -3.612385  -0.193228  0.543755
H    -2.230575  -1.822400  1.866876
H    -3.925491  -1.961050  2.254065
H    -2.876396  -1.126868  3.397303
H    -5.524691  0.022421  2.030086
H    -4.914051  1.636107  1.671544
H    -4.590182  0.874666  3.257786
N    -2.298534  2.554275  3.472122
C    -2.057779  3.051274  4.830955
H    -2.985822  3.058661  2.914575
H    -1.271621  2.458261  5.302050
H    -2.982531  2.973693  5.416081
H    -1.754122  4.103143  4.777970
Pb    0.445013  -0.680304  2.556232
