29
Energy: -605775.974263 eV PBE+vdW (tier 2 basis)
C    0.849056  0.314358  1.894318
C    0.220826  1.600201  2.285695
O    0.948386  2.654308  2.417297
H    1.273139  0.380625  0.881420
H    0.171468  -0.540386  1.968224
H    1.706664  0.152387  2.566403
N    -1.099653  1.705602  2.513862
C    -2.138887  1.165567  1.629302
C    -1.952816  1.882118  0.273162
O    -1.337916  3.012752  0.191111
H    -1.381411  2.556038  3.006393
H    -1.978920  0.086176  1.486980
C    -3.536542  1.377907  2.289576
C    -4.696093  0.955194  1.381075
C    -3.582542  0.623534  3.625679
H    -3.632740  2.462822  2.482786
H    -5.637463  1.054100  1.934476
H    -4.619182  -0.102922  1.086989
H    -4.797818  1.576259  0.482508
H    -4.526724  0.843608  4.137821
H    -2.770302  0.899950  4.310411
H    -3.537195  -0.463046  3.466345
N    -2.440311  1.327540  -0.815127
C    -2.384332  1.912253  -2.160944
H    -2.934946  0.443717  -0.708652
H    -1.351456  1.919902  -2.530201
H    -2.774600  2.935816  -2.144302
H    -2.997131  1.298600  -2.825867
Pb    0.261821  4.350421  1.084334
