29
Energy: -605774.958619 eV PBE+vdW (tier 2 basis)
C    -0.136210  -1.251294  2.310989
C    -0.621521  -0.838896  3.653360
O    -0.068160  -1.429683  4.713038
H    0.958508  -1.168299  2.272903
H    -0.570507  -0.647572  1.509391
H    -0.392690  -2.306136  2.134544
N    -1.532456  0.050706  3.886489
C    -2.348956  0.869168  2.981562
C    -2.832138  1.964129  3.981876
O    -2.798804  1.654943  5.190613
H    -1.844783  0.350390  4.864672
H    -1.724406  1.280017  2.177710
C    -3.517704  0.012388  2.369197
C    -4.470522  -0.538908  3.433399
C    -4.272691  0.762313  1.270087
H    -3.002412  -0.838408  1.890888
H    -5.029836  0.260876  3.936814
H    -3.957920  -1.126048  4.207333
H    -5.204124  -1.199626  2.955858
H    -4.953700  0.063943  0.767662
H    -3.606846  1.174370  0.500401
H    -4.891637  1.572219  1.675432
N    -3.267960  3.153960  3.560593
C    -3.207758  3.776035  2.241295
H    -3.592832  3.746841  4.325060
H    -2.702457  4.745883  2.326454
H    -4.216578  3.940176  1.842542
H    -2.647990  3.155431  1.538213
Pb    0.827463  -2.355124  6.352322
