29
Energy: -605775.05406 eV PBE+vdW (tier 2 basis)
C    -1.172195  -0.014820  -0.274723
C    -0.991686  0.437831  1.127807
O    -0.455071  1.644816  1.314677
H    -1.707406  -0.965267  -0.337429
H    -0.190685  -0.136078  -0.755055
H    -1.723501  0.751955  -0.836200
N    -1.321425  -0.222159  2.193404
C    -1.968091  -1.522614  2.399063
C    -2.739758  -1.218971  3.723882
O    -2.307255  -0.284233  4.423129
H    -1.305953  0.217662  3.163849
H    -2.648420  -1.754287  1.567586
C    -0.912657  -2.669007  2.579495
C    -1.602727  -4.007844  2.875190
C    0.004245  -2.797119  1.359439
H    -0.301846  -2.389864  3.453768
H    -2.119527  -4.017628  3.841301
H    -0.846324  -4.801038  2.913824
H    -2.314107  -4.284769  2.082501
H    0.582504  -1.886124  1.155014
H    -0.554936  -3.076299  0.454831
H    0.736842  -3.593275  1.540246
N    -3.805119  -1.965101  4.017211
C    -4.598467  -1.810630  5.235508
H    -4.060809  -2.713055  3.378964
H    -4.254569  -0.921361  5.768945
H    -4.476311  -2.691532  5.878989
H    -5.657707  -1.702532  4.974962
Pb    0.346963  3.553344  1.556821
