29
Energy: -605775.768323 eV PBE+vdW (tier 2 basis)
C    0.143362  0.100103  0.966737
C    -0.692791  0.685734  2.046684
O    -0.222236  1.672588  2.734277
H    -0.441234  -0.120774  0.067564
H    0.602176  -0.841996  1.310211
H    0.953616  0.797320  0.730105
N    -1.921390  0.241944  2.360797
C    -2.336120  -1.168698  2.499646
C    -1.521116  -1.720259  3.705934
O    -0.718044  -0.965297  4.376609
H    -2.432142  0.884214  2.967171
H    -3.382187  -1.114883  2.844243
C    -2.368572  -1.991089  1.171751
C    -3.010041  -3.379978  1.347621
C    -3.154347  -1.196883  0.117110
H    -1.336496  -2.143621  0.824388
H    -3.252341  -3.786389  0.358151
H    -3.958555  -3.337916  1.904551
H    -2.339105  -4.125875  1.797222
H    -3.127925  -1.733147  -0.838668
H    -2.757955  -0.189355  -0.057366
H    -4.210003  -1.093116  0.405990
N    -1.691484  -2.965459  4.088044
C    -1.030513  -3.593596  5.237829
H    -2.328472  -3.536899  3.533670
H    -1.322709  -4.646221  5.265165
H    -1.345657  -3.106892  6.168826
H    0.058386  -3.521406  5.138291
Pb    0.132895  1.077845  4.871446
