29
Energy: -605776.518038 eV PBE+vdW (tier 2 basis)
C    0.777967  0.036932  0.241117
C    0.438157  0.130855  1.692440
O    1.388620  0.332349  2.517546
H    -0.088806  -0.142649  -0.403127
H    1.507668  -0.772873  0.100908
H    1.274697  0.966779  -0.069245
N    -0.846339  -0.004163  2.045179
C    -1.549168  -0.017159  3.353060
C    -1.336675  1.262590  4.167305
O    -0.236023  1.524376  4.772290
H    -1.466956  -0.168793  1.256279
H    -2.603342  -0.006749  3.054285
C    -1.411983  -1.334364  4.180380
C    -0.019809  -1.727019  4.690379
C    -2.436783  -1.326779  5.323734
H    -1.707298  -2.118993  3.463897
H    -0.051884  -2.736259  5.124655
H    0.296145  -1.093908  5.546980
H    0.740094  -1.775477  3.896287
H    -2.435420  -2.296006  5.836509
H    -3.458361  -1.162217  4.956750
H    -2.211190  -0.560312  6.079626
N    -2.336036  2.113273  4.318217
C    -3.700169  2.063631  3.773313
H    -2.117076  2.907085  4.923464
H    -4.178364  3.022862  3.990276
H    -4.286488  1.269546  4.251940
H    -3.688431  1.930221  2.685823
Pb    1.859540  0.755909  4.654526
