29
Energy: -605776.615331 eV PBE+vdW (tier 2 basis)
C    0.935328  -0.286085  0.307165
C    0.509619  -0.169801  1.733934
O    1.411791  -0.230574  2.633425
H    0.106040  -0.229197  -0.405270
H    1.463400  -1.240625  0.173096
H    1.660094  0.509614  0.085515
N    -0.794369  -0.011158  1.988499
C    -1.585998  0.093616  3.241761
C    -1.158138  1.262383  4.139874
O    -0.070102  1.262356  4.813972
H    -1.370167  0.011473  1.150177
H    -2.583060  0.360599  2.866865
C    -1.823252  -1.251158  3.998426
C    -0.602452  -1.970292  4.586665
C    -2.911417  -1.053779  5.063054
H    -2.225528  -1.919677  3.219055
H    -0.897814  -2.957784  4.968364
H    -0.221852  -1.453977  5.494533
H    0.188751  -2.167491  3.848286
H    -3.184465  -2.019566  5.504630
H    -3.828873  -0.625572  4.637957
H    -2.575633  -0.404245  5.884608
N    -2.000644  2.273141  4.251511
C    -1.822715  3.453012  5.101426
H    -2.861096  2.230399  3.709457
H    -0.911278  3.344011  5.691910
H    -2.688989  3.549074  5.766658
H    -1.754370  4.348518  4.471424
Pb    1.784194  0.008786  4.815022
