29
Energy: -605776.114687 eV PBE+vdW (tier 2 basis)
C    0.827879  -0.926374  1.364078
C    0.633133  -0.210336  2.641171
O    1.534075  0.348434  3.272684
H    0.710499  -2.010428  1.547362
H    1.831700  -0.747007  0.967063
H    0.058569  -0.659377  0.625300
N    -0.678210  -0.168976  3.282543
C    -1.637508  0.881564  2.783508
C    -1.216670  2.263674  3.271262
O    -0.545516  2.399571  4.357209
H    -1.166821  -1.067034  3.165449
H    -1.636125  0.866725  1.683494
C    -3.080237  0.528334  3.271322
C    -3.562249  -0.779590  2.630726
C    -3.217612  0.512724  4.799061
H    -3.713037  1.340983  2.880651
H    -3.048026  -1.671329  3.027200
H    -3.460562  -0.773843  1.537323
H    -4.624170  -0.931598  2.859672
H    -2.631512  -0.298942  5.262777
H    -4.260470  0.310453  5.073102
H    -2.951502  1.470036  5.266874
N    -1.590826  3.350457  2.624336
C    -2.390920  3.495326  1.404826
H    -1.307054  4.220921  3.080391
H    -2.415172  2.564841  0.831547
H    -1.941156  4.278690  0.785307
H    -3.416681  3.790447  1.661033
Pb    0.422180  0.692654  5.424729
