29
Energy: -605776.689221 eV PBE+vdW (tier 2 basis)
C    0.567515  0.106506  0.229620
C    -0.318980  -0.012794  1.422521
O    -1.480967  -0.520419  1.267348
H    1.541342  0.554949  0.451325
H    0.053744  0.714387  -0.529093
H    0.714651  -0.888849  -0.211816
N    0.132043  0.429267  2.601300
C    -0.564461  0.553915  3.903506
C    -0.729524  -0.829418  4.552176
O    -1.626196  -1.647097  4.141246
H    1.072288  0.816420  2.578425
H    0.134247  1.130778  4.525901
C    -1.882343  1.373465  3.895730
C    -2.378736  1.557693  5.334666
C    -1.721957  2.703512  3.156755
H    -2.675059  0.801340  3.348254
H    -3.330301  2.101794  5.339633
H    -1.662241  2.155025  5.916516
H    -2.538318  0.607701  5.862958
H    -2.658609  3.271425  3.202643
H    -1.461548  2.580925  2.098700
H    -0.945199  3.319145  3.633136
N    0.064069  -1.152892  5.553308
C    0.043900  -2.417324  6.295088
H    0.750787  -0.461953  5.849873
H    -0.069516  -2.202142  7.364087
H    0.990352  -2.948363  6.134836
H    -0.789430  -3.030972  5.947896
Pb    -3.098879  -1.494953  2.453811
