22
Energy: -169056.755531 eV PBE+vdW (tier 2 basis)
N    0.11732  1.04693  1.39404
C    0.15768  -0.01535  2.45167
C    1.58556  -0.63837  2.56209
O    2.46555  -0.48682  1.69019
H    0.06692  1.98472  1.81134
H    -0.71476  0.95047  0.79987
H    1.24087  -1.44711  4.30296
H    -0.02244  0.47222  3.42429
C    -0.88147  -1.14294  2.20227
C    -2.31658  -0.80329  2.52563
N    -3.35117  -1.65849  2.15228
C    -2.91338  0.19946  3.25124
C    -4.51978  -1.20601  2.62500
N    -4.26481  -0.07786  3.28922
H    -0.59290  -2.02360  2.79952
H    -0.79960  -1.47801  1.15403
H    -3.26580  -2.52377  1.61795
H    -2.51051  1.06663  3.76107
H    -5.49243  -1.67234  2.48834
H    -4.97487  0.48587  3.76127
O    1.90218  -1.36898  3.58252
Cd    2.07743  0.94663  0.12619
