22
Energy: -169056.651047 eV PBE+vdW (tier 2 basis)
N    -0.69773  0.09283  0.08916
C    -0.13630  -0.00102  1.37147
C    1.48350  -0.15034  1.23519
O    2.03672  -1.24390  1.41499
H    -0.87464  0.99159  -0.35397
H    -0.72863  -0.71529  -0.52974
H    1.71812  1.73332  0.76409
H    -0.26656  0.95972  1.89766
C    -0.69035  -1.17310  2.24384
C    -2.04486  -0.91026  2.81491
N    -3.25083  -1.17297  2.17643
C    -2.39321  -0.43421  4.06876
C    -4.27926  -0.88762  2.98739
N    -3.76259  -0.43412  4.13686
H    -0.00083  -1.33860  3.08293
H    -0.68860  -2.09991  1.65092
H    -3.37349  -1.57302  1.24710
H    -1.77595  -0.12467  4.90550
H    -5.33494  -1.01021  2.75828
H    -4.31896  -0.14818  4.94599
O    2.19349  0.88147  0.87542
Cd    4.26935  -1.60958  1.05300
