22
Energy: -169057.320211 eV PBE+vdW (tier 2 basis)
N    0.29546  -0.96674  -0.15383
C    0.07272  -0.22536  1.15560
C    1.36558  0.53727  1.54218
O    1.44375  1.03430  2.70421
H    -0.59449  -1.11573  -0.65765
H    0.72938  -1.89296  -0.01113
H    0.92372  -0.42372  -0.77367
H    -0.61667  0.60073  0.90786
C    -0.63599  -1.06133  2.24090
C    -0.10141  -2.41541  2.62799
N    -0.97576  -3.42535  3.02700
C    1.15801  -2.93732  2.80380
C    -0.29311  -4.50227  3.43136
N    1.00359  -4.21977  3.29180
H    -1.68086  -1.18040  1.91471
H    -0.68755  -0.41470  3.13239
H    -1.99468  -3.36882  3.05583
H    2.14288  -2.51029  2.66119
H    -0.71742  -5.43279  3.80004
H    1.75963  -4.86532  3.52662
O    2.23285  0.74067  0.63622
Cd    3.28118  2.17003  2.08178
