22
Energy: -169057.519726 eV PBE+vdW (tier 2 basis)
N    -0.50714  -0.01168  -0.04015
C    0.00043  0.00536  1.39771
C    1.45435  0.54635  1.39727
O    1.85984  1.12313  0.33950
H    -1.53931  -0.04927  -0.08011
H    -0.14941  -0.81892  -0.57781
H    -0.19811  0.83867  -0.54407
H    -0.59382  0.77913  1.90934
C    -0.21076  -1.38034  2.05533
C    -0.23555  -1.40553  3.55824
N    0.41392  -2.38804  4.29738
C    -0.95574  -0.67154  4.47612
C    0.11082  -2.26921  5.59590
N    -0.71415  -1.22372  5.71196
H    0.54611  -2.08654  1.68400
H    -1.18285  -1.76606  1.70000
H    1.00711  -3.13214  3.93105
H    -1.63095  0.16815  4.35634
H    0.46579  -2.90630  6.40151
H    -1.11775  -0.90327  6.59463
O    2.14742  0.44218  2.44791
Cd    3.81095  1.61218  1.37838
