22
Energy: -169057.592775 eV PBE+vdW (tier 2 basis)
N    0.63154  -0.56243  0.11869
C    0.17007  0.17944  1.36554
C    1.41562  0.72144  2.11302
O    2.55759  0.56610  1.58223
H    -0.17548  -0.88708  -0.43834
H    1.21201  -1.38649  0.34665
H    1.20892  0.04055  -0.49158
H    -0.37355  1.06623  1.00383
C    -0.73474  -0.69209  2.27964
C    -2.09853  -1.04647  1.75948
N    -3.21149  -0.20699  1.83489
C    -2.57678  -2.24226  1.27331
C    -4.30744  -0.85510  1.42155
N    -3.92993  -2.08839  1.07277
H    -0.83388  -0.13727  3.22522
H    -0.21059  -1.62393  2.54004
H    -3.23998  0.74173  2.20705
H    -2.08084  -3.19163  1.10107
H    -5.31706  -0.45397  1.38399
H    -4.56747  -2.81200  0.73343
O    1.22858  1.32628  3.20917
Cd    3.43953  1.72973  3.34342
