22
Energy: -169056.992143 eV PBE+vdW (tier 2 basis)
N    -0.12546  -0.30663  -0.15981
C    0.01454  0.02188  1.28846
C    1.49751  0.24844  1.63478
O    2.35858  0.57402  0.79361
H    -1.03113  0.01972  -0.52037
H    -0.08965  -1.32130  -0.32552
H    2.68788  0.44976  3.11592
H    -0.41354  1.03490  1.41110
C    -0.83173  -0.87131  2.26928
C    -0.50222  -2.30640  2.54559
N    0.31532  -2.73527  3.59223
C    -1.06681  -3.45636  2.03466
C    0.25279  -4.06654  3.71554
N    -0.57695  -4.51235  2.76604
H    -1.86492  -0.82811  1.89617
H    -0.85614  -0.31747  3.22055
H    0.83019  -2.14072  4.23995
H    -1.80632  -3.60059  1.25409
H    0.77052  -4.67143  4.45581
H    -0.82920  -5.49481  2.63618
O    1.76666  0.15895  2.90571
Cd    1.64607  0.67761  -1.29197
