22
Energy: -169056.658755 eV PBE+vdW (tier 2 basis)
N    0.88011  -2.35966  1.31805
C    0.26388  -1.10693  1.16576
C    1.23806  0.05998  1.74924
O    1.74023  0.83933  0.92633
H    0.93936  -2.82395  2.22280
H    1.53887  -2.69432  0.61678
H    1.12978  -0.49074  3.62203
H    0.18692  -0.85460  0.10139
C    -1.13151  -0.99577  1.86365
C    -2.22467  -1.70332  1.12024
N    -3.49170  -1.15414  0.95599
C    -2.29360  -2.95859  0.54187
C    -4.29805  -2.02128  0.33188
N    -3.57368  -3.11742  0.07424
H    -1.40139  0.06469  1.97242
H    -1.05826  -1.40741  2.88519
H    -3.80657  -0.24190  1.28664
H    -1.54488  -3.73368  0.43053
H    -5.34494  -1.86487  0.08433
H    -3.93470  -3.94754  -0.40105
O    1.55269  0.14889  3.01065
Cd    3.32307  2.41923  1.31007
