22
Energy: -169056.643026 eV PBE+vdW (tier 2 basis)
N    1.45061  0.77159  3.48045
C    1.24589  -0.43741  2.79764
C    2.23967  -0.48905  1.50536
O    1.82096  -0.20973  0.37355
H    2.11861  0.84581  4.24457
H    1.14328  1.65616  3.08001
H    3.78682  -1.00274  2.58637
H    1.58724  -1.27429  3.42954
C    -0.22457  -0.68160  2.32856
C    -1.14003  -1.10770  3.42868
N    -1.81007  -0.25203  4.29473
C    -1.55826  -2.38127  3.77949
C    -2.60043  -0.95117  5.12130
N    -2.44705  -2.24588  4.81459
H    -0.22344  -1.47595  1.56985
H    -0.60240  0.22455  1.83168
H    -1.77022  0.76630  4.29678
H    -1.30799  -3.34967  3.35939
H    -3.25111  -0.54300  5.89070
H    -2.93946  -3.01123  5.28116
O    3.50271  -0.76174  1.67796
Cd    3.17323  -0.03595  -1.46636
