22
Energy: -169056.680719 eV PBE+vdW (tier 2 basis)
N    0.23091  -1.03675  -0.06464
C    0.09760  -0.34276  1.15211
C    1.53978  -0.13582  1.84055
O    2.01131  1.01169  1.82120
H    0.37465  -0.51496  -0.92786
H    0.56358  -1.99927  -0.09362
H    1.81308  -2.00195  2.36089
H    -0.24183  0.68075  0.95500
C    -0.87503  -1.03860  2.18620
C    -2.31739  -0.86356  1.85315
N    -3.00100  -1.53742  0.84742
C    -3.27144  -0.08403  2.48565
C    -4.29879  -1.20512  0.86660
N    -4.46728  -0.32121  1.85911
H    -0.70914  -0.60786  3.18297
H    -0.63009  -2.11148  2.25135
H    -2.61216  -2.21914  0.19761
H    -3.18764  0.58934  3.33221
H    -5.07233  -1.58835  0.20565
H    -5.36531  0.09823  2.11147
O    2.23620  -1.11764  2.34218
Cd    4.08133  1.66888  2.47813
