22
Energy: -169057.167432 eV PBE+vdW (tier 2 basis)
N    -0.48130  1.07911  0.79002
C    0.06998  0.21507  1.88037
C    1.61372  0.22453  1.82308
O    2.28571  1.03395  1.15379
H    -0.79100  0.51203  -0.01143
H    -1.30849  1.59556  1.11294
H    3.15522  -0.60030  2.58086
H    -0.16922  0.71111  2.83597
C    -0.58992  -1.22562  1.84422
C    -0.58529  -2.04451  3.09946
N    -1.54849  -1.94675  4.10358
C    0.20485  -3.11561  3.45650
C    -1.36016  -2.90446  5.01979
N    -0.29517  -3.61577  4.63346
H    -0.11878  -1.81528  1.04570
H    -1.63679  -1.07749  1.53929
H    -2.33548  -1.30036  4.14101
H    1.05350  -3.56858  2.95684
H    -1.96641  -3.07730  5.90526
H    0.07079  -4.42526  5.13948
O    2.16968  -0.66879  2.58633
Cd    1.15505  2.51173  -0.01551
