22
Energy: -169056.700229 eV PBE+vdW (tier 2 basis)
N    0.83787  -0.31929  0.17521
C    0.15142  -0.22664  1.50325
C    1.16577  0.13901  2.62998
O    2.40424  0.07210  2.48327
H    0.55843  -1.17224  -0.32520
H    0.57002  0.46605  -0.43145
H    -0.21930  0.62035  3.91633
H    -0.55650  0.61650  1.44941
C    -0.59667  -1.55180  1.89036
C    -1.76191  -1.97212  1.03979
N    -3.03776  -1.40659  1.09178
C    -1.87849  -3.05667  0.20205
C    -3.88479  -2.10888  0.32785
N    -3.18831  -3.10775  -0.21982
H    -0.93194  -1.46212  2.93570
H    0.12707  -2.38133  1.90162
H    -3.34295  -0.61729  1.65946
H    -1.15947  -3.81654  -0.08483
H    -4.94352  -1.90517  0.18693
H    -3.58757  -3.81694  -0.83904
O    0.74701  0.50709  3.79882
Cd    3.14681  -0.23988  0.48684
