22
Energy: -169056.769629 eV PBE+vdW (tier 2 basis)
N    0.15278  -0.67651  -0.17487
C    0.17536  -0.30124  1.27582
C    1.58278  0.21011  1.68672
O    2.49050  0.46423  0.86902
H    -0.71342  -0.35508  -0.62442
H    0.17745  -1.69836  -0.29667
H    1.10039  0.18209  3.54453
H    -0.47876  0.58013  1.38519
C    -0.36540  -1.48933  2.15761
C    -0.66567  -1.23312  3.61173
N    -1.85924  -0.68486  4.09076
C    0.02278  -1.64121  4.73608
C    -1.89568  -0.75546  5.42682
N    -0.75579  -1.32617  5.82675
H    0.34871  -2.32486  2.10950
H    -1.28954  -1.84488  1.67651
H    -2.63889  -0.32884  3.53782
H    0.96711  -2.16735  4.84071
H    -2.70494  -0.41141  6.06724
H    -0.51821  -1.51993  6.80316
O    1.83544  0.43734  2.93837
Cd    2.03124  0.19072  -1.22640
