22
Energy: -169056.566248 eV PBE+vdW (tier 2 basis)
N    0.39621  -0.91024  -0.36610
C    -0.16894  -0.30897  0.77330
C    0.97904  0.58097  1.51878
O    1.74326  0.05038  2.33737
H    0.99283  -1.73127  -0.27185
H    0.51500  -0.38523  -1.23079
H    0.49968  2.21848  0.56183
H    -0.92638  0.42991  0.46054
C    -0.77005  -1.31331  1.78080
C    -2.04099  -1.94949  1.29993
N    -3.00116  -2.42761  2.18270
C    -2.52870  -2.24451  0.03720
C    -4.01248  -2.99492  1.51185
N    -3.73199  -2.88360  0.20816
H    -0.97088  -0.79553  2.73030
H    -0.01688  -2.08811  2.00660
H    -2.96108  -2.38995  3.20161
H    -2.12096  -2.05224  -0.94750
H    -4.89523  -3.45715  1.94669
H    -4.33604  -3.22611  -0.54227
O    1.15306  1.82791  1.18244
Cd    3.56666  1.10457  3.22841
