22
Energy: -169057.572743 eV PBE+vdW (tier 2 basis)
N    0.42525  -1.65807  0.16532
C    0.23889  -0.39045  0.99001
C    1.62674  0.07815  1.50150
O    1.66015  1.03475  2.32966
H    -0.44403  -1.91296  -0.33008
H    0.70660  -2.46623  0.74412
H    1.16866  -1.53503  -0.54375
H    -0.07725  0.38656  0.27565
C    -0.79840  -0.54578  2.12379
C    -2.23850  -0.67026  1.69709
N    -3.13379  -1.52474  2.33738
C    -2.99772  0.04768  0.79985
C    -4.37277  -1.33867  1.86492
N    -4.29666  -0.39222  0.92576
H    -0.68590  0.35071  2.75531
H    -0.52160  -1.39449  2.76852
H    -2.92148  -2.17325  3.09569
H    -2.73952  0.84854  0.11603
H    -5.26995  -1.86167  2.18586
H    -5.09676  -0.04157  0.39497
O    2.66285  -0.48043  1.02913
Cd    3.90919  0.99843  2.26128
