22
Energy: -169056.786657 eV PBE+vdW (tier 2 basis)
N    -0.44937  0.37418  0.47165
C    0.17149  0.37086  1.82833
C    1.70726  0.44408  1.70923
O    2.29747  0.89684  0.70686
H    -1.37243  0.82529  0.49364
H    -0.59263  -0.57896  0.11333
H    3.30688  0.27108  2.74513
H    -0.07160  1.35420  2.27409
C    -0.41386  -0.66402  2.84943
C    -0.23782  -2.14637  2.68285
N    -1.32600  -3.01776  2.61650
C    0.87081  -2.96298  2.77016
C    -0.91085  -4.28930  2.66456
N    0.42349  -4.26293  2.74661
H    -1.48624  -0.43574  2.93377
H    0.00938  -0.37200  3.82424
H    -2.31282  -2.75845  2.61217
H    1.92179  -2.72900  2.88731
H    -1.54097  -5.17511  2.64600
H    1.01227  -5.09630  2.81130
O    2.33793  0.07941  2.78519
Cd    1.00083  1.47897  -0.97433
