22
Energy: -169057.146824 eV PBE+vdW (tier 2 basis)
N    0.61199  1.07410  2.00028
C    0.60440  -0.36213  1.59068
C    0.52550  -0.48619  0.04545
O    0.65389  0.46886  -0.74725
H    -0.30488  1.35906  2.36751
H    1.29301  1.24368  2.74941
H    0.37420  -1.80244  -1.34024
H    1.60161  -0.76928  1.82962
C    -0.50892  -1.21959  2.30100
C    -0.26534  -1.64920  3.71583
N    0.49623  -2.76360  4.07232
C    -0.82297  -1.19913  4.89177
C    0.40676  -2.98254  5.38987
N    -0.38799  -2.03353  5.89490
H    -0.66339  -2.11674  1.68499
H    -1.46290  -0.67275  2.25870
H    1.00279  -3.38656  3.44406
H    -1.51723  -0.38917  5.08718
H    0.88402  -3.78748  5.94304
H    -0.64797  -1.96458  6.88126
O    0.36962  -1.70894  -0.35617
Cd    1.04156  2.42215  0.14977
