32
Energy: -19780.5604815 eV PBE+vdW (tier 2 basis)
C    0.757627  1.009838  0.871945
C    0.063033  -0.314528  1.120036
O    0.629033  -1.396327  0.974371
H    0.840492  1.595381  1.798952
H    0.212816  1.627647  0.144684
H    1.759980  0.801348  0.489849
N    -1.250485  -0.263739  1.523400
C    -2.007623  0.908392  1.915663
C    -1.648778  1.572259  3.269537
O    -1.909814  2.768540  3.408855
H    -1.644814  -1.177709  1.734142
H    -1.811027  1.714122  1.194986
C    -3.532566  0.629129  1.845910
C    -4.004934  -0.447442  2.790269
C    -4.351448  -0.134207  4.113569
C    -4.062184  -1.789564  2.385636
C    -4.717889  -1.136018  5.011377
C    -4.424832  -2.795359  3.283836
C    -4.747730  -2.471319  4.601825
H    -3.770052  0.356451  0.807967
H    -4.038826  1.578098  2.064170
H    -4.326804  0.906338  4.440259
H    -3.832352  -2.049611  1.350175
H    -4.985380  -0.873332  6.034978
H    -4.460486  -3.832259  2.950010
H    -5.033622  -3.253950  5.304154
N    -1.049065  0.866271  4.271377
C    -0.790287  -0.561425  4.438596
H    -0.875059  1.458285  5.078040
H    0.064487  -0.909243  3.844245
H    -1.669485  -1.169974  4.195860
H    -0.560482  -0.731692  5.496238
