32
Energy: -19780.9131705 eV PBE+vdW (tier 2 basis)
C    0.209577  0.639387  0.041444
C    -0.034071  0.191222  1.469915
O    0.786480  -0.479011  2.099248
H    -0.618657  1.217796  -0.385558
H    0.386994  -0.247207  -0.579738
H    1.122863  1.246676  0.012955
N    -1.221993  0.583502  2.013606
C    -1.623977  0.195937  3.345345
C    -3.158279  0.248980  3.386929
O    -3.790333  0.985935  2.626188
H    -1.926151  1.090625  1.481655
H    -1.262550  -0.827158  3.529887
C    -0.998201  1.133277  4.426012
C    -1.269306  0.682536  5.836638
C    -0.603662  -0.434573  6.365768
C    -2.229683  1.324412  6.630715
C    -0.899277  -0.901445  7.647262
C    -2.523965  0.863049  7.914383
C    -1.862683  -0.255435  8.425299
H    -1.381093  2.150153  4.261999
H    0.082481  1.143980  4.229128
H    0.156850  -0.937968  5.765693
H    -2.756760  2.192447  6.231204
H    -0.369712  -1.768453  8.042631
H    -3.271235  1.379028  8.517713
H    -2.091166  -0.617531  9.427494
N    -3.734837  -0.548319  4.322366
C    -5.147798  -0.485501  4.645387
H    -3.118824  -1.043247  4.958623
H    -5.580370  -1.493329  4.685784
H    -5.647306  0.089593  3.859419
H    -5.312355  0.012640  5.612606
