32
Energy: -19780.5568446 eV PBE+vdW (tier 2 basis)
C    -1.363263  -0.145937  -0.239391
C    -2.874986  -0.043992  -0.232502
O    -3.543650  -0.184607  -1.251818
H    -1.014875  0.070642  -1.253267
H    -1.068216  -1.175053  0.009211
H    -0.867861  0.522059  0.474618
N    -3.502937  0.221942  0.972144
C    -2.933496  0.237892  2.319925
C    -1.979708  1.441665  2.557783
O    -1.042443  1.377925  3.349722
H    -4.513360  0.141787  0.898469
H    -3.790059  0.440464  2.981249
C    -2.301481  -1.104670  2.789533
C    -2.764055  -1.530376  4.163246
C    -3.783362  -2.482988  4.299685
C    -2.214440  -0.965672  5.323632
C    -4.246824  -2.863170  5.560238
C    -2.676158  -1.345606  6.584096
C    -3.693904  -2.293896  6.708017
H    -1.208564  -1.006479  2.775201
H    -2.584479  -1.877874  2.063792
H    -4.213623  -2.939325  3.405847
H    -1.426595  -0.218788  5.224882
H    -5.036979  -3.609600  5.645008
H    -2.235472  -0.899596  7.476140
H    -4.051177  -2.590891  7.694032
N    -2.312153  2.563392  1.865448
C    -1.569378  3.803540  1.971258
H    -3.052479  2.476843  1.177274
H    -1.062242  4.049074  1.027096
H    -0.815470  3.675327  2.755067
H    -2.232309  4.635967  2.243366
