32
Energy: -19780.6365879 eV PBE+vdW (tier 2 basis)
C    -1.841617  -0.399566  0.099994
C    -3.252850  -0.288399  0.642347
O    -4.208135  -0.773182  0.043917
H    -1.133672  0.334229  0.498721
H    -1.891834  -0.308643  -0.990140
H    -1.459649  -1.404849  0.326708
N    -3.457798  0.393303  1.829806
C    -2.478747  0.826220  2.828567
C    -1.584914  2.005529  2.361082
O    -0.488277  2.217817  2.871852
H    -4.414120  0.280989  2.155916
H    -3.084938  1.260655  3.640483
C    -1.642917  -0.307843  3.463775
C    -2.506340  -1.293386  4.208220
C    -3.035901  -2.423266  3.570225
C    -2.839231  -1.070844  5.552308
C    -3.876125  -3.304168  4.252832
C    -3.677464  -1.949155  6.238938
C    -4.200712  -3.069158  5.589518
H    -0.920020  0.169763  4.136669
H    -1.055712  -0.816814  2.688231
H    -2.789328  -2.618683  2.525579
H    -2.427217  -0.201105  6.068141
H    -4.277443  -4.176731  3.737404
H    -3.917884  -1.762209  7.285738
H    -4.854183  -3.757889  6.124664
N    -2.149972  2.798309  1.411419
C    -1.495870  3.976900  0.879620
H    -3.043088  2.499265  1.034366
H    -1.281090  3.865141  -0.192755
H    -0.551716  4.105773  1.419517
H    -2.116235  4.871995  1.024335
