32
Energy: -19780.1549138 eV PBE+vdW (tier 2 basis)
C    -0.306578  -0.569379  0.869270
C    -0.945115  -0.915527  2.201454
O    -0.572597  -1.880995  2.863929
H    0.068078  0.462830  0.843924
H    -1.023805  -0.691122  0.046601
H    0.532361  -1.252517  0.714636
N    -1.976649  -0.127570  2.649285
C    -2.521559  1.114538  2.113715
C    -3.064331  0.899810  0.669364
O    -3.908981  0.023165  0.508641
H    -2.359554  -0.454614  3.530236
H    -3.467026  1.255702  2.659096
C    -1.649580  2.349595  2.459843
C    -1.535332  2.538025  3.953286
C    -0.511380  1.919855  4.683442
C    -2.485233  3.300510  4.646792
C    -0.439987  2.058606  6.069900
C    -2.416413  3.442432  6.032889
C    -1.392561  2.819911  6.749073
H    -2.112327  3.243994  2.020046
H    -0.646770  2.250318  2.024735
H    0.233562  1.316994  4.162654
H    -3.287405  3.792740  4.092802
H    0.362493  1.568242  6.620790
H    -3.161743  4.043415  6.554004
H    -1.335917  2.929918  7.831814
N    -2.695985  1.684661  -0.392707
C    -1.624165  2.648455  -0.597247
H    -3.220026  1.414865  -1.220236
H    -1.533247  2.819055  -1.675378
H    -0.654975  2.276848  -0.242794
H    -1.825540  3.618388  -0.122249
