32
Energy: -19780.4404579 eV PBE+vdW (tier 2 basis)
C    1.209457  1.299738  0.054179
C    0.482043  2.499361  0.623997
O    0.993876  3.617807  0.636859
H    2.144959  1.662853  -0.379123
H    1.437270  0.574170  0.846717
H    0.628656  0.790468  -0.724081
N    -0.774799  2.334359  1.166096
C    -1.703413  1.209617  1.206612
C    -0.985387  -0.120444  1.548467
O    -0.440898  -0.255940  2.640622
H    -1.118041  3.205854  1.560518
H    -2.300030  1.369153  2.118062
C    -2.744397  1.222409  0.042855
C    -2.238538  1.096752  -1.373827
C    -1.542025  2.145177  -1.996425
C    -2.463469  -0.076204  -2.112948
C    -1.046639  2.003982  -3.291749
C    -1.971979  -0.218878  -3.412507
C    -1.250713  0.818834  -4.002084
H    -3.287322  2.174885  0.141360
H    -3.480775  0.430374  0.245349
H    -1.380166  3.079915  -1.460562
H    -3.055758  -0.882054  -1.672155
H    -0.500495  2.828289  -3.750029
H    -2.162851  -1.138418  -3.965844
H    -0.863298  0.712141  -5.014911
N    -1.039342  -1.112286  0.620565
C    -0.347270  -2.371218  0.828793
H    -1.341167  -0.881209  -0.321436
H    -0.507813  -2.708792  1.858397
H    0.738481  -2.273850  0.671259
H    -0.743567  -3.119138  0.133315
