32
Energy: -19780.5008571 eV PBE+vdW (tier 2 basis)
C    -0.232363  1.814948  1.029451
C    -0.437902  1.052525  2.326517
O    -0.060513  1.480317  3.412884
H    0.813049  1.693534  0.713581
H    -0.401688  2.881091  1.213675
H    -0.881188  1.475855  0.212187
N    -1.083314  -0.150932  2.195482
C    -1.158233  -1.138810  3.268578
C    -1.652475  -0.565672  4.621693
O    -1.074660  -0.838846  5.668028
H    -1.233902  -0.496865  1.254641
H    -1.922426  -1.866639  2.945952
C    0.175283  -1.892903  3.472895
C    0.666913  -2.520897  2.195424
C    1.605711  -1.863432  1.387525
C    0.164166  -3.754821  1.756499
C    2.027752  -2.417762  0.177773
C    0.582060  -4.313030  0.548130
C    1.514810  -3.644133  -0.247620
H    0.016888  -2.649764  4.251263
H    0.910246  -1.182569  3.871647
H    2.016441  -0.909021  1.721454
H    -0.557548  -4.289905  2.377326
H    2.764502  -1.893060  -0.431131
H    0.184531  -5.277092  0.229864
H    1.846315  -4.081193  -1.189396
N    -2.816791  0.152807  4.628967
C    -3.653442  0.592141  3.528261
H    -3.030804  0.515391  5.552612
H    -4.654947  0.808255  3.919756
H    -3.759758  -0.194170  2.771372
H    -3.270287  1.498496  3.034053
