32
Energy: -19780.4514131 eV PBE+vdW (tier 2 basis)
C    -2.466473  0.288744  0.362426
C    -1.590251  -0.391484  1.398890
O    -0.424789  -0.706120  1.149516
H    -1.901850  1.112593  -0.088324
H    -3.413120  0.673074  0.761195
H    -2.689482  -0.434553  -0.433237
N    -2.205579  -0.651441  2.588144
C    -1.626728  -1.318161  3.758275
C    -0.846958  -0.294735  4.633317
O    -1.509147  0.390738  5.417150
H    -3.146169  -0.297937  2.706769
H    -2.490543  -1.520987  4.404534
C    -0.983037  -2.689238  3.450490
C    -2.000401  -3.668387  2.917005
C    -2.115276  -3.894083  1.538943
C    -2.874739  -4.343299  3.780359
C    -3.080476  -4.768168  1.036468
C    -3.840267  -5.217927  3.281819
C    -3.947519  -5.431623  1.906008
H    -0.556753  -3.063717  4.393382
H    -0.166389  -2.585991  2.731781
H    -1.435765  -3.379949  0.857594
H    -2.794071  -4.187072  4.858294
H    -3.152466  -4.934496  -0.038682
H    -4.506919  -5.738770  3.969473
H    -4.699399  -6.116907  1.514847
N    0.503639  -0.145727  4.557063
C    1.503056  -0.756565  3.689094
H    0.830692  0.552169  5.219171
H    2.373239  -0.090976  3.657539
H    1.118979  -0.859464  2.668243
H    1.838142  -1.735377  4.065009
