32
Energy: -19780.5984818 eV PBE+vdW (tier 2 basis)
C    0.041284  0.536193  -0.305021
C    0.020183  0.696527  1.202463
O    0.526648  1.658761  1.771643
H    -0.785894  1.126261  -0.724202
H    -0.072726  -0.504448  -0.633784
H    0.979299  0.943715  -0.695190
N    -0.608337  -0.320161  1.886541
C    -0.994320  -0.159705  3.284840
C    -2.016533  1.012676  3.401892
O    -2.775767  1.253824  2.466064
H    -1.203602  -0.923134  1.330702
H    -1.580221  -1.058872  3.533615
C    0.253785  -0.136663  4.201868
C    -0.005145  -0.359899  5.674231
C    0.423845  0.584804  6.618909
C    -0.663266  -1.508386  6.141407
C    0.194001  0.397002  7.984190
C    -0.895137  -1.699421  7.502268
C    -0.470727  -0.744668  8.430035
H    0.792207  0.805432  4.045794
H    0.914423  -0.934987  3.830702
H    0.952943  1.475839  6.275346
H    -0.994217  -2.269154  5.432152
H    0.538408  1.144781  8.698667
H    -1.407446  -2.599627  7.842187
H    -0.653902  -0.894150  9.493769
N    -2.058433  1.666997  4.590527
C    -3.006049  2.731562  4.858299
H    -1.411108  1.398369  5.324203
H    -3.571336  2.527356  5.777839
H    -3.698192  2.785496  4.011761
H    -2.498666  3.701682  4.961285
