32
Energy: -19780.6651643 eV PBE+vdW (tier 2 basis)
C    -3.449359  0.050421  2.064736
C    -2.108453  0.038125  2.769646
O    -1.087727  0.489298  2.255715
H    -3.297668  -0.138658  0.997193
H    -3.882422  1.054870  2.173076
H    -4.161744  -0.679088  2.470521
N    -2.121618  -0.503385  4.032474
C    -1.008696  -0.337240  4.958354
C    -0.600965  -1.712500  5.527200
O    -0.908091  -2.055022  6.669038
H    -3.015112  -0.781218  4.424173
H    -0.196276  0.078085  4.346016
C    -1.344293  0.649111  6.096145
C    -1.855459  1.967389  5.573037
C    -0.979020  2.925986  5.046656
C    -3.229310  2.240919  5.548233
C    -1.459845  4.118023  4.507430
C    -3.717394  3.432139  5.008161
C    -2.832381  4.374381  4.483154
H    -0.434475  0.791871  6.696670
H    -2.079226  0.180035  6.764361
H    0.094934  2.731789  5.051057
H    -3.925827  1.511474  5.966358
H    -0.760803  4.848746  4.100669
H    -4.790354  3.626013  5.002328
H    -3.209086  5.305709  4.060607
N    0.111541  -2.537609  4.705057
C    0.411490  -2.383099  3.290479
H    0.279471  -3.449130  5.122268
H    1.375294  -2.858704  3.070960
H    0.481719  -1.326531  3.012620
H    -0.360847  -2.841202  2.652608
