32
Energy: -19780.4241189 eV PBE+vdW (tier 2 basis)
C    0.606326  0.361673  1.187825
C    0.209431  -0.346922  2.465878
O    0.984927  -1.055477  3.103882
H    1.597918  0.006781  0.896247
H    0.642793  1.450528  1.333644
H    -0.107641  0.175041  0.374288
N    -1.085862  -0.172910  2.901190
C    -2.089727  0.746433  2.386291
C    -1.741502  2.249160  2.526759
O    -1.876470  2.990125  1.555772
H    -1.281096  -0.658313  3.772795
H    -2.179866  0.620489  1.297936
C    -3.459424  0.397002  3.015460
C    -4.586135  1.290906  2.562884
C    -4.979365  2.391361  3.333507
C    -5.243759  1.051988  1.349615
C    -6.002579  3.236068  2.902895
C    -6.266647  1.893449  0.915306
C    -6.648725  2.989435  1.691348
H    -3.378263  0.437635  4.112447
H    -3.674980  -0.649773  2.753123
H    -4.473664  2.591738  4.279826
H    -4.950058  0.197102  0.737601
H    -6.295429  4.088882  3.515287
H    -6.767932  1.692942  -0.031539
H    -7.448505  3.647819  1.352978
N    -1.297077  2.735856  3.725548
C    -1.009679  2.054475  4.979233
H    -1.080353  3.726369  3.673951
H    -1.851663  1.433243  5.311770
H    -0.850968  2.817171  5.749624
H    -0.109129  1.426442  4.926379
