32
Energy: -19780.6659218 eV PBE+vdW (tier 2 basis)
C    -2.366064  0.337584  1.226263
C    -1.192441  0.021272  2.131723
O    -0.065362  -0.202957  1.691585
H    -2.529753  -0.508807  0.547343
H    -2.106806  1.205739  0.608132
H    -3.296228  0.548014  1.768004
N    -1.485244  -0.030581  3.469493
C    -0.453997  -0.126703  4.490760
C    -0.722072  -1.296912  5.465389
O    -0.812819  -1.128470  6.681990
H    -2.396113  0.299436  3.772077
H    0.470482  -0.354481  3.936766
C    -0.251475  1.220144  5.232134
C    -1.529384  1.969781  5.533177
C    -1.982430  2.962041  4.650082
C    -2.305343  1.682592  6.666622
C    -3.175391  3.647746  4.885549
C    -3.496718  2.369085  6.905008
C    -3.938027  3.351682  6.016192
H    0.384581  1.846956  4.592400
H    0.299104  1.012510  6.157822
H    -1.385254  3.202577  3.768365
H    -1.968582  0.904736  7.350907
H    -3.505027  4.418361  4.188196
H    -4.083573  2.135091  7.793657
H    -4.868006  3.887500  6.206531
N    -0.829389  -2.544418  4.923159
C    -0.682029  -2.974649  3.542041
H    -1.028727  -3.254502  5.621187
H    -1.643229  -2.987343  3.005269
H    -0.263606  -3.988410  3.530279
H    0.003923  -2.321614  2.990900
