32
Energy: -19780.8946821 eV PBE+vdW (tier 2 basis)
C    -1.562210  0.596737  0.702219
C    -1.036986  0.297920  2.090212
O    0.137129  -0.049993  2.282676
H    -0.969838  1.414541  0.272722
H    -2.622393  0.876540  0.684867
H    -1.410677  -0.284553  0.066913
N    -1.932426  0.431137  3.102205
C    -1.603851  0.304911  4.519030
C    -1.550806  -1.176136  5.005451
O    -2.227878  -1.588232  5.948143
H    -2.896114  0.669654  2.883956
H    -0.580204  0.695423  4.637969
C    -2.565737  1.165999  5.367430
C    -4.008260  1.145613  4.911106
C    -4.864014  0.076236  5.220417
C    -4.513384  2.200835  4.135168
C    -6.181578  0.067674  4.763446
C    -5.832194  2.191164  3.674405
C    -6.670575  1.121296  3.987133
H    -2.202017  2.202202  5.344167
H    -2.491851  0.804787  6.400776
H    -4.476512  -0.751065  5.814351
H    -3.865329  3.047693  3.899844
H    -6.832951  -0.769004  5.017140
H    -6.204322  3.024044  3.077413
H    -7.701329  1.110374  3.632927
N    -0.658551  -1.925929  4.313966
C    -0.430354  -3.329352  4.592602
H    -0.122185  -1.451260  3.579111
H    0.610068  -3.506929  4.899996
H    -0.643861  -3.947507  3.709004
H    -1.096808  -3.628818  5.408236
