32
Energy: -19780.6197085 eV PBE+vdW (tier 2 basis)
C    -0.282100  -0.847082  1.007592
C    -0.553362  -0.027126  2.259603
O    0.284672  0.087386  3.151018
H    0.743768  -1.219496  1.066610
H    -0.391874  -0.244080  0.094817
H    -0.965041  -1.703937  0.923314
N    -1.769982  0.595363  2.349995
C    -2.890931  0.528087  1.443598
C    -3.711122  1.819881  1.650506
O    -3.583315  2.507466  2.658421
H    -1.914362  1.197754  3.161033
H    -2.528458  0.503314  0.403252
C    -3.792412  -0.733503  1.659816
C    -4.478707  -0.773210  3.000017
C    -5.795725  -0.316059  3.141730
C    -3.801860  -1.228682  4.140153
C    -6.421471  -0.308808  4.387923
C    -4.423818  -1.219349  5.388478
C    -5.735154  -0.758843  5.516607
H    -3.151883  -1.617712  1.534407
H    -4.540484  -0.773078  0.853680
H    -6.336499  0.040550  2.263007
H    -2.776291  -1.588415  4.050885
H    -7.447255  0.048934  4.477776
H    -3.880779  -1.574305  6.264294
H    -6.221355  -0.753588  6.491953
N    -4.598208  2.099043  0.654841
C    -5.526462  3.212858  0.720314
H    -4.624935  1.489757  -0.153773
H    -5.380928  3.901199  -0.123197
H    -5.331242  3.748438  1.654860
H    -6.568662  2.863388  0.720983
