32
Energy: -19780.6887014 eV PBE+vdW (tier 2 basis)
C    -2.353929  -0.229705  0.618788
C    -2.009025  -0.455954  2.080398
O    -1.588069  -1.533477  2.493574
H    -1.460366  -0.426532  0.013360
H    -2.717448  0.781372  0.397040
H    -3.117158  -0.959092  0.320875
N    -2.179667  0.634143  2.894094
C    -2.024590  0.583925  4.346557
C    -2.525942  1.882253  4.992105
O    -3.118694  1.870677  6.065495
H    -2.664761  1.437483  2.511673
H    -2.654227  -0.219214  4.755178
C    -0.562364  0.284342  4.808260
C    0.451376  1.316183  4.391706
C    0.806740  2.364617  5.254705
C    1.033142  1.280219  3.115135
C    1.702598  3.355206  4.852442
C    1.927745  2.271878  2.708148
C    2.262151  3.315199  3.573368
H    -0.302694  -0.702422  4.406546
H    -0.596812  0.202475  5.903291
H    0.367402  2.403518  6.253217
H    0.791137  0.457385  2.441712
H    1.968666  4.157601  5.540963
H    2.372826  2.223799  1.714027
H    2.964445  4.086351  3.257187
N    -2.249733  3.030673  4.292848
C    -2.487260  4.337661  4.882907
H    -1.506845  2.969909  3.601159
H    -2.684552  5.072740  4.093980
H    -1.626951  4.675552  5.481835
H    -3.357818  4.265504  5.542013
