32
Energy: -19780.8927847 eV PBE+vdW (tier 2 basis)
C    0.717070  -0.940369  0.188232
C    -0.096080  -1.041511  1.461110
O    -0.746050  -2.059622  1.740560
H    1.230183  0.021605  0.070270
H    0.054933  -1.104146  -0.670908
H    1.462315  -1.745783  0.184287
N    -0.070497  0.050553  2.267190
C    -0.691427  0.120559  3.586640
C    -2.223956  0.403367  3.533637
O    -2.753527  1.329214  4.150311
H    0.432868  0.879714  1.963270
H    -0.590035  -0.882015  4.033382
C    0.059304  1.136916  4.474728
C    0.481091  2.406603  3.768368
C    -0.427253  3.448684  3.522122
C    1.802112  2.552780  3.316491
C    -0.021487  4.596925  2.842681
C    2.208286  3.701568  2.633080
C    1.294755  4.727722  2.392795
H    0.953170  0.640955  4.876663
H    -0.602803  1.375599  5.316483
H    -1.456530  3.339374  3.862921
H    2.525004  1.758776  3.515409
H    -0.739517  5.397757  2.664346
H    3.240794  3.795626  2.295939
H    1.607313  5.627394  1.862791
N    -2.908557  -0.490406  2.783596
C    -4.349389  -0.419376  2.632709
H    -2.379528  -1.268899  2.376089
H    -4.652640  -1.079615  1.813298
H    -4.657860  0.608056  2.402190
H    -4.872611  -0.727469  3.550671
