32
Energy: -19780.3824392 eV PBE+vdW (tier 2 basis)
C    0.613081  0.011118  0.143937
C    0.351043  0.125654  1.636921
O    1.160785  0.670500  2.387346
H    1.543563  -0.551198  -0.003425
H    0.772731  1.018038  -0.260709
H    -0.190558  -0.478047  -0.420004
N    -0.829500  -0.427287  2.051283
C    -1.391623  -0.529245  3.404687
C    -2.484286  0.547298  3.664697
O    -3.663907  0.192132  3.627293
H    -1.432637  -0.790473  1.322642
H    -2.008649  -1.437381  3.380451
C    -0.355536  -0.741719  4.530872
C    -1.036147  -1.101386  5.830741
C    -1.268353  -0.130188  6.812293
C    -1.473016  -2.410766  6.073872
C    -1.922247  -0.454108  8.001700
C    -2.125897  -2.740370  7.260723
C    -2.354786  -1.760771  8.228974
H    0.286683  0.132823  4.662299
H    0.304639  -1.561561  4.211703
H    -0.928809  0.892591  6.643814
H    -1.294528  -3.184467  5.324235
H    -2.092529  0.316643  8.753583
H    -2.455103  -3.765388  7.431854
H    -2.865022  -2.016192  9.157494
N    -2.159295  1.848584  3.903736
C    -0.875757  2.523182  3.999448
H    -2.990457  2.409671  4.070140
H    -0.077783  1.928068  3.543775
H    -0.605385  2.736269  5.046273
H    -0.925415  3.478544  3.459950
