32
Energy: -19780.5647075 eV PBE+vdW (tier 2 basis)
C    0.302089  0.232351  0.856187
C    0.245316  -0.464453  2.200338
O    1.252369  -0.722249  2.854591
H    -0.332479  1.128616  0.833305
H    -0.024593  -0.437478  0.048800
H    1.340791  0.521832  0.677904
N    -0.995841  -0.808702  2.691205
C    -2.296908  -0.702428  2.050883
C    -3.261990  0.062605  2.983378
O    -3.442418  1.268757  2.851899
H    -0.945344  -1.271537  3.595662
H    -2.188518  -0.041974  1.184313
C    -2.826839  -2.074325  1.550443
C    -1.988540  -2.607473  0.417572
C    -2.292859  -2.264668  -0.907441
C    -0.843610  -3.376440  0.664562
C    -1.469775  -2.670248  -1.957624
C    -0.015148  -3.779404  -0.383233
C    -0.324129  -3.425184  -1.697274
H    -3.869936  -1.947558  1.224846
H    -2.829767  -2.800153  2.380326
H    -3.182492  -1.667467  -1.116692
H    -0.587135  -3.647955  1.689156
H    -1.722971  -2.395724  -2.981687
H    0.876732  -4.368320  -0.170319
H    0.322835  -3.739124  -2.516035
N    -3.843190  -0.683344  3.969944
C    -4.735085  -0.111589  4.962555
H    -3.706202  -1.686918  3.964412
H    -4.399238  -0.357693  5.978700
H    -5.766682  -0.468265  4.831144
H    -4.718879  0.975279  4.831601
