32
Energy: -19780.7779658 eV PBE+vdW (tier 2 basis)
C    -1.376287  1.872918  1.839968
C    -1.549694  0.606091  2.652965
O    -1.931212  0.608814  3.816097
H    -0.633748  1.773240  1.037532
H    -1.092409  2.694165  2.504935
H    -2.344792  2.121653  1.382191
N    -1.248815  -0.564080  1.974724
C    -1.744280  -1.850077  2.449422
C    -0.643329  -2.893799  2.722045
O    -0.926948  -4.076076  2.903855
H    -1.116511  -0.474377  0.971360
H    -2.198864  -1.632444  3.429742
C    -2.819705  -2.429795  1.504499
C    -3.965925  -1.473819  1.293870
C    -4.080012  -0.741564  0.105132
C    -4.910298  -1.248680  2.305394
C    -5.102195  0.193445  -0.071258
C    -5.932702  -0.317120  2.134947
C    -6.030983  0.410491  0.946502
H    -3.155353  -3.379579  1.939919
H    -2.353979  -2.678780  0.537685
H    -3.362282  -0.914326  -0.699893
H    -4.838550  -1.804758  3.241507
H    -5.174342  0.749145  -1.006531
H    -6.655316  -0.155703  2.934807
H    -6.830296  1.139409  0.814239
N    0.621686  -2.396403  2.769527
C    1.769765  -3.207729  3.119026
H    0.721029  -1.394187  2.648179
H    2.186522  -2.916040  4.093967
H    2.557503  -3.125078  2.357855
H    1.434321  -4.248958  3.176790
