32
Energy: -19780.5994769 eV PBE+vdW (tier 2 basis)
C    -0.832042  0.432804  -0.087176
C    -0.457091  0.524192  1.378992
O    0.554980  1.099570  1.767301
H    0.081017  0.355608  -0.685910
H    -1.345367  1.363113  -0.368353
H    -1.494094  -0.411979  -0.315396
N    -1.336560  -0.089937  2.243153
C    -1.298572  0.183215  3.675978
C    -1.588101  1.696558  3.916271
O    -2.293750  2.323697  3.128898
H    -2.248425  -0.310478  1.860048
H    -2.173594  -0.336095  4.098561
C    -0.028221  -0.424576  4.321844
C    -0.051370  -0.545741  5.828065
C    0.944428  0.068012  6.603237
C    -1.050403  -1.273843  6.493122
C    0.937851  -0.030268  7.997076
C    -1.061062  -1.373871  7.883114
C    -0.068460  -0.748290  8.641967
H    0.845567  0.151890  3.996776
H    0.082114  -1.428381  3.884038
H    1.739423  0.623372  6.101879
H    -1.828680  -1.776431  5.915940
H    1.723568  0.453773  8.577307
H    -1.846262  -1.945602  8.378057
H    -0.078376  -0.826059  9.728840
N    -1.093042  2.246312  5.051709
C    -1.363153  3.630080  5.399079
H    -0.539100  1.681220  5.685908
H    -0.888962  3.848451  6.361684
H    -2.443423  3.813762  5.479164
H    -0.962233  4.312254  4.637072
