32
Energy: -19780.3816093 eV PBE+vdW (tier 2 basis)
C    0.796179  1.051417  0.920998
C    0.275589  0.278348  2.120741
O    0.993291  -0.448943  2.799521
H    1.541873  1.777567  1.268946
H    0.017952  1.584984  0.360743
H    1.309652  0.354136  0.248234
N    -1.058014  0.438814  2.389416
C    -1.714537  -0.160183  3.544663
C    -1.545919  -1.689316  3.700769
O    -1.347434  -2.150320  4.818510
H    -1.601824  1.061789  1.803584
H    -1.257998  0.226430  4.467643
C    -3.208865  0.242245  3.514893
C    -4.003345  -0.233623  4.704688
C    -3.978564  0.478696  5.910157
C    -4.764703  -1.405669  4.633019
C    -4.695249  0.029827  7.018218
C    -5.483638  -1.858268  5.739197
C    -5.450757  -1.141343  6.935509
H    -3.668433  -0.140421  2.590509
H    -3.249866  1.342451  3.461975
H    -3.387945  1.393929  5.982906
H    -4.784183  -1.975487  3.702504
H    -4.663753  0.595514  7.949397
H    -6.068680  -2.775118  5.666924
H    -6.011296  -1.493702  7.801160
N    -1.732625  -2.517426  2.623560
C    -1.847955  -2.217204  1.207171
H    -1.554992  -3.485799  2.872900
H    -2.217834  -3.114622  0.696967
H    -0.887587  -1.932389  0.749548
H    -2.572304  -1.415906  1.020762
