32
Energy: -19780.8522408 eV PBE+vdW (tier 2 basis)
C    -0.724330  -0.178097  -0.588286
C    -0.876469  -0.980215  0.687074
O    -0.686191  -2.204175  0.706896
H    -0.611023  0.899468  -0.417791
H    -1.620085  -0.337234  -1.204878
H    0.139284  -0.553559  -1.146921
N    -1.249496  -0.268431  1.785297
C    -1.716007  -0.802322  3.072675
C    -0.626535  -1.424352  3.982077
O    -0.583194  -1.106019  5.171432
H    -1.403810  0.722384  1.646959
H    -2.048275  0.074993  3.639737
C    -2.925861  -1.765749  2.933182
C    -4.072927  -1.139628  2.182485
C    -4.921303  -0.213481  2.806180
C    -4.286580  -1.434346  0.829256
C    -5.951445  0.404254  2.097186
C    -5.316628  -0.818171  0.116313
C    -6.150838  0.105668  0.747377
H    -3.229344  -2.033344  3.955439
H    -2.603729  -2.687059  2.432681
H    -4.776719  0.020655  3.862930
H    -3.639846  -2.160799  0.334410
H    -6.605228  1.116260  2.601374
H    -5.471129  -1.065214  -0.934408
H    -6.957595  0.585285  0.193309
N    0.185917  -2.331688  3.390125
C    1.228538  -3.029896  4.114616
H    0.013529  -2.536385  2.398600
H    2.206790  -2.877303  3.637761
H    1.026577  -4.110008  4.159854
H    1.259954  -2.633490  5.135058
