32
Energy: -19780.4392707 eV PBE+vdW (tier 2 basis)
C    -0.636329  -0.289110  0.150692
C    -0.365565  -0.643026  1.595723
O    0.416327  -1.543107  1.896881
H    -1.357801  0.513664  -0.015324
H    -0.974643  -1.198937  -0.361012
H    0.316802  0.010832  -0.301900
N    -1.029034  0.027890  2.604297
C    -1.933858  1.171472  2.590634
C    -3.089352  1.056835  1.567789
O    -3.386878  1.984835  0.817547
H    -0.723947  -0.296869  3.517758
H    -2.443359  1.137127  3.569797
C    -1.224093  2.553872  2.538175
C    -0.190752  2.727981  1.453580
C    -0.526256  3.277619  0.208120
C    1.132550  2.317382  1.668596
C    0.431679  3.394699  -0.798501
C    2.091401  2.427249  0.661170
C    1.741890  2.963596  -0.578933
H    -0.739620  2.692964  3.515795
H    -2.005808  3.318728  2.447160
H    -1.554939  3.586479  0.027131
H    1.413565  1.894300  2.634187
H    0.152252  3.822004  -1.761827
H    3.112031  2.092443  0.846227
H    2.488407  3.051190  -1.368367
N    -3.811964  -0.102510  1.566266
C    -3.717771  -1.267258  2.433034
H    -4.550496  -0.093420  0.869986
H    -4.676293  -1.797780  2.397940
H    -3.540579  -0.977646  3.476752
H    -2.921998  -1.961381  2.129028
