32
Energy: -19780.4256383 eV PBE+vdW (tier 2 basis)
C    0.178925  -0.089884  1.047758
C    -0.845632  -0.749843  1.945373
O    -0.641431  -1.836702  2.482206
H    0.317856  0.975602  1.263626
H    -0.126222  -0.165269  -0.005259
H    1.124776  -0.622153  1.177628
N    -2.056653  -0.118732  2.140879
C    -2.554182  1.180436  1.685526
C    -2.437276  1.340147  0.148211
O    -1.733657  2.203843  -0.371265
H    -2.653387  -0.640236  2.776247
H    -3.630999  1.163392  1.914817
C    -1.950188  2.393627  2.433257
C    -2.898539  3.567457  2.505292
C    -3.810779  3.668110  3.566206
C    -2.914710  4.558470  1.514157
C    -4.716595  4.726697  3.637327
C    -3.819030  5.619163  1.583905
C    -4.723622  5.707005  2.643442
H    -1.016544  2.689601  1.938968
H    -1.705142  2.054960  3.448872
H    -3.802202  2.911947  4.354313
H    -2.217986  4.483184  0.679700
H    -5.412278  4.790539  4.474354
H    -3.815068  6.382652  0.805603
H    -5.427024  6.537836  2.698040
N    -3.158790  0.464766  -0.611058
C    -4.024167  -0.621054  -0.180506
H    -3.018819  0.595121  -1.607917
H    -4.651670  -0.919800  -1.027257
H    -4.696514  -0.300286  0.626683
H    -3.459082  -1.498409  0.165545
