32
Energy: -19780.7512149 eV PBE+vdW (tier 2 basis)
C    -0.782983  0.307313  -0.384398
C    -0.616501  0.531263  1.105358
O    0.353049  1.156541  1.553768
H    0.086582  -0.251792  -0.752172
H    -0.782327  1.281197  -0.888955
H    -1.695501  -0.237198  -0.655408
N    -1.595294  0.003758  1.892715
C    -1.649701  0.014064  3.362809
C    -1.937465  1.412821  3.971503
O    -2.944092  1.595767  4.654441
H    -2.373114  -0.440523  1.421340
H    -2.545501  -0.560614  3.626712
C    -0.420783  -0.688694  3.995312
C    -0.524449  -0.787856  5.496853
C    -1.258202  -1.819614  6.097181
C    0.085154  0.165366  6.322448
C    -1.382545  -1.897590  7.483669
C    -0.037374  0.092092  7.710117
C    -0.772758  -0.939259  8.295311
H    0.492474  -0.153089  3.709733
H    -0.357073  -1.694081  3.552611
H    -1.736354  -2.574379  5.469318
H    0.656780  0.975956  5.868578
H    -1.955853  -2.709076  7.932218
H    0.444230  0.843172  8.336505
H    -0.868925  -0.997908  9.379351
N    -0.998950  2.360189  3.730844
C    -1.140975  3.709582  4.242641
H    -0.266146  2.134518  3.050404
H    -0.186159  4.234248  4.129487
H    -1.415430  3.679899  5.304456
H    -1.922815  4.273929  3.711247
