32
Energy: -19780.7038145 eV PBE+vdW (tier 2 basis)
C    -0.613958  0.826418  0.261311
C    -0.740614  0.567931  1.750933
O    -0.087008  1.235558  2.558710
H    -0.665976  1.906216  0.083311
H    -1.371577  0.320228  -0.349445
H    0.379841  0.486685  -0.060316
N    -1.612973  -0.428120  2.086548
C    -1.857926  -1.130230  3.360524
C    -2.174511  -0.320947  4.642481
O    -2.876519  -0.871542  5.496284
H    -2.081011  -0.858069  1.297708
H    -2.799782  -1.669401  3.195113
C    -0.788671  -2.222945  3.658428
C    0.615469  -1.716485  3.855282
C    1.531456  -1.730188  2.795975
C    1.028866  -1.196004  5.089827
C    2.818530  -1.216541  2.952933
C    2.314540  -0.682373  5.251050
C    3.212067  -0.685191  4.181305
H    -0.808290  -2.941248  2.825487
H    -1.140886  -2.755162  4.553302
H    1.227796  -2.147156  1.833607
H    0.333702  -1.192503  5.930826
H    3.516199  -1.232547  2.115349
H    2.619120  -0.280195  6.217498
H    4.216639  -0.281880  4.307666
N    -1.639505  0.907756  4.771077
C    -1.812615  1.677213  5.987024
H    -0.947685  1.197539  4.060919
H    -1.619075  2.734142  5.772960
H    -1.126229  1.345735  6.782947
H    -2.836939  1.559754  6.358983
