32
Energy: -19780.6875806 eV PBE+vdW (tier 2 basis)
C    -1.558736  -2.305469  1.823072
C    -0.713550  -1.402180  2.703898
O    0.267282  -1.822406  3.313175
H    -1.069562  -3.282323  1.788669
H    -1.646607  -1.915643  0.798873
H    -2.572624  -2.427912  2.225750
N    -1.069805  -0.078376  2.792369
C    -2.202465  0.613034  2.217510
C    -1.718412  1.995943  1.747280
O    -0.937193  2.656553  2.427423
H    -0.440996  0.503104  3.344576
H    -2.580520  0.030681  1.365712
C    -3.369963  0.825835  3.232805
C    -3.979109  -0.470524  3.690854
C    -3.441180  -1.174366  4.777150
C    -5.053068  -1.039038  2.991197
C    -3.949782  -2.421507  5.140991
C    -5.567913  -2.283063  3.355346
C    -5.011835  -2.981637  4.429204
H    -4.133657  1.455379  2.751560
H    -2.968284  1.395638  4.082483
H    -2.604319  -0.748447  5.331016
H    -5.490678  -0.498803  2.148971
H    -3.511446  -2.958564  5.981889
H    -6.405115  -2.707911  2.801307
H    -5.408964  -3.955843  4.713433
N    -2.254914  2.428797  0.572101
C    -1.965482  3.735024  0.008116
H    -2.862469  1.799149  0.062238
H    -2.882987  4.327102  -0.112762
H    -1.466330  3.645590  -0.966477
H    -1.295316  4.251185  0.703273
