32
Energy: -19780.5006732 eV PBE+vdW (tier 2 basis)
C    -0.179704  0.061183  -0.341289
C    -0.831453  -0.268326  0.989921
O    -1.730306  -1.097765  1.097959
H    0.548162  0.880324  -0.287821
H    -0.962172  0.321264  -1.064338
H    0.324732  -0.838470  -0.716229
N    -0.366174  0.444953  2.063011
C    -0.740860  0.117063  3.430668
C    -2.246708  0.116203  3.768583
O    -2.650899  -0.696613  4.596629
H    0.476078  0.999901  1.942584
H    -0.442713  -0.918588  3.655529
C    -0.017782  1.069492  4.414063
C    1.479305  1.077541  4.227667
C    2.119365  2.160427  3.608910
C    2.259246  -0.017474  4.628779
C    3.499363  2.150930  3.389733
C    3.635960  -0.029523  4.413562
C    4.261041  1.053712  3.789855
H    -0.283017  0.739446  5.427485
H    -0.411984  2.089526  4.293369
H    1.530562  3.030701  3.310544
H    1.780143  -0.867744  5.117117
H    3.978377  3.005302  2.911282
H    4.226014  -0.887313  4.736375
H    5.337849  1.043123  3.622915
N    -3.081438  1.070941  3.258835
C    -2.862249  2.081968  2.238631
H    -4.039731  0.920394  3.559187
H    -3.671581  2.818273  2.310459
H    -2.864074  1.664177  1.220231
H    -1.916802  2.612915  2.394076
