32
Energy: -19780.7510355 eV PBE+vdW (tier 2 basis)
C    -0.223136  0.674180  -0.292292
C    -0.350594  0.872221  1.205009
O    0.095502  1.886696  1.756273
H    0.842483  0.671542  -0.554024
H    -0.682241  1.530618  -0.801016
H    -0.681560  -0.251125  -0.661504
N    -0.980581  -0.129874  1.879657
C    -1.177796  -0.229640  3.334101
C    -2.215520  0.777501  3.898710
O    -3.229722  0.370462  4.463395
H    -1.356704  -0.889280  1.326106
H    -1.659469  -1.200905  3.498359
C    0.167473  -0.220541  4.105044
C    -0.015995  -0.444061  5.585432
C    -0.085033  0.638699  6.471292
C    -0.151034  -1.739375  6.102415
C    -0.286533  0.433574  7.836348
C    -0.351487  -1.949374  7.466104
C    -0.421419  -0.861408  8.338159
H    0.685628  0.728578  3.922987
H    0.793646  -1.017405  3.676364
H    0.015172  1.652814  6.082233
H    -0.095221  -2.595760  5.427124
H    -0.337695  1.288731  8.510512
H    -0.452129  -2.964863  7.849573
H    -0.578315  -1.023073  9.404501
N    -1.895539  2.086890  3.759553
C    -2.773095  3.134158  4.245280
H    -1.090218  2.314029  3.167209
H    -2.226952  4.083682  4.244500
H    -3.099763  2.903775  5.266965
H    -3.674687  3.241308  3.622446
