32
Energy: -19780.7780754 eV PBE+vdW (tier 2 basis)
C    -2.105913  2.840195  0.894265
C    -1.812838  1.790561  1.948772
O    -1.437097  0.656636  1.660595
H    -2.607677  3.732522  1.288832
H    -2.722195  2.391408  0.107237
H    -1.155074  3.145494  0.437274
N    -1.965705  2.212845  3.242984
C    -1.743782  1.338450  4.371216
C    -2.916933  1.509139  5.345516
O    -3.456593  2.604016  5.506793
H    -2.418330  3.098004  3.451455
H    -1.694779  0.316352  3.966638
C    -0.411632  1.656602  5.114903
C    0.791625  1.562114  4.214623
C    1.423152  0.332967  3.986476
C    1.271424  2.693992  3.543580
C    2.501809  0.234194  3.109665
C    2.349437  2.600027  2.662652
C    2.967024  1.368553  2.441810
H    -0.314275  0.957238  5.958889
H    -0.494038  2.667204  5.540782
H    1.059587  -0.561012  4.496892
H    0.791445  3.658769  3.713848
H    2.978709  -0.731720  2.943320
H    2.709113  3.491932  2.149010
H    3.808668  1.292519  1.753594
N    -3.262622  0.386248  6.032141
C    -4.302033  0.366525  7.044725
H    -2.800454  -0.480931  5.786037
H    -5.141710  -0.274588  6.742227
H    -4.665546  1.392487  7.163196
H    -3.909768  0.010258  8.007051
