32
Energy: -19780.6146879 eV PBE+vdW (tier 2 basis)
C    0.182741  0.573478  0.595882
C    0.040579  0.062215  2.022035
O    1.017564  -0.136362  2.739334
H    1.250086  0.648565  0.372842
H    -0.272667  1.567870  0.481163
H    -0.289426  -0.096511  -0.136207
N    -1.232010  -0.150058  2.484600
C    -2.479753  -0.027445  1.758789
C    -3.555895  0.355210  2.790457
O    -3.558471  -0.194692  3.893411
H    -1.315183  -0.484883  3.443718
H    -2.372994  0.750319  0.993144
C    -2.882883  -1.362758  1.058696
C    -4.109665  -1.237121  0.195580
C    -4.011017  -0.750551  -1.115855
C    -5.381261  -1.541641  0.700790
C    -5.149752  -0.563246  -1.899305
C    -6.523416  -1.354302  -0.078837
C    -6.411757  -0.860965  -1.380572
H    -3.030386  -2.116280  1.844543
H    -2.022490  -1.685194  0.455647
H    -3.026882  -0.518543  -1.528640
H    -5.473432  -1.923291  1.718807
H    -5.052237  -0.188724  -2.918394
H    -7.503887  -1.599191  0.329920
H    -7.302984  -0.717969  -1.991221
N    -4.490043  1.288549  2.461644
C    -4.731255  1.974445  1.202722
H    -5.182932  1.411571  3.195660
H    -5.112994  2.981249  1.412462
H    -5.456522  1.441973  0.570318
H    -3.802386  2.085144  0.635010
