32
Energy: -19780.7187413 eV PBE+vdW (tier 2 basis)
C    -3.334168  -0.806163  -0.768433
C    -1.866322  -0.429102  -0.633389
O    -1.092972  -0.483496  -1.585847
H    -3.495415  -1.163549  -1.788652
H    -3.985618  0.061919  -0.591127
H    -3.629572  -1.594796  -0.062473
N    -1.443247  -0.003717  0.599023
C    -2.201891  0.095872  1.825109
C    -1.573750  1.224832  2.663291
O    -0.361492  1.431160  2.636803
H    -0.467347  0.284044  0.669987
H    -3.247153  0.348929  1.594675
C    -2.179571  -1.234199  2.646311
C    -3.018990  -1.171717  3.894766
C    -2.432443  -0.937430  5.146279
C    -4.416622  -1.271774  3.821797
C    -3.217676  -0.800766  6.291229
C    -5.205979  -1.132458  4.964325
C    -4.608161  -0.893323  6.203413
H    -1.131970  -1.457360  2.890471
H    -2.535094  -2.034665  1.982130
H    -1.346944  -0.852597  5.217743
H    -4.892116  -1.467651  2.858227
H    -2.741910  -0.623430  7.255940
H    -6.290035  -1.218539  4.888229
H    -5.222819  -0.788006  7.097072
N    -2.449094  1.927073  3.430937
C    -2.011831  2.873464  4.441113
H    -3.406301  1.594653  3.471857
H    -0.976126  3.148760  4.218885
H    -2.053737  2.430591  5.447895
H    -2.638634  3.773442  4.419411
