32
Energy: -19780.1566764 eV PBE+vdW (tier 2 basis)
C    0.552113  -0.032675  2.292310
C    -0.602366  -1.005009  2.436682
O    -0.393439  -2.175806  2.754544
H    0.635969  0.363594  1.272999
H    1.465044  -0.584193  2.531496
H    0.458493  0.819231  2.976417
N    -1.905146  -0.596976  2.240113
C    -2.610980  0.601617  1.766195
C    -3.415965  0.298796  0.474740
O    -4.637057  0.435691  0.482843
H    -2.531640  -1.381772  2.410390
H    -3.417025  0.792021  2.490108
C    -1.798407  1.909228  1.674244
C    -2.667295  3.080656  1.279457
C    -3.439686  3.753138  2.234685
C    -2.730587  3.504436  -0.053027
C    -4.258024  4.820177  1.867321
C    -3.548507  4.571345  -0.425409
C    -4.315585  5.231835  0.534493
H    -0.973110  1.820181  0.958272
H    -1.349886  2.100297  2.659192
H    -3.399661  3.437596  3.279076
H    -2.136481  2.987896  -0.809008
H    -4.852156  5.332741  2.623810
H    -3.586638  4.886909  -1.468006
H    -4.955189  6.065704  0.246164
N    -2.765901  -0.119248  -0.654263
C    -1.364502  -0.437854  -0.872699
H    -3.413203  -0.316577  -1.410963
H    -1.229594  -0.662705  -1.936030
H    -1.033488  -1.310968  -0.293532
H    -0.707609  0.409970  -0.636188
