32
Energy: -19780.8598899 eV PBE+vdW (tier 2 basis)
C    -2.488381  1.957102  0.978578
C    -2.416917  1.256443  2.318100
O    -2.974577  0.169270  2.517410
H    -3.540742  2.084097  0.697603
H    -2.021920  1.311988  0.223180
H    -1.990439  2.934076  0.966182
N    -1.704307  1.892844  3.286770
C    -1.397310  1.277145  4.577372
C    -2.563647  1.483490  5.586444
O    -2.477223  2.249182  6.544940
H    -1.235746  2.761229  3.054436
H    -1.305050  0.196329  4.387007
C    -0.083839  1.830927  5.144576
C    1.069608  1.734672  4.176517
C    1.633426  0.494686  3.842050
C    1.586126  2.883938  3.563889
C    2.674170  0.406528  2.919081
C    2.628401  2.801305  2.637570
C    3.174011  1.560440  2.310174
H    0.134691  1.276177  6.067558
H    -0.245441  2.872322  5.456270
H    1.253539  -0.414051  4.312608
H    1.175503  3.860591  3.829429
H    3.100022  -0.566913  2.675232
H    3.017236  3.709368  2.176342
H    3.988829  1.491493  1.589798
N    -3.653655  0.730779  5.288025
C    -4.894992  0.829126  6.029578
H    -3.627977  0.227349  4.395883
H    -5.276524  -0.170565  6.275650
H    -5.666620  1.368536  5.459464
H    -4.697255  1.378097  6.956280
