32
Energy: -19780.4420623 eV PBE+vdW (tier 2 basis)
C    -0.978082  -0.384875  -0.389838
C    -1.132660  -0.351511  1.121169
O    -1.042711  -1.376809  1.796608
H    -1.898752  -0.800831  -0.821719
H    -0.155618  -1.061058  -0.646349
H    -0.796620  0.598061  -0.842622
N    -1.386018  0.892098  1.635816
C    -1.792667  1.294535  2.986767
C    -0.696074  1.948282  3.868668
O    -0.979654  3.005028  4.437773
H    -1.427143  1.640314  0.954709
H    -2.465358  2.148483  2.832161
C    -2.606208  0.247985  3.785312
C    -3.950767  -0.042124  3.157295
C    -4.198682  -1.248962  2.491935
C    -4.979731  0.908955  3.225163
C    -5.441568  -1.496908  1.905396
C    -6.221010  0.664589  2.638983
C    -6.455691  -0.541123  1.973999
H    -2.754651  0.688200  4.782342
H    -2.033885  -0.676777  3.907873
H    -3.404725  -1.992750  2.427894
H    -4.809194  1.849746  3.753340
H    -5.617029  -2.443629  1.393662
H    -7.009991  1.413856  2.708175
H    -7.426252  -0.735537  1.517511
N    0.524206  1.371026  4.039195
C    1.080596  0.138321  3.508324
H    1.125693  1.939599  4.628711
H    1.753503  -0.297630  4.257016
H    1.655191  0.309485  2.584069
H    0.297551  -0.593820  3.287215
