32
Energy: -19780.1767021 eV PBE+vdW (tier 2 basis)
C    -0.522269  2.500348  0.383308
C    0.165123  1.556525  1.345075
O    1.376883  1.639149  1.547038
H    -1.181962  3.192211  0.921806
H    -1.129621  1.981089  -0.367086
H    0.259925  3.072544  -0.122069
N    -0.549253  0.596480  2.034228
C    -1.921700  0.086020  2.078852
C    -2.070940  -1.375414  1.577173
O    -2.762380  -2.152569  2.235025
H    0.085326  0.087198  2.645947
H    -2.163768  -0.035768  3.145634
C    -3.046761  0.938413  1.477159
C    -3.301608  2.291207  2.110011
C    -2.822803  2.645039  3.376623
C    -4.074218  3.227026  1.406441
C    -3.108173  3.897991  3.923775
C    -4.363918  4.476638  1.950687
C    -3.879123  4.818397  3.215004
H    -3.955108  0.325072  1.592284
H    -2.915653  1.062248  0.393167
H    -2.207325  1.949719  3.946240
H    -4.450441  2.970771  0.414073
H    -2.719038  4.154686  4.908993
H    -4.965985  5.187322  1.384399
H    -4.097770  5.796922  3.641674
N    -1.451030  -1.787957  0.433129
C    -0.696458  -1.041460  -0.562603
H    -1.635754  -2.767275  0.239292
H    -0.545487  -1.694181  -1.429086
H    0.288328  -0.724234  -0.196376
H    -1.243157  -0.156598  -0.914177
