32
Energy: -19780.601731 eV PBE+vdW (tier 2 basis)
C    -0.648224  0.136760  -0.676338
C    -0.265479  -0.424188  0.682468
O    0.820078  -0.965559  0.877900
H    0.217352  0.023698  -1.334150
H    -0.913379  1.202407  -0.619030
H    -1.501213  -0.399460  -1.111899
N    -1.172912  -0.298952  1.705997
C    -2.496959  0.276895  1.690790
C    -2.683715  1.070982  2.995114
O    -2.149392  0.700725  4.038282
H    -0.843339  -0.604467  2.620816
H    -2.589942  0.934401  0.817678
C    -3.628693  -0.800758  1.623632
C    -3.616882  -1.564794  0.328834
C    -2.821730  -2.708646  0.175382
C    -4.344861  -1.102021  -0.776565
C    -2.742448  -3.361520  -1.055133
C    -4.272177  -1.754871  -2.006802
C    -3.464250  -2.885001  -2.150682
H    -4.600445  -0.302669  1.759856
H    -3.490410  -1.473610  2.481636
H    -2.245763  -3.078877  1.023716
H    -4.975118  -0.216187  -0.671362
H    -2.110887  -4.243641  -1.158413
H    -4.847024  -1.382052  -2.854673
H    -3.401929  -3.394696  -3.111876
N    -3.508904  2.156616  2.951861
C    -4.149933  2.746733  1.787653
H    -3.623688  2.615980  3.849806
H    -4.732037  3.613121  2.118020
H    -4.844335  2.049869  1.295924
H    -3.420362  3.099166  1.043607
