32
Energy: -19780.8288353 eV PBE+vdW (tier 2 basis)
C    0.193762  -2.805671  1.478403
C    -0.355789  -2.267888  2.786313
O    -0.360116  -2.935393  3.822642
H    -0.316560  -3.747131  1.241733
H    1.258526  -3.035856  1.612202
H    0.082597  -2.111740  0.636584
N    -0.832073  -0.992847  2.737638
C    -1.404058  -0.325780  3.881869
C    -2.233632  0.848979  3.334659
O    -2.123890  1.228675  2.169520
H    -0.862388  -0.454310  1.874031
H    -2.063096  -1.036072  4.408111
C    -0.325065  0.141026  4.910457
C    0.681931  1.104968  4.342718
C    0.466767  2.489370  4.386550
C    1.845603  0.630759  3.721168
C    1.382887  3.375751  3.820947
C    2.763938  1.513946  3.153082
C    2.534297  2.889953  3.199258
H    0.169757  -0.771363  5.268079
H    -0.836253  0.588393  5.775958
H    -0.431427  2.877607  4.870319
H    2.033908  -0.443259  3.691826
H    1.198041  4.449121  3.866855
H    3.664799  1.126206  2.676979
H    3.252287  3.581091  2.758019
N    -3.063255  1.436398  4.239184
C    -3.867616  2.603405  3.929648
H    -3.113009  1.042903  5.171266
H    -3.669333  2.873159  2.887436
H    -3.601298  3.452055  4.575390
H    -4.939241  2.390544  4.045151
