32
Energy: -19780.4674308 eV PBE+vdW (tier 2 basis)
C    -1.512065  -0.087992  -1.257221
C    -0.589091  -0.288178  -0.067355
O    0.630538  -0.355471  -0.195209
H    -0.890029  -0.032061  -2.154084
H    -2.095740  0.839720  -1.173383
H    -2.222954  -0.918895  -1.366830
N    -1.167744  -0.369917  1.176653
C    -2.580165  -0.488063  1.500761
C    -2.937956  0.339502  2.761308
O    -3.596609  -0.135828  3.684020
H    -0.505568  -0.623965  1.906811
H    -3.144783  -0.028006  0.674819
C    -3.054685  -1.960659  1.624414
C    -2.125342  -2.856222  2.410594
C    -2.262843  -3.018305  3.796842
C    -1.084071  -3.533684  1.758992
C    -1.382881  -3.835383  4.507515
C    -0.199999  -4.346907  2.468705
C    -0.347691  -4.500594  3.847837
H    -3.148848  -2.356489  0.602812
H    -4.055666  -1.954642  2.073134
H    -3.058834  -2.484950  4.314670
H    -0.961859  -3.421287  0.680297
H    -1.507720  -3.952396  5.584309
H    0.603681  -4.861350  1.941877
H    0.339026  -5.137728  4.405200
N    -2.513433  1.638262  2.803048
C    -1.889972  2.452373  1.769689
H    -2.796342  2.104609  3.659081
H    -2.033195  3.506115  2.034210
H    -2.361717  2.294702  0.790525
H    -0.813878  2.258922  1.669962
