32
Energy: -19780.4027947 eV PBE+vdW (tier 2 basis)
C    0.572591  0.683234  0.525298
C    0.275965  0.170490  1.924699
O    1.162271  -0.090434  2.730367
H    1.086771  -0.108288  -0.035004
H    1.263470  1.531089  0.600718
H    -0.317370  0.992393  -0.037188
N    -1.055397  0.034872  2.225814
C    -1.564550  -0.550561  3.464894
C    -0.822742  -0.024606  4.724648
O    -0.320176  -0.786359  5.542444
H    -1.729247  0.219805  1.492669
H    -2.607419  -0.203081  3.551210
C    -1.576807  -2.099357  3.435456
C    -2.711445  -2.703745  4.228868
C    -2.574423  -3.016876  5.588420
C    -3.948055  -2.942901  3.611007
C    -3.644914  -3.552748  6.305603
C    -5.020666  -3.476331  4.326282
C    -4.871493  -3.783067  5.679806
H    -0.605414  -2.454034  3.800700
H    -1.674741  -2.401560  2.383457
H    -1.622342  -2.820244  6.079726
H    -4.067925  -2.719095  2.548409
H    -3.518513  -3.792941  7.361637
H    -5.970901  -3.660349  3.824119
H    -5.705246  -4.203873  6.241978
N    -0.841317  1.325991  4.941546
C    -1.348273  2.392200  4.099777
H    -0.294524  1.590162  5.754906
H    -0.651178  2.671764  3.294086
H    -1.526964  3.275294  4.724899
H    -2.307980  2.115536  3.645712
