32
Energy: -19780.4420633 eV PBE+vdW (tier 2 basis)
C    -1.061014  -0.188145  -0.216098
C    -2.505740  0.125945  -0.550719
O    -2.886948  0.207165  -1.715253
H    -0.891645  -0.576589  0.794236
H    -0.483605  0.740346  -0.317686
H    -0.689993  -0.907323  -0.953175
N    -3.395314  0.339012  0.478166
C    -3.185083  0.330671  1.916549
C    -2.043952  1.312473  2.323204
O    -1.816334  2.319465  1.661057
H    -4.301460  0.646117  0.140214
H    -4.085658  0.803528  2.340166
C    -3.134708  -1.124454  2.468790
C    -3.311625  -1.287728  3.960930
C    -2.327069  -1.923882  4.732298
C    -4.462467  -0.818114  4.613401
C    -2.478878  -2.076806  6.112728
C    -4.616518  -0.967218  5.990376
C    -3.622945  -1.593981  6.746815
H    -2.200760  -1.610328  2.154582
H    -3.943759  -1.661603  1.952229
H    -1.432813  -2.311561  4.240241
H    -5.253451  -0.335290  4.036921
H    -1.701801  -2.577351  6.690367
H    -5.518616  -0.595498  6.476245
H    -3.744758  -1.709537  7.823381
N    -1.353995  1.009086  3.455251
C    -0.351310  1.916518  3.986140
H    -1.656663  0.231926  4.033697
H    0.216287  1.398431  4.766549
H    -0.803783  2.824306  4.412781
H    0.331375  2.227418  3.186614
