37
Energy: -574593.1059353  eV PBE+vdW (tier 2 basis)
C    -2.841861  -0.987081  0.335528
C    -1.651143  -0.105992  0.461062
O    -1.080747  0.477512  -0.507734
H    -2.527453  -1.975201  -0.038251
H    -3.525127  -0.572446  -0.417525
H    -3.391018  -1.116866  1.273807
N    -1.020278  0.092897  1.656833
C    -1.101727  -0.747673  2.824700
C    -1.993213  -0.062791  3.990390
O    -2.777312  -0.865538  4.486754
H    -0.269624  0.787992  1.610302
H    -1.688578  -1.635079  2.572095
C    0.275387  -1.180888  3.394913
C    0.164348  -2.206481  4.536771
C    1.548880  -2.711018  4.989241
N    1.412694  -3.673005  6.081803
C    2.325272  -4.610102  6.438401
N    1.973945  -5.539957  7.333508
N    3.544043  -4.617096  5.896632
H    0.849114  -0.300087  3.720126
H    0.824365  -1.622839  2.547347
H    -0.440916  -3.065935  4.212015
H    -0.351370  -1.758820  5.399815
H    2.168231  -1.856065  5.314992
H    2.070844  -3.207143  4.156910
H    0.621281  -3.557037  6.710756
H    1.003699  -5.713058  7.577177
H    2.665704  -6.145665  7.766682
H    4.179381  -5.394183  6.053819
H    3.941854  -3.793586  5.460481
N    -1.826128  1.202968  4.369723
C    -0.926934  2.236937  3.853822
H    -2.467229  1.487637  5.112495
H    -0.857136  3.021912  4.614585
H    -1.317199  2.695343  2.935905
H    0.089252  1.854734  3.700236
Hg    -2.052453  1.343172  -2.459226
