37
Energy: -574593.3441286  eV PBE+vdW (tier 2 basis)
C    0.677591  0.765370  0.002527
C    0.316108  -0.444185  0.805413
O    1.062050  -1.467700  0.589466
H    1.632302  1.165274  0.378614
H    -0.092271  1.545027  0.031913
H    0.855502  0.464869  -1.039870
N    -0.714438  -0.357216  1.664461
C    -1.568909  -1.354144  2.386983
C    -0.933670  -1.874527  3.700972
O    -0.156081  -2.913424  3.740649
H    -1.104129  0.583210  1.694801
H    -2.426111  -0.745414  2.698387
C    -2.148340  -2.470172  1.482173
C    -3.296363  -3.238070  2.165947
C    -3.964720  -4.339458  1.323161
N    -4.860767  -3.807226  0.287433
C    -5.392234  -4.556681  -0.713409
N    -6.178002  -3.968363  -1.619026
N    -5.103298  -5.856468  -0.820717
H    -1.370496  -3.182501  1.160078
H    -2.498497  -1.977840  0.563313
H    -4.067917  -2.531208  2.514208
H    -2.923710  -3.739698  3.071383
H    -4.523329  -4.990430  2.015283
H    -3.198370  -4.955466  0.829937
H    -5.409776  -2.990465  0.543879
H    -6.740323  -4.513556  -2.265226
H    -6.249480  -2.960095  -1.694109
H    -5.388649  -6.384253  -1.640449
H    -4.790100  -6.402456  -0.026782
N    -1.225118  -1.333881  4.867273
C    -2.168976  -0.280569  5.254912
H    -0.734824  -1.777994  5.652779
H    -3.005806  -0.724502  5.810853
H    -2.546120  0.270655  4.390577
H    -1.641796  0.416671  5.919375
Hg    1.188073  -3.031115  2.058836
