37
Energy: -574593.7142962  eV PBE+vdW (tier 2 basis)
C    -4.272257  2.116438  4.819600
C    -3.370662  1.386764  3.876231
O    -3.330350  1.861243  2.687533
H    -4.040158  3.191157  4.776219
H    -4.176326  1.765190  5.853451
H    -5.311602  2.006637  4.475090
N    -2.687814  0.316168  4.324993
C    -1.498094  -0.356657  3.750049
C    -1.910647  -1.546958  2.842874
O    -2.072661  -1.388543  1.574354
H    -2.900712  0.066970  5.290301
H    -0.999217  0.363137  3.079789
C    -0.505032  -0.678611  4.891709
C    0.889495  -1.149907  4.434318
C    1.864074  -1.236841  5.626013
N    3.199510  -1.643829  5.185500
C    4.151241  -2.196823  5.974694
N    3.975229  -2.288267  7.296368
N    5.261457  -2.680291  5.410245
H    -0.952605  -1.407684  5.589998
H    -0.399226  0.253263  5.468500
H    1.288110  -0.434434  3.696955
H    0.837218  -2.129500  3.936436
H    1.504179  -1.981122  6.351687
H    1.906756  -0.259250  6.136485
H    3.517347  -1.306760  4.281067
H    4.612846  -2.836770  7.865814
H    3.348969  -1.669142  7.797045
H    5.322963  -2.859941  4.413992
H    6.079011  -2.912118  5.966201
N    -2.091579  -2.744731  3.355856
C    -2.540532  -3.929905  2.608208
H    -1.862841  -2.878392  4.339470
H    -3.097452  -4.576893  3.293155
H    -1.673485  -4.476865  2.214239
H    -3.177019  -3.618476  1.774876
Hg    -2.640131  0.650740  1.017683
