37
Energy: -574593.3587098  eV PBE+vdW (tier 2 basis)
C    0.567780  1.873774  0.754468
C    0.275030  1.224350  2.070514
O    1.199593  1.331048  2.945900
H    -0.241783  1.730413  0.028556
H    1.509088  1.473668  0.353388
H    0.722120  2.951191  0.917646
N    -0.905219  0.596534  2.236490
C    -1.518925  0.133808  3.492263
C    -0.998160  -1.265969  3.923600
O    -0.198204  -1.343522  4.933711
H    -1.510909  0.619146  1.417947
H    -1.157107  0.797938  4.294856
C    -3.057405  0.332128  3.464255
C    -3.744600  -0.069082  4.786926
C    -5.089799  0.618002  5.083275
N    -6.199779  0.146248  4.244689
C    -7.399465  0.779146  4.154272
N    -8.337765  0.277408  3.345623
N    -7.632176  1.906048  4.830350
H    -3.503247  -0.193881  2.609232
H    -3.207533  1.407223  3.281022
H    -3.097625  0.203527  5.634859
H    -3.863207  -1.162404  4.852858
H    -4.987750  1.702788  4.933176
H    -5.319066  0.446560  6.148151
H    -6.232123  -0.852373  4.055645
H    -8.128865  -0.438142  2.658766
H    -9.297300  0.608506  3.379509
H    -8.469389  2.453942  4.654091
H    -7.099443  2.158601  5.654332
N    -1.338682  -2.402970  3.347398
C    -2.283320  -2.681633  2.264102
H    -0.886722  -3.223679  3.764198
H    -1.917112  -3.562457  1.724236
H    -2.342286  -1.846504  1.562374
H    -3.277814  -2.916188  2.666435
Hg    1.313664  0.265174  4.866078
