37
Energy: -574593.4092476  eV PBE+vdW (tier 2 basis)
C    -0.229216  -0.575001  -0.357609
C    -0.297272  -0.315280  1.114753
O    0.702353  0.314248  1.601837
H    -0.089090  0.380785  -0.883544
H    -1.130193  -1.071136  -0.737842
H    0.657231  -1.188758  -0.572883
N    -1.372208  -0.748829  1.800345
C    -1.778768  -0.405032  3.173587
C    -1.050063  -1.275104  4.237335
O    -0.132433  -0.727005  4.962011
H    -2.063911  -1.235590  1.232765
H    -1.410879  0.614163  3.378731
C    -3.322611  -0.331332  3.287558
C    -3.814574  0.086407  4.686239
C    -5.343666  0.143206  4.859214
N    -5.955997  1.312817  4.216517
C    -7.292103  1.461532  4.019335
N    -7.736577  2.554653  3.392675
N    -8.150807  0.516666  4.409152
H    -3.771390  -1.293962  3.003973
H    -3.650077  0.399599  2.532740
H    -3.377956  1.056241  4.975441
H    -3.457922  -0.629573  5.442053
H    -5.553890  0.150374  5.941515
H    -5.804968  -0.760679  4.434305
H    -5.432425  2.183207  4.268516
H    -8.723349  2.794882  3.383618
H    -7.112657  3.180923  2.896475
H    -9.129183  0.561075  4.138976
H    -7.918382  -0.155146  5.131096
N    -1.320199  -2.543068  4.483434
C    -2.351033  -3.430601  3.938641
H    -0.727393  -2.950188  5.214483
H    -1.968142  -4.455546  3.999758
H    -2.559662  -3.202451  2.890470
H    -3.271290  -3.373200  4.535413
Hg    1.172067  0.563097  3.736687
