37
Energy: -574592.6790289  eV PBE+vdW (tier 2 basis)
 C   -0.03438    0.13759   -0.49446
 C    0.33502   -0.74414    0.64164
 O    1.50182   -1.26711    0.61993
 H   -0.81749    0.85420   -0.23567
 H   -0.32638   -0.46846   -1.36620
 H    0.87168    0.68381   -0.79939
 N   -0.43601   -0.95838    1.74417
 C   -1.83099   -1.42660    1.84132
 C   -1.68640   -2.97718    1.72920
 O   -0.89556   -3.43281    0.83120
 H    0.13075   -1.30316    2.52385
 H   -2.15370   -1.16524    2.85958
 C   -2.82622   -0.81589    0.82821
 C   -4.29393   -1.19925    1.10323
 C   -5.32224   -0.59964    0.12698
 N   -5.61862    0.81337    0.39394
 C   -6.36578    1.60624   -0.41859
 N   -6.56498    2.88212   -0.06929
 N   -6.86856    1.13501   -1.55963
 H   -2.55671   -1.12412   -0.19166
 H   -2.71020    0.27575    0.88591
 H   -4.58000   -0.93607    2.13452
 H   -4.41815   -2.28885    1.02377
 H   -6.24813   -1.19434    0.20883
 H   -4.96099   -0.68918   -0.90897
 H   -5.56067    1.11751    1.36301
 H   -7.23502    3.46766   -0.56025
 H   -6.04778    3.32234    0.68426
 H   -7.32280    1.75397   -2.22525
 H   -6.96134    0.14211   -1.73891
 N   -2.33309   -3.81566    2.52643
 C   -3.32655   -3.57670    3.57093
 H   -2.09489   -4.79982    2.36319
 H   -3.04174   -4.15068    4.46235
 H   -4.31065   -3.93613    3.23691
 H   -3.39328   -2.51635    3.82500
Hg    1.44403   -3.51595    0.86704
