37
Energy: -574593.4578742  eV PBE+vdW (tier 2 basis)
C    -1.564037  -1.487693  -0.425524
C    -1.478729  -1.075958  1.010624
O    -0.798786  -1.874254  1.751622
H    -1.790358  -2.562099  -0.479041
H    -0.574675  -1.352996  -0.890023
H    -2.320727  -0.927040  -0.986463
N    -2.089007  0.061124  1.386987
C    -2.497303  0.643152  2.705409
C    -1.342520  1.373831  3.432496
O    -0.558396  0.775516  4.274348
H    -2.519517  0.540655  0.598385
H    -3.203731  1.427336  2.408424
C    -3.300430  -0.335051  3.596613
C    -4.087107  0.366779  4.721528
C    -5.032599  -0.609451  5.449542
N    -5.769812  0.068433  6.517319
C    -6.992283  -0.282801  6.980781
N    -7.632362  0.542563  7.813926
N    -7.570265  -1.424164  6.593094
H    -2.658681  -1.122213  4.025966
H    -3.995715  -0.855882  2.921582
H    -4.686819  1.188214  4.300050
H    -3.390331  0.812250  5.449634
H    -4.458807  -1.459161  5.857340
H    -5.765446  -1.009774  4.734478
H    -5.262421  0.745206  7.080176
H    -8.438982  0.232638  8.347276
H    -7.357584  1.512260  7.926327
H    -8.545105  -1.609057  6.809873
H    -7.027370  -2.213427  6.264124
N    -1.150865  2.670664  3.287483
C    -1.905451  3.700561  2.567113
H    -0.346293  3.022897  3.819206
H    -1.201811  4.256199  1.932698
H    -2.348521  4.399956  3.288459
H    -2.688897  3.271755  1.938564
Hg    0.008743  -1.215968  3.636606
