37
Energy: -574593.7208488  eV PBE+vdW (tier 2 basis)
C    2.141110  2.016086  3.384998
C    1.237440  1.911182  2.197777
O    1.699551  1.227675  1.220017
H    1.646353  2.455754  4.258279
H    3.018433  2.619744  3.106458
H    2.520133  1.015977  3.639317
N    0.040803  2.527095  2.237536
C    -1.142035  2.357101  1.364627
C    -1.122757  3.354468  0.171650
O    -0.588117  3.029269  -0.956465
H    -0.115845  3.080158  3.078909
H    -1.075706  1.357242  0.903963
C    -2.447515  2.397261  2.192788
C    -2.667191  1.173088  3.105885
C    -4.039471  1.236444  3.805709
N    -4.278356  0.033585  4.605703
C    -5.141978  -0.060938  5.644725
N    -5.141302  -1.170576  6.389229
N    -5.964801  0.948180  5.945737
H    -3.280085  2.461664  1.475938
H    -2.476376  3.322106  2.795387
H    -1.876884  1.097856  3.867050
H    -2.616195  0.258469  2.493153
H    -4.834325  1.359676  3.049903
H    -4.075415  2.105113  4.479437
H    -3.937586  -0.848895  4.234511
H    -5.894950  -1.370817  7.039805
H    -4.380364  -1.840164  6.354343
H    -6.497971  0.940469  6.810211
H    -6.238630  1.639204  5.257697
N    -1.678842  4.541447  0.276993
C    -1.703747  5.562476  -0.783023
H    -2.200297  4.751094  1.126692
H    -0.801076  5.479542  -1.395317
H    -1.755093  6.547249  -0.308692
H    -2.587169  5.417552  -1.419665
Hg    0.954251  1.495162  -0.817271
