37
Energy: -574593.0251791  eV PBE+vdW (tier 2 basis)
C    -0.473631  -0.269165  -0.479872
C    -0.302532  0.144758  0.946197
O    0.769122  0.389159  1.484965
H    -1.490820  -0.119398  -0.859272
H    -0.234193  -1.344279  -0.542251
H    0.249648  0.254912  -1.114526
N    -1.491330  0.259161  1.715696
C    -1.464392  0.651330  3.091842
C    -2.443352  -0.280920  3.936874
O    -2.663503  0.129641  5.109428
H    -2.332271  0.479820  1.176259
H    -0.465390  0.386596  3.474932
C    -1.755394  2.146541  3.349784
C    -0.687525  3.109880  2.802097
C    0.646300  3.108204  3.594438
N    1.598002  4.091105  3.094481
C    2.700601  3.854429  2.335761
N    3.571846  4.854803  2.162801
N    2.910195  2.661060  1.782680
H    -1.881315  2.271561  4.436833
H    -2.724644  2.418254  2.903376
H    -1.120604  4.120491  2.833615
H    -0.474232  2.915515  1.740796
H    1.129758  2.123136  3.586115
H    0.448753  3.367880  4.645478
H    1.435650  5.061338  3.359608
H    4.352583  4.774320  1.516119
H    3.544133  5.698948  2.728130
H    2.195094  1.938190  1.737918
H    3.800588  2.445269  1.343942
N    -2.877664  -1.391621  3.373253
C    -3.719614  -2.421901  3.982678
H    -2.527707  -1.560007  2.429264
H    -3.825728  -3.242583  3.263804
H    -4.723195  -2.032869  4.199004
H    -3.243430  -2.843608  4.882034
Hg    -3.845457  -0.788722  6.898244
