37
Energy: -574593.7201140  eV PBE+vdW (tier 2 basis)
C    -1.296912  0.012117  -0.266389
C    -1.156174  -0.674849  1.054812
O    -0.508378  -1.777807  1.029178
H    -1.701441  1.026639  -0.177119
H    -1.948088  -0.596883  -0.911886
H    -0.315415  0.047991  -0.760255
N    -1.706635  -0.105433  2.143808
C    -1.480613  -0.388499  3.578581
C    -2.488135  -1.441277  4.122087
O    -2.203246  -2.699526  4.111196
H    -2.242047  0.738828  1.946579
H    -0.490162  -0.864277  3.672986
C    -1.441283  0.921984  4.398666
C    -0.199345  1.801685  4.145245
C    -0.174567  3.018458  5.091678
N    1.040072  3.812643  4.897606
C    1.184571  5.119606  5.222242
N    2.287310  5.766357  4.833649
N    0.228444  5.767865  5.894313
H    -1.464818  0.635850  5.461142
H    -2.357999  1.507339  4.208159
H    -0.167142  2.153675  3.103759
H    0.706270  1.196082  4.311622
H    -0.246034  2.674052  6.137820
H    -1.039474  3.666986  4.889054
H    1.901270  3.309334  4.702769
H    2.907247  5.392458  4.123421
H    2.535119  6.670213  5.224709
H    0.264066  6.777534  5.999478
H    -0.435712  5.279994  6.483326
N    -3.640693  -1.069371  4.634353
C    -4.667137  -1.982951  5.162562
H    -3.813431  -0.071791  4.747605
H    -4.640985  -2.925634  4.608288
H    -5.643532  -1.501345  5.052529
H    -4.476735  -2.183051  6.225792
Hg    -0.755232  -3.285996  2.591634
