37
Energy: -574593.7154216  eV PBE+vdW (tier 2 basis)
C    -4.291054  2.259287  4.606137
C    -3.465513  1.373507  3.728929
O    -3.481905  1.674261  2.484288
H    -4.145863  2.052110  5.672693
H    -5.351076  2.140204  4.336099
H    -4.031265  3.308339  4.399783
N    -2.786420  0.353842  4.288277
C    -1.650129  -0.434134  3.753541
C    -2.144673  -1.724671  3.046270
O    -2.373086  -1.739779  1.778265
H    -2.950260  0.250800  5.289181
H    -1.169224  0.166700  2.963610
C    -0.604873  -0.629455  4.876976
C    0.745551  -1.215947  4.421475
C    1.775882  -1.191142  5.568384
N    3.071545  -1.706672  5.123323
C    4.038918  -2.201749  5.931690
N    3.925356  -2.123370  7.261142
N    5.099300  -2.800731  5.382517
H    -1.035683  -1.233765  5.694835
H    -0.436799  0.369723  5.307897
H    1.131779  -0.619509  3.579116
H    0.632030  -2.248433  4.059016
H    1.426888  -1.821629  6.399471
H    1.879262  -0.159439  5.946402
H    3.357088  -1.496624  4.170959
H    4.568904  -2.626064  7.865203
H    3.351826  -1.418004  7.708140
H    5.104953  -3.100942  4.413822
H    5.934444  -2.998146  5.925472
N    -2.326693  -2.832038  3.732829
C    -2.844278  -4.096096  3.186065
H    -2.047423  -2.832338  4.712469
H    -2.012784  -4.723780  2.838424
H    -3.511282  -3.886089  2.344981
H    -3.385183  -4.618251  3.981568
Hg    -2.917261  0.220023  0.968751
