37
Energy: -574593.3364386  eV PBE+vdW (tier 2 basis)
C    -1.840761  1.471730  1.523358
C    -1.137014  0.518794  2.438104
O    -0.857002  -0.616994  1.910999
H    -2.620612  0.931461  0.968736
H    -1.119769  1.832389  0.772609
H    -2.285972  2.323218  2.050516
N    -0.853181  0.925961  3.688750
C    -0.454368  0.229489  4.953909
C    1.068009  -0.056104  5.049958
O    1.641784  -1.093514  4.538260
H    -1.104463  1.901368  3.837205
H    -0.649501  0.996232  5.717131
C    -1.322017  -1.003431  5.312050
C    -2.814905  -0.691681  5.571967
C    -3.193880  -0.295233  7.018431
N    -3.349452  -1.417730  7.949261
C    -4.478113  -2.146317  8.136998
N    -4.459173  -3.161691  9.003150
N    -5.588427  -1.883929  7.439533
H    -0.864308  -1.482202  6.191380
H    -1.264805  -1.759210  4.512517
H    -3.405707  -1.571801  5.285121
H    -3.152724  0.112696  4.901665
H    -4.116017  0.303956  6.997217
H    -2.445559  0.371519  7.467683
H    -2.648727  -1.511217  8.676782
H    -3.603446  -3.479050  9.444991
H    -5.313255  -3.631287  9.288167
H    -6.415435  -2.462923  7.550564
H    -5.734687  -0.988883  6.989321
N    1.809343  0.767716  5.763325
C    3.258884  0.647164  5.973726
H    1.341512  1.526236  6.258649
H    3.455334  0.097555  6.904837
H    3.677590  1.655598  6.056984
H    3.710763  0.110013  5.135359
Hg    0.721061  -1.842903  2.731787
