37
Energy: -574593.4157924  eV PBE+vdW (tier 2 basis)
C    -1.235951  -0.632906  -0.404247
C    -1.312105  -0.668212  1.089316
O    -0.931316  -1.777508  1.613809
H    -1.755022  0.229141  -0.838726
H    -1.667103  -1.560697  -0.807268
H    -0.176391  -0.625344  -0.703962
N    -1.745997  0.428254  1.735218
C    -2.262822  0.696055  3.117194
C    -1.137232  0.925247  4.155635
O    -0.611064  -0.042927  4.841176
H    -1.931939  1.197761  1.094624
H    -2.758578  1.666574  2.997754
C    -3.362115  -0.291224  3.577288
C    -4.210293  0.237571  4.751356
C    -5.348944  -0.740833  5.114421
N    -6.123832  -0.309844  6.281377
C    -7.469692  -0.175806  6.358683
N    -8.068712  -0.308708  7.544041
N    -8.200689  0.095817  5.271704
H    -2.943068  -1.277060  3.840843
H    -4.001690  -0.469175  2.700009
H    -4.640372  1.217022  4.491127
H    -3.578226  0.394998  5.639435
H    -4.933200  -1.738070  5.329816
H    -6.035232  -0.872873  4.268564
H    -5.647310  -0.354588  7.178169
H    -9.018953  0.016517  7.695574
H    -7.620842  -0.779027  8.323566
H    -9.213499  0.031529  5.299335
H    -7.797677  0.525113  4.448920
N    -0.709805  2.136810  4.451229
C    -1.153651  3.467256  4.023851
H    0.044555  2.141857  5.147744
H    -1.886103  3.415950  3.215471
H    -0.273408  4.023435  3.674844
H    -1.583796  4.000611  4.881757
Hg    -0.331929  -1.840713  3.675354
