37
Energy: -574593.2097466  eV PBE+vdW (tier 2 basis)
C    -0.395660  -1.169833  1.480058
C    -0.460491  0.055651  2.324382
O    0.462755  0.393755  3.138185
H    0.427256  -1.073502  0.755906
H    -1.324636  -1.390995  0.947667
H    -0.162523  -2.032296  2.122869
N    -1.486398  0.931802  2.257573
C    -2.390599  1.158145  1.134109
C    -2.235831  2.658758  0.746412
O    -2.079562  3.482743  1.644358
H    -1.403065  1.737868  2.890666
H    -2.093901  0.506149  0.304490
C    -3.894244  0.858225  1.465222
C    -4.554245  1.694593  2.570234
C    -6.065206  1.391541  2.652845
N    -6.710800  2.210174  3.679327
C    -7.905347  1.948740  4.264215
N    -8.297029  2.707242  5.294598
N    -8.669885  0.943638  3.835205
H    -3.940199  -0.213070  1.713244
H    -4.441368  0.981548  0.518248
H    -4.417540  2.769105  2.369462
H    -4.092536  1.486622  3.546532
H    -6.231052  0.332773  2.902718
H    -6.531873  1.584827  1.670664
H    -6.315057  3.129780  3.860047
H    -9.248064  2.666485  5.650427
H    -7.653540  3.316291  5.789562
H    -9.497223  0.660135  4.352127
H    -8.557080  0.539029  2.913070
N    -2.308783  2.975685  -0.570051
C    -2.097729  4.322595  -1.068538
H    -2.358283  2.222105  -1.255110
H    -2.710119  4.467442  -1.968347
H    -1.042426  4.475648  -1.358541
H    -2.342291  5.044157  -0.281114
Hg    1.976290  -0.967114  4.188718
