37
Energy: -574593.5603124  eV PBE+vdW (tier 2 basis)
C    -0.810274  -1.988653  0.300894
C    -0.504744  -0.981827  1.363135
O    0.416097  -0.143181  1.069445
H    0.061460  -2.649311  0.178761
H    -0.943073  -1.468580  -0.658960
H    -1.703979  -2.582539  0.522903
N    -1.194072  -1.026693  2.519935
C    -1.335759  0.002173  3.574173
C    -0.285882  -0.180079  4.706000
O    0.862839  0.405081  4.644801
H    -1.835732  -1.814751  2.590372
H    -1.093205  0.976565  3.117362
C    -2.801488  0.101652  4.063186
C    -3.768180  0.636641  2.981365
C    -5.089324  1.245433  3.495808
N    -6.130905  0.266935  3.823332
C    -7.463233  0.503697  3.731122
N    -8.315731  -0.517177  3.867523
N    -7.925819  1.731610  3.485070
H    -2.799237  0.793046  4.919713
H    -3.136896  -0.878310  4.445076
H    -3.991257  -0.130619  2.226008
H    -3.264793  1.456094  2.445714
H    -5.485620  1.875810  2.688843
H    -4.887688  1.903014  4.358587
H    -5.872961  -0.563886  4.345653
H    -8.019038  -1.481250  3.766936
H    -9.309208  -0.358402  4.005663
H    -8.899636  1.879190  3.236383
H    -7.383231  2.563223  3.686317
N    -0.554897  -0.907961  5.767200
C    0.372490  -1.150188  6.884898
H    -1.499437  -1.275392  5.866572
H    0.272380  -0.351669  7.632505
H    1.400868  -1.168009  6.512258
H    0.115469  -2.110767  7.341363
Hg    1.505699  0.921079  2.630084
