37
Energy: -574592.8656336  eV PBE+vdW (tier 2 basis)
C    -0.175880  -0.430235  -0.356803
C    -0.297344  -0.450768  1.122837
O    0.724548  -0.807826  1.807019
H    0.298434  -1.374064  -0.672086
H    0.514035  0.366641  -0.674009
H    -1.145904  -0.337463  -0.855945
N    -1.446547  -0.154219  1.775811
C    -2.290015  1.029596  1.560911
C    -1.557142  2.170559  2.318673
O    -0.914046  1.904056  3.399751
H    -1.444209  -0.455661  2.752608
H    -2.320523  1.245550  0.485049
C    -3.719996  0.722421  2.087526
C    -4.792749  1.781679  1.777575
C    -6.248660  1.298079  1.906288
N    -6.697473  1.107491  3.290156
C    -7.854854  0.484835  3.636697
N    -8.152869  0.352493  4.934467
N    -8.668878  -0.013116  2.706541
H    -3.661108  0.528909  3.170162
H    -3.999337  -0.230081  1.612634
H    -4.701499  2.103526  0.729965
H    -4.649968  2.688201  2.387046
H    -6.369648  0.343506  1.371900
H    -6.892058  2.043183  1.406975
H    -6.316447  1.739497  3.990208
H    -9.069374  0.035321  5.237966
H    -7.473481  0.536507  5.664503
H    -9.464804  -0.590118  2.963666
H    -8.623083  0.276397  1.736635
N    -1.590498  3.432766  1.914085
C    -2.316579  4.067352  0.816533
H    -1.033919  4.063783  2.500757
H    -3.152606  4.663186  1.208813
H    -2.691616  3.328341  0.104961
H    -1.628551  4.750922  0.301739
Hg    0.944370  0.504042  3.626852
