37
Energy: -574592.8642977  eV PBE+vdW (tier 2 basis)
C    0.642034  1.221952  0.987681
C    0.282415  0.730254  2.341620
O    1.226677  0.320270  3.102850
H    1.223098  2.153999  1.060996
H    -0.232994  1.348393  0.341342
H    1.321348  0.485752  0.526859
N    -0.995987  0.655592  2.785115
C    -1.985898  1.737175  2.723763
C    -1.760230  2.560595  4.021261
O    -1.221476  2.021984  5.055577
H    -1.089014  0.088522  3.629424
H    -1.735322  2.370713  1.862201
C    -3.432425  1.205885  2.514341
C    -3.987691  0.263605  3.598594
C    -5.225410  -0.551992  3.178747
N    -6.457227  0.239344  3.080103
C    -7.597747  -0.194068  2.480075
N    -8.651357  0.628706  2.428694
N    -7.662667  -1.404216  1.925555
H    -3.410684  0.686534  1.544651
H    -4.095868  2.071407  2.378686
H    -4.196610  0.806565  4.534135
H    -3.241672  -0.501146  3.863158
H    -5.361843  -1.360404  3.917606
H    -5.042710  -1.021396  2.200437
H    -6.584453  0.976929  3.769064
H    -9.567261  0.298600  2.137252
H    -8.573555  1.617255  2.641634
H    -7.014927  -2.144390  2.169699
H    -8.461426  -1.677545  1.359981
N    -2.150598  3.824115  4.114964
C    -2.907173  4.649722  3.176981
H    -1.912652  4.265114  5.009724
H    -2.419761  5.632085  3.114142
H    -3.929463  4.804983  3.550381
H    -2.939439  4.199902  2.181702
Hg    0.874531  0.987974  5.225302
