37
Energy: -574592.9912370  eV PBE+vdW (tier 2 basis)
C    0.255089  -0.034290  -0.047956
C    0.017170  -0.056809  1.417647
O    1.014463  -0.288407  2.186508
H    0.883695  0.826465  -0.321849
H    -0.675834  -0.046489  -0.624004
H    0.846380  -0.927620  -0.308511
N    -1.207569  0.108677  1.971602
C    -2.167951  1.180476  1.672999
C    -1.624415  2.415531  2.441912
O    -1.029974  2.256057  3.569673
H    -1.251724  -0.190220  2.948387
H    -2.161020  1.366049  0.591340
C    -3.570339  0.710546  2.146095
C    -4.783706  1.571265  1.751059
C    -6.087885  0.877689  2.194540
N    -7.271593  1.653602  1.821376
C    -8.522536  1.153731  1.666182
N    -9.474470  1.945451  1.159581
N    -8.799809  -0.109898  1.990861
H    -3.539619  0.592056  3.241470
H    -3.690342  -0.298481  1.723463
H    -4.814758  1.717331  0.660990
H    -4.723578  2.565552  2.221260
H    -6.070515  0.715948  3.286833
H    -6.163753  -0.106989  1.709964
H    -7.198779  2.667272  1.849216
H    -9.254378  2.809074  0.674323
H    -10.454997  1.680315  1.192362
H    -9.688717  -0.530118  1.734959
H    -8.222995  -0.638390  2.634557
N    -1.780293  3.654224  1.996218
C    -2.511208  4.164203  0.839549
H    -1.337235  4.363087  2.590569
H    -3.351112  4.786929  1.176209
H    -2.882695  3.352351  0.211096
H    -1.834048  4.800238  0.252618
Hg    0.917723  1.044368  4.001086
