37
Energy: -574593.0137996  eV PBE+vdW (tier 2 basis)
C    0.068096  -1.175892  0.823203
C    -0.787452  -1.830604  1.846234
O    -0.561092  -2.973338  2.347114
H    0.870221  -1.852390  0.512950
H    0.497967  -0.248376  1.229354
H    -0.515497  -0.910415  -0.070988
N    -1.948410  -1.269313  2.316145
C    -2.846993  -0.300151  1.708799
C    -3.429180  -0.907767  0.347392
O    -2.806032  -0.652138  -0.680611
H    -2.356298  -1.833322  3.066642
H    -3.692876  -0.244653  2.408364
C    -2.259987  1.110533  1.482289
C    -3.365962  2.162325  1.271109
C    -2.771726  3.575901  1.080156
N    -3.832410  4.568182  0.915315
C    -3.755336  5.715752  0.195959
N    -4.876031  6.413023  -0.020193
N    -2.590047  6.135810  -0.299247
H    -1.587864  1.099327  0.615766
H    -1.665120  1.363404  2.372125
H    -4.038847  2.171884  2.143542
H    -3.970741  1.915291  0.386008
H    -2.137319  3.600925  0.182943
H    -2.146366  3.838567  1.950755
H    -4.657945  4.466565  1.502046
H    -5.796868  6.008274  0.117718
H    -4.846942  7.364986  -0.375533
H    -2.552850  6.910222  -0.956141
H    -1.704483  5.838032  0.093668
N    -4.531989  -1.664894  0.408299
C    -5.381164  -1.967262  1.562197
H    -4.859344  -1.987536  -0.504406
H    -6.152366  -2.669385  1.228578
H    -5.892044  -1.071920  1.943367
H    -4.817141  -2.455381  2.366508
Hg    1.496176  -3.922906  2.849716
