37
Energy: -574593.4571311  eV PBE+vdW (tier 2 basis)
C    -0.220641  0.573278  0.624411
C    -0.647956  0.020240  1.948568
O    -0.831694  -1.248351  1.961135
H    -0.819367  0.109297  -0.171641
H    0.823838  0.274454  0.441999
H    -0.310436  1.664017  0.565971
N    -0.782261  0.872455  2.981194
C    -1.431556  0.789378  4.326716
C    -0.544452  0.107369  5.402379
O    -0.479364  -1.168679  5.581851
H    -0.494099  1.817561  2.736314
H    -1.491605  1.843738  4.630756
C    -2.875193  0.230286  4.311723
C    -3.930974  1.092743  3.574271
C    -4.710614  2.050078  4.498860
N    -5.767727  2.739269  3.757261
C    -6.990355  3.075725  4.231634
N    -7.944892  3.435478  3.369650
N    -7.252608  3.029596  5.542257
H    -3.173478  0.075546  5.359820
H    -2.890782  -0.772956  3.858672
H    -4.654245  0.415526  3.101143
H    -3.460739  1.656236  2.752705
H    -4.036273  2.783455  4.973476
H    -5.188642  1.467539  5.298945
H    -5.545228  3.080252  2.826336
H    -7.881855  3.225988  2.379106
H    -8.787710  3.908141  3.682488
H    -8.206163  3.119882  5.880544
H    -6.520476  3.123962  6.235859
N    0.120492  0.879735  6.238465
C    0.987455  0.407237  7.327008
H    -0.016895  1.887682  6.172304
H    1.403814  -0.570807  7.069846
H    0.405548  0.319918  8.255184
H    1.787154  1.141020  7.471114
Hg    -0.764019  -2.379288  3.808675
