37
Energy: -574593.4011985  eV PBE+vdW (tier 2 basis)
C    0.552856  -1.264602  0.997401
C    0.292230  -0.349595  2.151479
O    1.163711  0.571980  2.317924
H    -0.249641  -1.996623  0.850308
H    1.511624  -1.778971  1.155851
H    0.666153  -0.661409  0.084014
N    -0.803986  -0.552373  2.909060
C    -1.461705  0.370891  3.856898
C    -0.927730  0.194304  5.304938
O    0.012999  0.955402  5.750771
H    -1.343937  -1.372696  2.640354
H    -1.145977  1.390474  3.580659
C    -3.004344  0.398137  3.651694
C    -3.845546  -0.880459  3.852625
C    -5.218303  -0.838425  3.135193
N    -6.210291  0.072424  3.716766
C    -7.454327  -0.277971  4.135865
N    -8.430900  0.631080  4.105185
N    -7.706451  -1.507571  4.593390
H    -3.135058  0.749104  2.615706
H    -3.383999  1.205949  4.294793
H    -4.023754  -1.079419  4.921248
H    -3.336249  -1.768732  3.442869
H    -5.645038  -1.848205  3.124379
H    -5.072412  -0.562866  2.079085
H    -6.106328  1.059045  3.498260
H    -8.378655  1.458650  3.520547
H    -9.302515  0.486934  4.606726
H    -8.660527  -1.823178  4.739548
H    -6.972097  -2.133430  4.897659
N    -1.429268  -0.712886  6.115123
C    -0.967159  -0.966468  7.488766
H    -2.236729  -1.240197  5.790109
H    -1.498934  -0.311244  8.191781
H    0.106292  -0.766823  7.557677
H    -1.176472  -2.011965  7.734098
Hg    1.345468  1.688738  4.181249
