37
Energy: -574593.2872805  eV PBE+vdW (tier 2 basis)
C    -0.253375  -1.315054  -0.291383
C    -0.205105  -0.717461  1.069116
O    0.577371  -1.126296  1.981771
H    0.722512  -1.155159  -0.777146
H    -1.027093  -0.899140  -0.941794
H    -0.400935  -2.400532  -0.208377
N    -1.022128  0.292545  1.475752
C    -2.305609  0.734537  0.943799
C    -2.134686  2.312817  0.774503
O    -2.527782  3.050507  1.662690
H    -0.802317  0.623538  2.422238
H    -2.459637  0.281758  -0.043836
C    -3.472688  0.406100  1.897040
C    -4.863338  0.786019  1.354326
C    -5.957879  0.486898  2.394695
N    -7.285647  0.818282  1.876342
C    -8.391660  1.052455  2.623636
N    -9.494976  1.503863  2.014610
N    -8.380187  0.853880  3.941792
H    -3.289750  0.925257  2.849999
H    -3.430528  -0.675484  2.095816
H    -5.070297  0.219861  0.431923
H    -4.900690  1.856237  1.106746
H    -5.785836  1.085541  3.302130
H    -5.924269  -0.579851  2.681283
H    -7.432064  0.732458  0.873313
H    -9.471743  1.886286  1.074770
H    -10.389517  1.536855  2.495858
H    -7.681575  0.274534  4.391989
H    -9.155521  1.159039  4.522886
N    -1.517923  2.726301  -0.357202
C    -1.386504  4.137692  -0.697578
H    -1.336738  2.044998  -1.091364
H    -0.522043  4.255357  -1.362023
H    -1.268039  4.717669  0.225697
H    -2.278408  4.509626  -1.228271
Hg    2.725529  -1.998533  1.782666
