37
Energy: -574592.7171081  eV PBE+vdW (tier 2 basis)
C    -1.131819  1.396023  1.430353
C    -0.880661  0.308289  2.411620
O    0.149056  0.425571  3.161046
H    -2.193440  1.528917  1.208395
H    -0.568157  1.196270  0.504767
H    -0.722352  2.329070  1.842950
N    -1.702551  -0.756270  2.615618
C    -2.257486  -1.689289  1.620391
C    -1.028008  -2.524112  1.136183
O    0.122881  -1.973701  1.139015
H    -1.494229  -1.220850  3.503034
H    -2.912323  -2.354952  2.203129
C    -3.089366  -1.088811  0.462769
C    -4.378272  -0.404607  0.963478
C    -5.206963  0.342020  -0.097103
N    -6.070042  -0.539169  -0.892967
C    -6.761013  -0.143238  -1.995119
N    -7.513380  -1.040810  -2.641331
N    -6.669840  1.107441  -2.446837
H    -3.335524  -1.915009  -0.220358
H    -2.474615  -0.395934  -0.127543
H    -4.123575  0.340443  1.730900
H    -5.019173  -1.133351  1.486109
H    -4.547009  0.890142  -0.786942
H    -5.829266  1.085726  0.430633
H    -6.444680  -1.357159  -0.417642
H    -8.163801  -0.760277  -3.370200
H    -7.454758  -2.034469  -2.446174
H    -7.082813  1.372209  -3.336812
H    -6.343683  1.868702  -1.863065
N    -1.157390  -3.777010  0.720077
C    -2.354275  -4.587213  0.522181
H    -0.267552  -4.226287  0.480033
H    -2.177496  -5.583912  0.946986
H    -2.549751  -4.707113  -0.553899
H    -3.224168  -4.136095  1.006996
Hg    1.541404  -1.338995  2.927477
