37
Energy: -574593.5853530  eV PBE+vdW (tier 2 basis)
C    2.453518  2.676349  3.153717
C    1.439726  2.265372  2.134925
O    1.861076  1.440302  1.250183
H    2.015480  3.236280  3.987707
H    3.226761  3.282595  2.657161
H    2.962028  1.780231  3.538102
N    0.196274  2.777254  2.210877
C    -1.061116  2.325925  1.570161
C    -1.309380  3.056783  0.221258
O    -0.884599  2.559417  -0.892424
H    0.080917  3.474758  2.945127
H    -0.937383  1.262491  1.304218
C    -2.239431  2.413810  2.571732
C    -2.143152  1.406001  3.735615
C    -3.204201  1.586606  4.844044
N    -4.563282  1.138528  4.515276
C    -5.222970  0.118687  5.119350
N    -6.558121  0.126067  5.140812
N    -4.555856  -0.896326  5.676198
H    -3.163760  2.239435  2.000818
H    -2.299614  3.439648  2.977558
H    -1.166116  1.504077  4.232945
H    -2.191240  0.380072  3.339916
H    -3.262381  2.642807  5.147564
H    -2.875954  1.042609  5.738362
H    -5.162031  1.799732  4.030670
H    -7.086362  -0.705913  5.386310
H    -7.093501  0.977106  5.006171
H    -5.028295  -1.561087  6.280955
H    -3.586424  -1.089170  5.460678
N    -1.982875  4.184913  0.181414
C    -2.253839  4.970452  -1.033864
H    -2.410338  4.514534  1.045451
H    -1.435908  4.837405  -1.747817
H    -2.345097  6.022820  -0.747790
H    -3.193256  4.634347  -1.493388
Hg    0.840704  1.260083  -0.660991
