37
Energy: -574592.9536332  eV PBE+vdW (tier 2 basis)
C    0.409027  -0.270245  0.892215
C    -0.380321  0.547638  1.850720
O    0.013646  1.677481  2.287840
H    0.352968  0.204676  -0.101511
H    0.063097  -1.302657  0.793167
H    1.463092  -0.275696  1.197088
N    -1.566325  0.154243  2.378316
C    -2.188131  -1.159652  2.440541
C    -3.668547  -0.909701  1.874841
O    -4.495999  -0.478630  2.666062
H    -1.999615  0.871969  2.970778
H    -1.656680  -1.847756  1.774060
C    -2.277715  -1.718939  3.877280
C    -2.953207  -3.105199  3.934669
C    -3.504323  -3.523888  5.305619
N    -2.471771  -3.923980  6.266928
C    -2.709165  -4.193390  7.577529
N    -1.680911  -4.544146  8.359538
N    -3.936655  -4.089047  8.083003
H    -2.843301  -1.000484  4.488115
H    -1.254208  -1.761190  4.277860
H    -2.279629  -3.885253  3.545915
H    -3.831395  -3.116731  3.273048
H    -4.196125  -4.369863  5.143074
H    -4.087946  -2.699238  5.744146
H    -1.606721  -4.301960  5.887711
H    -1.826053  -4.883440  9.306543
H    -0.717687  -4.460947  8.052512
H    -4.760877  -4.042881  7.495275
H    -4.102513  -4.177626  9.081475
N    -3.924503  -1.173271  0.577224
C    -3.096635  -1.845352  -0.419857
H    -4.913913  -1.060597  0.340983
H    -2.088986  -1.419062  -0.456960
H    -3.567286  -1.688394  -1.397289
H    -3.043650  -2.931198  -0.249497
Hg    1.223365  3.304166  1.186423
