37
Energy: -574593.5863437  eV PBE+vdW (tier 2 basis)
C    1.202246  -0.189441  0.145260
C    0.489390  -0.572976  1.404247
O    0.563098  -1.820032  1.700438
H    0.891582  0.786956  -0.243417
H    1.037339  -0.963572  -0.616460
H    2.285359  -0.181037  0.348787
N    -0.131334  0.391868  2.104895
C    -1.160241  0.402188  3.193182
C    -0.584737  0.205155  4.620442
O    -0.328118  -0.946800  5.148680
H    0.022086  1.314713  1.702766
H    -1.510636  1.443582  3.173262
C    -2.407055  -0.479010  2.929718
C    -3.286113  0.028382  1.768069
C    -4.598771  -0.770788  1.649649
N    -5.428742  -0.255949  0.558762
C    -6.779524  -0.318348  0.495453
N    -7.418132  0.377467  -0.449373
N    -7.473744  -1.041676  1.380082
H    -2.990408  -0.478033  3.863694
H    -2.127358  -1.529634  2.749383
H    -2.730494  -0.036720  0.819336
H    -3.532406  1.089403  1.927578
H    -5.172112  -0.674544  2.582802
H    -4.379806  -1.841066  1.495507
H    -4.958705  0.020998  -0.298406
H    -8.392038  0.195367  -0.671890
H    -6.967192  1.128767  -0.960023
H    -8.484598  -0.959290  1.434338
H    -7.061700  -1.828541  1.866954
N    -0.437279  1.273141  5.377545
C    0.057329  1.278911  6.761106
H    -0.749417  2.170342  5.006336
H    -0.793058  1.262070  7.457284
H    0.629352  2.199942  6.916398
H    0.684492  0.400358  6.934396
Hg    0.292444  -2.457153  3.745221
