37
Energy: -574593.2877076  eV PBE+vdW (tier 2 basis)
C    -0.034695  0.150166  0.170995
C    -0.338505  -0.244758  1.571554
O    0.471945  -0.892652  2.304184
H    0.842877  0.815944  0.177810
H    -0.849773  0.669184  -0.339790
H    0.240297  -0.742687  -0.407721
N    -1.527358  0.008950  2.182914
C    -2.834598  0.305509  1.610064
C    -3.312037  1.613897  2.392004
O    -4.002408  1.487124  3.389622
H    -1.535312  -0.276074  3.169012
H    -2.714551  0.544765  0.545928
C    -3.833275  -0.851928  1.814266
C    -5.216192  -0.618154  1.177739
C    -6.167936  -1.786778  1.490552
N    -7.474993  -1.588526  0.862610
C    -8.630317  -2.193150  1.231532
N    -9.775160  -1.792088  0.665339
N    -8.633348  -3.157534  2.151963
H    -3.943892  -1.017981  2.896529
H    -3.371103  -1.754438  1.386481
H    -5.110355  -0.514084  0.085882
H    -5.664902  0.309280  1.560931
H    -6.319146  -1.865671  2.577884
H    -5.725764  -2.736991  1.140307
H    -7.501638  -1.063943  -0.008490
H    -9.843269  -0.921414  0.148109
H    -10.636779  -2.318038  0.783030
H    -7.792631  -3.664235  2.402403
H    -9.505153  -3.514836  2.531648
N    -2.874524  2.795133  1.898268
C    -3.313796  4.074162  2.443665
H    -2.405906  2.803800  0.994702
H    -2.548345  4.827097  2.220521
H    -3.470772  3.966089  3.523739
H    -4.261351  4.403905  1.987052
Hg    2.795228  -0.802645  2.348046
