37
Energy: -574593.1079778  eV PBE+vdW (tier 2 basis)
C    -2.804739  0.423734  -0.120712
C    -1.798790  0.433402  0.990695
O    -0.595133  0.208182  0.602645
H    -2.686860  1.350618  -0.704460
H    -3.837245  0.341778  0.238480
H    -2.584893  -0.407441  -0.803952
N    -2.240809  0.691619  2.232730
C    -1.741969  0.608502  3.650032
C    -0.612930  1.580415  4.048811
O    0.651210  1.349059  3.849044
H    -3.242843  0.874780  2.222024
H    -2.614402  0.988859  4.193319
C    -1.583417  -0.835229  4.212179
C    -0.517116  -1.796076  3.663761
C    -0.698085  -3.260674  4.116370
N    -0.418651  -3.470646  5.541803
C    -0.819779  -4.563330  6.243252
N    -0.552320  -4.629031  7.549964
N    -1.505736  -5.544370  5.651214
H    -2.575389  -1.295210  4.081828
H    -1.459405  -0.716995  5.300190
H    0.497449  -1.461812  3.936514
H    -0.566755  -1.838907  2.564477
H    -0.040201  -3.891574  3.496835
H    -1.735925  -3.569605  3.924099
H    0.399606  -2.999921  5.919651
H    -0.662074  -5.495019  8.068736
H    -0.241722  -3.820661  8.076605
H    -1.464253  -5.702409  4.651410
H    -1.934663  -6.282063  6.202523
N    -0.885477  2.657205  4.762422
C    -2.137159  3.159190  5.341752
H    -0.048383  3.197360  5.010420
H    -2.084048  4.254426  5.342968
H    -2.238169  2.816314  6.381041
H    -3.007344  2.852780  4.754813
Hg    1.078704  0.698160  1.845101
