37
Energy: -574592.6703120  eV PBE+vdW (tier 2 basis)
 C   -1.28567   -1.64073   -1.18991
 C   -0.18702   -1.56706   -0.19122
 O    0.97501   -1.94060   -0.56989
 H   -2.06385   -0.89535   -1.00998
 H   -1.71584   -2.65485   -1.19122
 H   -0.85115   -1.48744   -2.18775
 N   -0.32372   -1.06587    1.06503
 C   -1.33099   -1.41266    2.08008
 C   -0.97025   -2.87086    2.51306
 O   -0.41956   -3.64333    1.65958
 H    0.58680   -0.85747    1.48270
 H   -1.10485   -0.74736    2.92730
 C   -2.82581   -1.21986    1.72797
 C   -3.18916    0.26544    1.50721
 C   -4.66563    0.65122    1.69663
 N   -5.54703    0.24327    0.59604
 C   -6.90351    0.33013    0.63639
 N   -7.60911   -0.09523   -0.41764
 N   -7.52547    0.80201    1.71648
 H   -3.39354   -1.60619    2.58766
 H   -3.11420   -1.85460    0.88025
 H   -2.83346    0.62003    0.52710
 H   -2.64173    0.87801    2.23946
 H   -4.70234    1.74910    1.81011
 H   -5.05563    0.21021    2.62680
 H   -5.14176    0.22316   -0.33645
 H   -7.19119   -0.64826   -1.15804
 H   -8.60473    0.09232   -0.49903
 H   -7.04966    1.37314    2.40546
 H   -8.53695    0.75083    1.80057
 N   -1.22544   -3.31524    3.73667
 C   -1.92936   -2.68013    4.84593
 H   -0.88962   -4.26884    3.90778
 H   -1.36159   -2.85813    5.76837
 H   -2.92367   -3.13606    4.96754
 H   -2.03570   -1.60347    4.68776
Hg    1.75896   -3.62276    0.72838
