37
Energy: -574592.8872659  eV PBE+vdW (tier 2 basis)
C    -1.302628  0.029513  -0.205267
C    -0.313213  -0.012095  0.900139
O    0.928369  0.207560  0.726134
H    -2.324455  -0.192463  0.100116
H    -1.000258  -0.676338  -0.990557
H    -1.279474  1.045253  -0.637758
N    -0.608700  -0.302294  2.202611
C    -1.641788  -1.150366  2.776842
C    -1.490424  -2.632522  2.208277
O    -1.654162  -2.769648  0.998572
H    0.209384  -0.170602  2.804238
H    -1.378536  -1.186342  3.842625
C    -3.108675  -0.663256  2.632830
C    -3.990923  -1.257719  3.750160
C    -5.419566  -0.691194  3.839239
N    -6.341362  -1.245321  2.846752
C    -7.578225  -0.746661  2.581277
N    -8.316455  -1.328211  1.630027
N    -8.039666  0.317558  3.237767
H    -3.509517  -0.922722  1.644949
H    -3.096707  0.433411  2.713154
H    -3.531633  -1.041105  4.725802
H    -4.035356  -2.356554  3.675476
H    -5.406528  0.404159  3.729324
H    -5.792604  -0.916128  4.854684
H    -6.192701  -2.214040  2.572775
H    -9.300941  -1.104920  1.512894
H    -7.926209  -2.006128  0.984106
H    -7.648099  0.615122  4.124029
H    -8.909036  0.764862  2.960875
N    -1.198783  -3.623506  3.061518
C    -0.870642  -3.556975  4.488191
H    -1.071468  -4.527987  2.602524
H    -0.768426  -4.585327  4.850566
H    -1.668084  -3.075444  5.065922
H    0.088383  -3.048765  4.663594
Hg    1.879137  1.611006  -0.819070
