37
Energy: -574593.5173319  eV PBE+vdW (tier 2 basis)
C    0.523531  -1.391181  -0.598677
C    0.032903  -1.116160  0.788013
O    0.938331  -0.796716  1.631016
H    1.253742  -2.212114  -0.566273
H    1.057764  -0.504079  -0.970357
H    -0.291118  -1.639625  -1.289556
N    -1.285353  -1.220502  1.042472
C    -2.025914  -0.752435  2.227181
C    -1.978502  -1.778491  3.392737
O    -1.251281  -1.509074  4.424403
H    -1.847603  -1.489399  0.236659
H    -1.485405  0.121452  2.627223
C    -3.425111  -0.233160  1.813898
C    -4.235742  0.403962  2.959312
C    -5.539756  1.033852  2.431761
N    -6.307130  1.649464  3.516247
C    -7.233111  2.626532  3.367671
N    -7.722515  3.226345  4.457393
N    -7.636746  3.007691  2.152879
H    -4.005386  -1.035638  1.337121
H    -3.239326  0.522277  1.034629
H    -3.640624  1.183634  3.458328
H    -4.479522  -0.353648  3.722015
H    -6.145591  0.266901  1.918839
H    -5.299324  1.818347  1.699282
H    -6.278428  1.200925  4.427493
H    -8.550275  3.813007  4.410482
H    -7.268297  3.152295  5.361239
H    -8.207706  3.839246  2.033611
H    -7.552251  2.402804  1.344867
N    -2.657681  -2.909846  3.422537
C    -3.635844  -3.469919  2.484813
H    -2.488014  -3.463332  4.268509
H    -4.650982  -3.127050  2.725309
H    -3.608424  -4.559799  2.593935
H    -3.383327  -3.221366  1.450915
Hg    0.698020  -0.660199  3.812072
