37
Energy: -574593.3198687  eV PBE+vdW (tier 2 basis)
C    -0.418738  1.134601  0.285638
C    -0.049705  0.788550  1.689426
O    1.060034  1.110525  2.228014
H    0.380450  0.815557  -0.397111
H    -0.522854  2.230357  0.206321
H    -1.364105  0.684701  -0.036003
N    -0.919584  0.068772  2.427190
C    -0.691564  -0.407377  3.780882
C    0.097040  -1.774906  3.700754
O    -0.507174  -2.774523  3.334906
H    -1.716087  -0.332199  1.928124
H    -0.037641  0.325178  4.282895
C    -2.047323  -0.583896  4.496683
C    -1.958273  -1.108952  5.941208
C    -3.364757  -1.260631  6.549326
N    -3.302820  -1.736270  7.931184
C    -4.319926  -2.319314  8.613934
N    -4.066528  -2.836405  9.822629
N    -5.542451  -2.391187  8.089459
H    -2.664839  -1.268551  3.894767
H    -2.543817  0.398009  4.482984
H    -1.365302  -0.413192  6.556052
H    -1.458042  -2.088289  5.967704
H    -3.951751  -1.985470  5.964397
H    -3.894836  -0.291153  6.513715
H    -2.481381  -1.486323  8.477112
H    -4.817851  -3.139581  10.436859
H    -3.119975  -3.005596  10.148458
H    -5.833801  -1.800279  7.319666
H    -6.270683  -2.943745  8.533187
N    1.411078  -1.740125  4.015313
C    2.291528  -2.881667  3.807941
H    1.830107  -0.844295  4.255268
H    2.739969  -2.869871  2.801053
H    1.705411  -3.803873  3.905796
H    3.102326  -2.836592  4.544957
Hg    2.267244  2.999796  1.477413
