37
Energy: -574593.2131659  eV PBE+vdW (tier 2 basis)
C    -2.153506  -1.594391  0.011859
C    -1.980897  -0.211162  0.555217
O    -1.051427  0.542867  0.271395
H    -2.432548  -2.323782  0.783303
H    -1.232449  -1.904137  -0.489881
H    -2.966449  -1.576636  -0.734502
N    -2.973826  0.230400  1.447469
C    -2.924574  1.425814  2.222993
C    -3.167593  2.733621  1.296552
O    -4.185715  3.362125  1.697130
H    -3.746793  -0.410125  1.632277
H    -3.792828  1.411844  2.892549
C    -1.641836  1.684489  3.095081
C    -1.569928  0.697423  4.265569
C    -0.537600  1.059849  5.375975
N    0.824879  0.616279  5.093713
C    1.657191  -0.004863  5.972637
N    1.360349  -0.066388  7.271561
N    2.779250  -0.563035  5.508770
H    -1.718641  2.713515  3.475660
H    -0.762650  1.636282  2.438651
H    -1.382932  -0.327376  3.913491
H    -2.539987  0.674084  4.786112
H    -0.865282  0.554327  6.291675
H    -0.552078  2.144489  5.564833
H    1.256156  0.917804  4.223478
H    1.890198  -0.667782  7.896936
H    0.739750  0.602588  7.714088
H    2.908777  -0.775590  4.525218
H    3.526837  -0.845340  6.137079
N    -2.339316  2.982089  0.313851
C    -2.414432  4.102991  -0.629765
H    -1.613940  2.254325  0.174767
H    -1.560790  4.017416  -1.310782
H    -2.331831  5.065545  -0.107503
H    -3.330969  4.054208  -1.233780
Hg    -5.267817  5.258429  0.917623
