37
Energy: -574593.0651109  eV PBE+vdW (tier 2 basis)
C    -4.441859  -1.319055  1.512015
C    -3.068830  -1.509174  0.977624
O    -2.902260  -2.376989  0.052482
H    -4.451842  -0.756019  2.450876
H    -4.886278  -2.312992  1.681330
H    -5.078832  -0.836105  0.754667
N    -1.994005  -0.835729  1.454788
C    -1.907283  0.613613  1.660019
C    -1.468774  1.207273  0.285675
O    -0.876158  0.495771  -0.595237
H    -1.101421  -1.242082  1.164636
H    -2.913687  0.986658  1.900422
C    -0.915739  0.972492  2.798239
C    -1.353636  0.412509  4.164789
C    -0.326024  0.531807  5.303095
N    -0.244932  1.878080  5.882973
C    0.710825  2.275664  6.763358
N    1.679550  1.442682  7.143201
N    0.682749  3.532007  7.222598
H    -0.814477  2.066894  2.837630
H    0.080710  0.586584  2.528016
H    -1.558013  -0.663189  4.063380
H    -2.308703  0.864440  4.479152
H    0.675077  0.250912  4.942149
H    -0.611980  -0.190137  6.087516
H    -1.107172  2.417739  5.904416
H    1.601628  0.438680  7.031105
H    2.462247  1.771327  7.701582
H    0.082048  4.241127  6.816291
H    1.278908  3.829137  7.990046
N    -1.661186  2.500347  0.063862
C    -1.320464  3.217176  -1.165883
H    -2.017481  3.067359  0.833901
H    -2.091408  3.973120  -1.354680
H    -1.251569  2.512765  -1.998551
H    -0.350851  3.724094  -1.046069
Hg    -1.456651  -1.585699  -1.483608
