37
Energy: -574593.2284062  eV PBE+vdW (tier 2 basis)
C    0.682970  -1.438281  0.346290
C    0.464673  -1.032767  1.770355
O    1.273290  -1.569313  2.608090
H    1.617368  -0.977284  -0.010664
H    -0.146794  -1.156072  -0.311937
H    0.835839  -2.525728  0.299762
N    -0.523362  -0.159594  2.039500
C    -1.230143  0.262078  3.288669
C    -0.451319  1.328960  4.095830
O    0.409033  1.022804  5.015181
H    -0.975614  0.177197  1.192142
H    -2.119126  0.775139  2.901873
C    -1.739352  -0.904135  4.171905
C    -2.756275  -1.837546  3.463193
C    -4.244743  -1.622816  3.785492
N    -4.613976  -2.187953  5.089869
C    -5.830841  -2.041070  5.673781
N    -6.040388  -2.569504  6.881899
N    -6.796192  -1.341479  5.069800
H    -2.181742  -0.457355  5.075065
H    -0.896943  -1.512376  4.534212
H    -2.495812  -2.883619  3.680522
H    -2.651236  -1.756129  2.372083
H    -4.828772  -2.102487  2.982216
H    -4.499997  -0.551452  3.787240
H    -4.087065  -3.003146  5.393023
H    -6.975021  -2.644522  7.271957
H    -5.280926  -2.920936  7.454390
H    -7.661848  -1.128532  5.556951
H    -6.805855  -1.202327  4.066239
N    -0.692247  2.617459  3.945155
C    -1.687177  3.344396  3.152031
H    -0.108298  3.210374  4.546612
H    -1.170925  4.158549  2.626487
H    -2.439762  3.785023  3.819640
H    -2.172869  2.701075  2.414760
Hg    1.653132  -0.686034  4.549572
