37
Energy: -574593.4517770  eV PBE+vdW (tier 2 basis)
C    -0.205704  -2.539279  1.422874
C    -0.052460  -1.239598  2.144290
O    0.911124  -0.500951  1.738392
H    -1.102253  -3.090286  1.728321
H    0.693180  -3.150595  1.590838
H    -0.249945  -2.341863  0.340985
N    -0.908867  -0.939770  3.140947
C    -1.243817  0.373624  3.732062
C    -0.476148  0.627956  5.057549
O    0.788738  0.879791  5.055884
H    -1.558991  -1.690628  3.364544
H    -0.841271  1.145154  3.051587
C    -2.777086  0.623924  3.732852
C    -3.741143  -0.464405  4.255685
C    -5.189592  0.075301  4.270026
N    -6.161636  -0.940633  4.687046
C    -7.425129  -1.090641  4.212596
N    -8.353770  -1.631275  5.003942
N    -7.746489  -0.726404  2.967709
H    -3.041259  0.842009  2.687566
H    -2.939296  1.572014  4.269818
H    -3.477270  -0.808927  5.270007
H    -3.713913  -1.358718  3.613746
H    -5.459125  0.438482  3.271078
H    -5.259065  0.945988  4.942618
H    -6.004949  -1.359771  5.599856
H    -8.245609  -1.676450  6.011567
H    -9.232298  -1.976004  4.628090
H    -8.716399  -0.704417  2.668344
H    -7.049774  -0.601602  2.244793
N    -1.094302  0.632672  6.216898
C    -0.447920  0.912921  7.511238
H    -2.085073  0.406432  6.225694
H    0.288710  1.713494  7.387589
H    0.055577  0.010925  7.882981
H    -1.220442  1.221756  8.220697
Hg    1.776664  0.941776  3.117288
