37
Energy: -574593.2962387  eV PBE+vdW (tier 2 basis)
C    0.100325  0.788651  0.454662
C    0.069435  -0.570206  1.082887
O    1.061496  -1.320447  0.776637
H    0.358590  0.689727  -0.608899
H    0.911013  1.370863  0.919912
H    -0.848357  1.328569  0.553625
N    -0.959097  -0.869762  1.897214
C    -1.477175  -2.136705  2.495658
C    -0.679010  -2.592687  3.742413
O    0.346901  -3.379032  3.668904
H    -1.581404  -0.076545  2.034210
H    -2.464462  -1.844202  2.872225
C    -1.694185  -3.289446  1.483425
C    -2.810478  -3.065905  0.433468
C    -4.207720  -3.546243  0.886573
N    -5.233990  -3.369577  -0.142363
C    -5.910800  -4.344110  -0.795244
N    -7.086444  -4.053510  -1.356145
N    -5.420175  -5.585868  -0.880943
H    -1.897988  -4.200471  2.067096
H    -0.761428  -3.498000  0.937418
H    -2.531339  -3.612247  -0.477720
H    -2.857339  -2.007492  0.134324
H    -4.544154  -3.002917  1.783323
H    -4.180613  -4.607500  1.167425
H    -5.584390  -2.426791  -0.285670
H    -7.513150  -4.672120  -2.039517
H    -7.622307  -3.234033  -1.089861
H    -5.999501  -6.348442  -1.218617
H    -4.431697  -5.779673  -0.785101
N    -1.067568  -2.272742  4.962244
C    -2.254133  -1.570958  5.460081
H    -0.454944  -2.651300  5.694029
H    -1.926930  -0.864450  6.233802
H    -2.945674  -2.291331  5.917744
H    -2.761053  -1.014324  4.668443
Hg    1.658745  -3.025771  1.981338
