37
Energy: -574592.8747659  eV PBE+vdW (tier 2 basis)
C    -0.318561  0.951724  1.930974
C    -0.506458  -0.388785  2.541522
O    0.355450  -0.984273  3.253306
H    0.663208  1.355417  2.197263
H    -1.110314  1.637571  2.263058
H    -0.366554  0.885972  0.832913
N    -1.639026  -1.145658  2.349373
C    -2.560686  -1.195229  1.226377
C    -1.754660  -1.624505  -0.090925
O    -1.156593  -0.724603  -0.677562
H    -1.613429  -1.994380  2.921643
H    -3.227861  -2.034354  1.467454
C    -3.397724  0.076057  0.955082
C    -4.540656  -0.231388  -0.034764
C    -5.371834  0.979410  -0.495603
N    -6.414194  1.376059  0.454240
C    -7.166163  2.502772  0.345477
N    -8.080709  2.760252  1.287450
N    -6.981321  3.350523  -0.665964
H    -2.758457  0.863282  0.537647
H    -3.788493  0.431307  1.919465
H    -5.213215  -1.004947  0.370276
H    -4.115847  -0.658530  -0.954914
H    -5.841389  0.702714  -1.456973
H    -4.721846  1.847470  -0.685045
H    -6.806527  0.641138  1.038501
H    -8.117192  2.242491  2.159081
H    -8.765466  3.502431  1.172551
H    -6.494096  3.081091  -1.512787
H    -7.458754  4.247176  -0.690577
N    -1.766293  -2.909842  -0.460754
C    -2.486046  -4.040330  0.130541
H    -1.262344  -3.089216  -1.331989
H    -2.130962  -4.950581  -0.364429
H    -3.569439  -3.970704  -0.040068
H    -2.273058  -4.143074  1.201263
Hg    1.895832  -0.047623  4.723402
