37
Energy: -574593.0689701  eV PBE+vdW (tier 2 basis)
C    -1.068453  -1.205113  1.145225
C    -0.132874  -0.058887  1.292010
O    1.075098  -0.195645  1.702630
H    -0.685974  -1.872856  0.356347
H    -2.087362  -0.917425  0.874316
H    -1.092648  -1.780359  2.080730
N    -0.471022  1.220309  1.054559
C    -1.781734  1.843090  0.920386
C    -1.539559  2.973779  -0.156590
O    -0.586238  3.722997  0.037877
H    0.303010  1.894107  1.125974
H    -2.506386  1.100248  0.571944
C    -2.241098  2.505589  2.249652
C    -3.558194  3.298985  2.163468
C    -3.876337  3.970143  3.512333
N    -5.147702  4.692884  3.466315
C    -5.516909  5.699020  4.297172
N    -6.644567  6.369221  4.031909
N    -4.765825  6.029284  5.347755
H    -1.427676  3.166639  2.585108
H    -2.335339  1.697829  2.991518
H    -4.384325  2.625235  1.884342
H    -3.492701  4.079886  1.391005
H    -3.083519  4.689788  3.766058
H    -3.908282  3.207745  4.311778
H    -5.879388  4.317120  2.867921
H    -7.048564  7.012992  4.706771
H    -7.105803  6.311063  3.129629
H    -4.960872  6.868554  5.886083
H    -4.078916  5.395112  5.738242
N    -2.363665  3.078720  -1.219959
C    -3.428292  2.184255  -1.657241
H    -2.051604  3.784202  -1.892768
H    -3.029067  1.306087  -2.188813
H    -4.062462  2.734375  -2.361882
H    -4.046514  1.856399  -0.814516
Hg    2.473644  -1.939556  1.355749
