37
Energy: -574593.4247100  eV PBE+vdW (tier 2 basis)
C    0.317238  -1.125342  1.086532
C    -0.000096  -0.113642  2.142114
O    0.719167  0.942825  2.111566
H    1.365128  -1.440041  1.192520
H    0.228228  -0.648479  0.098731
H    -0.345084  -1.997979  1.128216
N    -0.988368  -0.376808  3.019690
C    -1.687365  0.556201  3.925553
C    -0.973149  0.669658  5.301461
O    -0.197642  1.669520  5.546066
H    -1.413556  -1.294068  2.900892
H    -1.580778  1.562907  3.489250
C    -3.225842  0.323159  3.925065
C    -3.804990  -1.013372  4.431319
C    -5.250401  -1.299413  3.971230
N    -6.240877  -0.406453  4.583924
C    -7.510071  -0.247955  4.123852
N    -8.309497  0.638186  4.722756
N    -7.945519  -0.935380  3.064923
H    -3.530849  0.473215  2.877732
H    -3.664686  1.162995  4.482482
H    -3.780078  -1.070313  5.532139
H    -3.220909  -1.875185  4.069387
H    -5.475727  -2.351303  4.211458
H    -5.315081  -1.181690  2.879769
H    -6.118629  -0.197632  5.571540
H    -7.952384  1.334013  5.367708
H    -9.309166  0.653459  4.544552
H    -8.836635  -0.709443  2.632280
H    -7.526465  -1.814909  2.786349
N    -1.148918  -0.231226  6.245728
C    -0.485295  -0.222589  7.558475
H    -1.835841  -0.963833  6.080461
H    -0.365290  -1.258976  7.889707
H    -1.099710  0.324108  8.286863
H    0.488233  0.269168  7.474131
Hg    0.840903  2.384617  3.751582
