37
Energy: -574593.5416091  eV PBE+vdW (tier 2 basis)
C    -1.606035  0.506008  0.137560
C    -0.963625  0.086378  1.420991
O    -0.303687  -1.015396  1.350108
H    -2.083654  -0.368556  -0.327398
H    -0.818772  0.835832  -0.558765
H    -2.348123  1.301358  0.270016
N    -1.107176  0.873990  2.501454
C    -0.960803  0.669366  3.983362
C    0.485148  0.891517  4.502109
O    1.407727  -0.014218  4.476241
H    -1.610590  1.731736  2.280863
H    -1.546020  1.506510  4.388685
C    -1.635080  -0.622501  4.505072
C    -1.923530  -0.593392  6.019467
C    -2.679949  -1.858571  6.481142
N    -2.901211  -1.894676  7.929377
C    -4.083683  -2.066297  8.567541
N    -4.089615  -2.594298  9.793420
N    -5.237667  -1.707443  7.993700
H    -1.039468  -1.519473  4.261374
H    -2.574429  -0.732841  3.943143
H    -2.519380  0.298252  6.268802
H    -0.982681  -0.513152  6.586571
H    -2.113536  -2.760361  6.199377
H    -3.651273  -1.939088  5.977051
H    -2.078532  -2.049215  8.505925
H    -3.305804  -3.128831  10.153027
H    -4.902909  -2.519542  10.397232
H    -6.125913  -1.987169  8.397979
H    -5.275522  -1.025231  7.247653
N    0.768457  2.048442  5.063866
C    2.077256  2.443888  5.601901
H    0.010482  2.721230  5.178229
H    2.092906  2.290522  6.689716
H    2.227477  3.508096  5.389644
H    2.864626  1.843629  5.138857
Hg    1.210590  -1.377507  2.818706
