37
Energy: -574593.7145624  eV PBE+vdW (tier 2 basis)
C    1.041152  -0.598922  -0.287015
C    0.686588  0.245995  0.894336
O    0.555294  1.495869  0.648295
H    0.350585  -0.368099  -1.111776
H    0.999963  -1.671915  -0.067478
H    2.047384  -0.319955  -0.634441
N    0.537582  -0.344339  2.095678
C    -0.138109  0.153316  3.318395
C    0.870733  0.843414  4.275622
O    1.076108  2.114380  4.218170
H    0.740236  -1.343435  2.091191
H    -0.840647  0.946312  3.012031
C    -0.981605  -0.993141  3.924590
C    -1.945003  -0.573539  5.052221
C    -2.872092  -1.739145  5.452261
N    -3.819171  -1.326969  6.489593
C    -4.457822  -2.159830  7.345640
N    -5.161222  -1.638107  8.354487
N    -4.364227  -3.486010  7.207603
H    -0.321759  -1.812381  4.260910
H    -1.564834  -1.410707  3.089297
H    -2.560821  0.271427  4.704075
H    -1.395683  -0.226780  5.940032
H    -2.275297  -2.573211  5.849717
H    -3.410459  -2.103087  4.560277
H    -4.187160  -0.381121  6.437608
H    -5.816029  -2.201111  8.888765
H    -5.052976  -0.671290  8.640982
H    -4.711757  -4.106439  7.932852
H    -4.149225  -3.917045  6.316408
N    1.526396  0.139383  5.172805
C    2.546693  0.670118  6.090612
H    1.281212  -0.844112  5.274315
H    3.041855  1.530207  5.630953
H    3.271601  -0.124290  6.294356
H    2.077526  0.985180  7.032285
Hg    0.690987  2.969380  2.241347
