37
Energy: -574593.4522593  eV PBE+vdW (tier 2 basis)
C    1.507836  -1.606795  2.203867
C    0.895442  -0.249647  2.060587
O    1.727009  0.724768  2.167034
H    2.066778  -1.835565  1.281914
H    0.769110  -2.393392  2.394941
H    2.248366  -1.587337  3.015517
N    -0.425113  -0.164248  1.821151
C    -1.449817  0.925106  1.937822
C    -1.538769  1.854834  0.699192
O    -0.760252  2.868275  0.492825
H    -0.847847  -1.082977  1.700847
H    -2.390892  0.357398  1.933383
C    -1.425917  1.707984  3.275895
C    -1.711598  0.822116  4.504752
C    -1.677470  1.555010  5.864308
N    -2.855589  2.370623  6.183499
C    -3.734769  2.123874  7.186615
N    -4.428809  3.136981  7.710966
N    -3.924697  0.882834  7.644144
H    -2.187022  2.498392  3.181964
H    -0.464115  2.227637  3.420915
H    -0.955867  0.024675  4.565325
H    -2.685670  0.323325  4.381843
H    -0.791026  2.203729  5.928989
H    -1.554385  0.812725  6.662753
H    -2.866198  3.324420  5.836318
H    -4.128597  4.101203  7.615745
H    -5.236494  2.972026  8.304213
H    -4.441157  0.717815  8.502619
H    -3.640962  0.063665  7.122668
N    -2.525665  1.657801  -0.150222
C    -2.788220  2.452221  -1.358548
H    -3.206425  0.930544  0.068654
H    -1.864121  2.927862  -1.697455
H    -3.536396  3.225981  -1.136391
H    -3.184039  1.782046  -2.129233
Hg    1.221361  2.615087  1.279583
