37
Energy: -574592.9952889  eV PBE+vdW (tier 2 basis)
C    0.289190  -0.006043  0.755619
C    0.143370  0.417552  2.172448
O    1.110195  0.566000  2.979474
H    -0.365177  -0.857187  0.519060
H    1.322443  -0.305654  0.556816
H    0.009627  0.824132  0.088943
N    -1.074895  0.646034  2.759529
C    -2.399790  0.154848  2.414966
C    -2.420876  -1.442092  2.482429
O    -2.263336  -2.049076  1.424608
H    -0.970239  1.001056  3.713627
H    -3.037149  0.500863  3.241386
C    -2.961671  0.662526  1.067738
C    -4.493278  0.524009  0.998634
C    -5.039966  1.066637  -0.353577
N    -6.495775  1.102905  -0.408374
C    -7.321606  0.327322  -1.156050
N    -8.587372  0.721181  -1.321413
N    -6.886830  -0.802492  -1.716650
H    -2.495626  0.113027  0.240796
H    -2.679022  1.721052  0.973293
H    -4.961300  1.093131  1.815903
H    -4.799344  -0.526278  1.115589
H    -4.663134  0.477849  -1.199709
H    -4.687086  2.097754  -0.503114
H    -6.949175  1.851695  0.111139
H    -9.281344  0.111190  -1.745111
H    -8.885126  1.672110  -1.124530
H    -7.452255  -1.300170  -2.398029
H    -6.024154  -1.248476  -1.432330
N    -2.593484  -2.021488  3.677385
C    -2.845131  -1.396038  4.977060
H    -2.607230  -3.042360  3.642058
H    -2.996566  -2.197666  5.706997
H    -3.756700  -0.782937  4.967846
H    -1.987793  -0.798892  5.313971
Hg    3.241746  1.365938  2.520179
