37
Energy: -574593.3470262  eV PBE+vdW (tier 2 basis)
C    -1.790309  0.985012  0.789633
C    -1.120890  0.233565  1.897177
O    -0.672233  -0.921409  1.559126
H    -1.017854  1.332707  0.085238
H    -2.381746  1.835987  1.146429
H    -2.436937  0.297253  0.226522
N    -1.033583  0.817172  3.105560
C    -0.755847  0.322130  4.493611
C    0.761004  0.205360  4.811408
O    1.478841  -0.828180  4.525595
H    -1.402033  1.766690  3.096463
H    -1.119802  1.151233  5.116811
C    -1.576088  -0.930205  4.888152
C    -1.584894  -1.221340  6.410866
C    -2.743687  -0.616376  7.232603
N    -3.943184  -1.459887  7.232335
C    -4.796042  -1.615661  8.272667
N    -5.670075  -2.626227  8.253360
N    -4.758462  -0.784478  9.318661
H    -1.202192  -1.822685  4.360982
H    -2.593758  -0.777532  4.499608
H    -0.644247  -0.873982  6.863959
H    -1.580433  -2.308411  6.567188
H    -2.990530  0.401460  6.883119
H    -2.409783  -0.530148  8.274806
H    -4.211611  -1.923048  6.370014
H    -5.546445  -3.432553  7.651051
H    -6.458639  -2.652535  8.892744
H    -5.265438  -1.003081  10.171325
H    -4.384739  0.154162  9.246579
N    1.333608  1.192472  5.470849
C    2.753036  1.260459  5.845309
H    0.742513  1.958889  5.791646
H    2.886455  0.884525  6.869283
H    3.068414  2.308544  5.804554
H    3.346377  0.651842  5.157587
Hg    0.877234  -1.860726  2.721177
