37
Energy: -574592.7622013  eV PBE+vdW (tier 2 basis)
C    0.051000  0.969204  -0.285977
C    0.084637  0.441161  1.108677
O    1.057381  0.094220  1.728942
H    0.894147  1.657572  -0.428678
H    -0.889436  1.459637  -0.559047
H    0.217110  0.124594  -0.976153
N    -1.259803  0.287196  1.744819
C    -1.417364  -0.564679  2.939640
C    -2.919521  -0.551028  3.354508
O    -3.542571  0.545724  3.511557
H    -1.926388  0.026312  1.004252
H    -1.188910  -1.603852  2.640202
C    -0.543828  -0.118542  4.145793
C    0.054771  -1.262283  4.979521
C    1.268704  -2.010726  4.365117
N    2.534239  -1.288219  4.387508
C    3.581978  -1.525205  5.221710
N    3.416954  -2.212959  6.351661
N    4.785553  -1.049945  4.888916
H    -1.178915  0.488277  4.814924
H    0.242850  0.558168  3.799064
H    -0.712183  -2.023554  5.194012
H    0.341037  -0.852615  5.958295
H    1.069407  -2.264319  3.311476
H    1.405988  -2.963822  4.891498
H    2.706531  -0.633531  3.628282
H    2.505728  -2.370988  6.764268
H    4.216801  -2.527588  6.894267
H    5.010402  -0.773306  3.938337
H    5.558355  -1.058771  5.549729
N    -3.510624  -1.701968  3.609145
C    -4.891899  -1.850350  4.093788
H    -2.957461  -2.552725  3.512298
H    -4.903390  -1.889242  5.191654
H    -5.294952  -2.787189  3.695270
H    -5.492095  -1.000329  3.755427
Hg    -2.583044  2.342701  2.494265
