37
Energy: -574592.9683280  eV PBE+vdW (tier 2 basis)
C    1.143455  0.154789  0.698406
C    0.463589  -0.476332  1.868342
O    1.091557  -1.079736  2.813910
H    1.836137  0.933872  1.053108
H    0.440023  0.612962  -0.004502
H    1.723976  -0.609864  0.160974
N    -0.867605  -0.446886  1.946674
C    -1.653541  -1.178926  2.953412
C    -2.783797  -1.867309  2.152867
O    -3.201314  -1.254032  1.158443
H    -1.398091  -0.143840  1.123283
H    -0.977108  -1.916372  3.406363
C    -2.245901  -0.283476  4.084499
C    -3.601014  0.428155  3.889233
C    -3.589050  1.692596  2.994239
N    -4.915975  2.290608  2.855754
C    -5.526578  3.167252  3.692484
N    -6.815980  3.452262  3.490735
N    -4.859224  3.728042  4.703436
H    -1.465158  0.435796  4.372335
H    -2.372551  -0.950386  4.950214
H    -3.947918  0.725593  4.889429
H    -4.358659  -0.271737  3.507988
H    -3.265912  1.456163  1.973631
H    -2.877201  2.435864  3.382941
H    -5.452817  2.010819  2.038653
H    -7.390575  2.928398  2.837830
H    -7.278502  4.207655  3.989701
H    -5.329245  4.346656  5.358149
H    -3.847459  3.726684  4.739642
N    -3.315555  -3.040373  2.545600
C    -2.912810  -3.933141  3.618383
H    -4.056415  -3.378123  1.923671
H    -3.805009  -4.234217  4.187889
H    -2.198274  -3.458123  4.294671
H    -2.469955  -4.851771  3.199743
Hg    3.363653  -1.068661  3.023331
