37
Energy: -574592.8796182  eV PBE+vdW (tier 2 basis)
C    -0.898398  1.327839  -0.176695
C    -0.232502  1.169650  1.143938
O    1.025397  1.312593  1.308292
H    -0.735693  2.357293  -0.533725
H    -1.974372  1.136726  -0.166495
H    -0.426313  0.650714  -0.902902
N    -0.887360  0.814792  2.275325
C    -2.196704  0.160956  2.417989
C    -2.836908  0.798367  3.704163
O    -2.759748  0.188281  4.774078
H    -0.273726  0.763868  3.094980
H    -2.807775  0.418422  1.544486
C    -2.074045  -1.374085  2.533055
C    -3.402277  -2.159745  2.437957
C    -4.154303  -2.500815  3.742523
N    -3.500786  -3.524343  4.554568
C    -3.220721  -3.460099  5.884751
N    -3.051932  -4.602847  6.555562
N    -3.101092  -2.278045  6.488634
H    -1.518087  -1.629568  3.446441
H    -1.444252  -1.688229  1.688272
H    -3.197962  -3.100717  1.907431
H    -4.120856  -1.630789  1.793462
H    -5.139674  -2.906954  3.451373
H    -4.350501  -1.625406  4.367221
H    -3.406192  -4.445348  4.127039
H    -2.697769  -4.611376  7.508614
H    -3.378981  -5.493291  6.191035
H    -3.041160  -2.215785  7.500769
H    -2.984758  -1.415230  5.957330
N    -3.442478  2.000647  3.608666
C    -3.782938  2.791026  2.432716
H    -3.869666  2.303590  4.488247
H    -3.824717  3.845458  2.734668
H    -4.775770  2.518354  2.042383
H    -3.031095  2.686917  1.646472
Hg    2.488396  2.588911  0.093917
