37
Energy: -574593.6586536  eV PBE+vdW (tier 2 basis)
C    1.097216  0.954134  0.776071
C    0.920694  1.258280  2.229142
O    1.042181  2.494695  2.542848
H    0.836613  -0.080583  0.525695
H    2.140892  1.161766  0.494818
H    0.472355  1.641761  0.187003
N    0.658951  0.247470  3.079036
C    0.110267  0.284041  4.456766
C    1.248328  0.309028  5.512455
O    1.693985  1.424047  5.982210
H    0.654680  -0.671473  2.637377
H    -0.424298  1.240922  4.578377
C    -0.933997  -0.847003  4.610918
C    -1.780766  -0.789265  5.897877
C    -2.820486  -1.932012  5.932063
N    -3.602964  -1.955133  7.171200
C    -4.953011  -2.001226  7.279220
N    -5.498440  -2.542516  8.370651
N    -5.740732  -1.504945  6.319054
H    -0.440512  -1.830703  4.515328
H    -1.596808  -0.768696  3.735315
H    -2.299024  0.178995  5.966001
H    -1.138470  -0.862998  6.789435
H    -2.314281  -2.905066  5.827348
H    -3.511455  -1.856547  5.083208
H    -3.099445  -2.213945  8.015509
H    -6.474841  -2.389534  8.605101
H    -4.980141  -3.169687  8.976933
H    -6.739672  -1.686138  6.323411
H    -5.409697  -0.815791  5.656488
N    1.771642  -0.813311  5.955869
C    2.891907  -0.911703  6.904802
H    1.343429  -1.687189  5.654303
H    3.546997  -0.043154  6.790380
H    3.440357  -1.834928  6.693326
H    2.511266  -0.941525  7.934576
Hg    1.472277  3.089933  4.586885
