37
Energy: -574592.8036331  eV PBE+vdW (tier 2 basis)
C    2.527039  -0.189184  0.231012
C    1.839240  0.387034  1.423856
O    2.414648  0.663126  2.490304
H    1.871560  -0.350173  -0.630945
H    2.983973  -1.150046  0.510481
H    3.353434  0.477403  -0.056472
N    0.474430  0.616417  1.308463
C    -0.448573  0.974427  2.343029
C    -0.234494  2.478445  2.896615
O    -1.335380  3.097080  2.877175
H    0.070180  0.464551  0.383538
H    -1.424048  1.058271  1.852969
C    -0.683521  -0.042358  3.529188
C    0.414617  -0.904937  4.153127
C    1.268898  -0.273334  5.288442
N    2.136196  -1.242851  5.942371
C    3.445543  -1.479626  5.674642
N    4.119190  -2.299884  6.487962
N    4.046604  -0.904749  4.632540
H    -1.391307  -0.751128  3.068137
H    -1.261803  0.490071  4.298616
H    1.057699  -1.356692  3.386924
H    -0.124757  -1.750526  4.611073
H    0.602067  0.128629  6.064068
H    1.888246  0.552881  4.923565
H    1.712774  -1.823207  6.663914
H    3.735380  -2.618813  7.373177
H    5.070029  -2.594398  6.280935
H    3.535168  -0.407954  3.905070
H    5.050205  -0.992560  4.505828
N    0.954720  2.876532  3.272848
C    1.315603  4.227788  3.719119
H    1.696318  2.164839  3.141182
H    2.393557  4.239092  3.909507
H    0.798905  4.485576  4.652227
H    1.109383  4.971660  2.936754
Hg    -2.001362  5.268302  3.302389
