37
Energy: -574593.0529446  eV PBE+vdW (tier 2 basis)
C    -3.192193  2.276284  2.521764
C    -1.901545  1.572810  2.301532
O    -0.830935  2.145156  1.927599
H    -3.013605  3.179679  3.122534
H    -3.941718  1.666215  3.033957
H    -3.592799  2.613072  1.552836
N    -1.776136  0.223635  2.430684
C    -2.818800  -0.792923  2.325734
C    -3.204706  -1.405326  3.725203
O    -4.339045  -1.898615  3.791534
H    -0.814971  -0.099908  2.271091
H    -3.744376  -0.314564  1.984743
C    -2.362836  -1.894598  1.327162
C    -3.163715  -3.203111  1.199281
C    -4.572715  -3.165291  0.575487
N    -5.631496  -3.120937  1.578457
C    -6.909182  -3.540625  1.393915
N    -7.705982  -3.633381  2.466273
N    -7.358220  -3.855385  0.180625
H    -1.335892  -2.186432  1.599920
H    -2.293913  -1.408961  0.341009
H    -3.193294  -3.756597  2.148358
H    -2.559201  -3.833023  0.529760
H    -4.715279  -4.077932  -0.024309
H    -4.670907  -2.314917  -0.125459
H    -5.368358  -2.750388  2.501439
H    -8.696483  -3.844577  2.376157
H    -7.332370  -3.605709  3.409537
H    -8.267026  -4.291604  0.049796
H    -6.844827  -3.628072  -0.663250
N    -2.329116  -1.382756  4.728017
C    -2.566567  -2.012806  6.031136
H    -1.405205  -0.995171  4.554450
H    -1.996902  -1.464839  6.789275
H    -2.230929  -3.059353  6.025375
H    -3.636529  -1.977493  6.259680
Hg    -0.110307  4.323034  2.303651
