37
Energy: -574593.1256729  eV PBE+vdW (tier 2 basis)
C    0.648207  -0.401277  0.454770
C    0.259021  0.323277  1.692625
O    1.169542  0.573064  2.553791
H    1.244548  0.257030  -0.196229
H    -0.214155  -0.805013  -0.085190
H    1.321045  -1.226664  0.735586
N    -1.018709  0.694499  1.955769
C    -1.907279  1.407115  1.030101
C    -1.513546  2.906140  1.145209
O    -0.984090  3.362258  2.222425
H    -1.163677  0.976493  2.927898
H    -1.702291  1.051100  0.011130
C    -3.397727  1.194748  1.391809
C    -3.898215  -0.247395  1.185252
C    -5.388976  -0.380218  1.547713
N    -5.877449  -1.737010  1.294132
C    -7.004949  -2.279751  1.814713
N    -7.247220  -3.579794  1.611763
N    -7.849946  -1.541211  2.535606
H    -3.996289  1.885968  0.780668
H    -3.549113  1.512063  2.436404
H    -3.313257  -0.949299  1.797416
H    -3.753987  -0.534829  0.131042
H    -5.980090  0.347560  0.963652
H    -5.539736  -0.155761  2.614585
H    -5.435786  -2.261367  0.543209
H    -6.529916  -4.215544  1.278140
H    -8.151055  -3.989991  1.829738
H    -8.617962  -1.972525  3.041677
H    -7.861123  -0.529772  2.481376
N    -1.774427  3.769390  0.173767
C    -2.544688  3.595569  -1.054704
H    -1.450200  4.722913  0.368309
H    -3.527181  4.079958  -0.953941
H    -2.675879  2.538259  -1.298699
H    -2.005563  4.092252  -1.872416
Hg    0.936016  2.681217  3.343402
