37
Energy: -574593.3330206  eV PBE+vdW (tier 2 basis)
C    -1.722781  1.005754  0.732855
C    -1.074192  0.280303  1.869305
O    -0.637045  -0.890392  1.571945
H    -0.942775  1.298872  0.012563
H    -2.286578  1.888893  1.054169
H    -2.392626  0.315495  0.200615
N    -0.991372  0.898665  3.060781
C    -0.732575  0.441793  4.466232
C    0.780912  0.336751  4.804610
O    1.505007  -0.700655  4.548986
H    -1.342501  1.853822  3.018628
H    -1.103080  1.289416  5.059963
C    -1.555687  -0.800107  4.886042
C    -1.609310  -1.036112  6.413435
C    -2.743360  -0.317393  7.182259
N    -4.057524  -0.962791  7.094140
C    -4.508179  -1.962720  7.892186
N    -5.724708  -2.467653  7.677493
N    -3.735081  -2.471485  8.857752
H    -1.161146  -1.711115  4.405835
H    -2.566577  -0.680955  4.469407
H    -0.653039  -0.748199  6.877386
H    -1.696645  -2.115929  6.592850
H    -2.886937  0.712095  6.827368
H    -2.449464  -0.206104  8.236279
H    -4.774847  -0.470311  6.572576
H    -6.284642  -2.204633  6.874181
H    -6.159742  -3.102096  8.340277
H    -4.060115  -3.252388  9.419947
H    -2.942516  -1.961981  9.228383
N    1.343595  1.340743  5.446476
C    2.759219  1.423266  5.833279
H    0.747068  2.113142  5.741862
H    3.361383  0.799635  5.167129
H    2.883637  1.074894  6.867918
H    3.071374  2.471056  5.768401
Hg    0.891849  -1.792577  2.785487
