37
Energy: -574593.4528528  eV PBE+vdW (tier 2 basis)
C    0.402823  1.753763  1.346779
C    0.151256  0.288005  1.513635
O    1.008760  -0.467112  0.927606
H    1.294464  2.027319  1.932390
H    -0.449826  2.371064  1.652455
H    0.644979  1.959239  0.294419
N    -0.906473  -0.100046  2.246712
C    -1.661514  -1.385350  2.397278
C    -0.992267  -2.374369  3.382312
O    -0.136179  -3.269495  2.998064
H    -1.403903  0.693500  2.646890
H    -2.585649  -1.058264  2.888430
C    -2.096635  -2.013683  1.051501
C    -3.227866  -3.050858  1.197858
C    -3.804218  -3.460368  -0.171366
N    -4.912557  -4.403597  -0.010023
C    -5.384718  -5.232526  -0.970662
N    -6.272359  -6.173818  -0.638569
N    -4.947208  -5.135731  -2.230395
H    -1.246141  -2.463563  0.513051
H    -2.436262  -1.176858  0.423114
H    -4.036829  -2.613347  1.806200
H    -2.872085  -3.948408  1.725406
H    -3.027498  -3.949243  -0.777699
H    -4.138927  -2.557809  -0.711114
H    -5.501528  -4.298679  0.811207
H    -6.807631  -6.667863  -1.346069
H    -6.433649  -6.443910  0.325552
H    -5.182842  -5.847973  -2.915134
H    -4.567403  -4.271158  -2.597055
N    -1.323889  -2.404660  4.658525
C    -2.338530  -1.680554  5.429748
H    -0.793485  -3.099615  5.197073
H    -3.057585  -2.399270  5.843942
H    -2.866211  -0.940817  4.823833
H    -1.837071  -1.171668  6.264463
Hg    1.262657  -2.521284  1.522642
