37
Energy: -574592.9773978  eV PBE+vdW (tier 2 basis)
C    0.221252  1.660392  -0.320755
C    0.124172  0.736828  0.839012
O    1.204488  0.222797  1.289818
H    0.898625  1.208977  -1.063171
H    0.702965  2.602442  -0.016101
H    -0.749737  1.850383  -0.789322
N    -1.057498  0.389506  1.406384
C    -2.112217  1.319500  1.827918
C    -1.682032  1.813809  3.236972
O    -0.928956  1.087460  3.980414
H    -0.981085  -0.415839  2.031864
H    -2.125409  2.166011  1.127545
C    -3.496379  0.618003  1.860484
C    -3.948595  0.134134  0.467986
C    -5.136053  -0.847582  0.442137
N    -6.452027  -0.205175  0.516782
C    -7.605687  -0.749865  0.056696
N    -8.700105  0.017530  -0.018025
N    -7.651063  -2.025100  -0.328973
H    -4.221563  1.317557  2.301124
H    -3.434757  -0.231848  2.559724
H    -3.114160  -0.408049  -0.000608
H    -4.162233  0.988016  -0.193035
H    -5.029082  -1.588995  1.253865
H    -5.098705  -1.396609  -0.509426
H    -6.545443  0.660722  1.038498
H    -9.616407  -0.387168  -0.189746
H    -8.648008  1.030648  -0.007953
H    -6.955280  -2.702675  -0.040091
H    -8.458622  -2.392425  -0.824263
N    -2.125985  2.957167  3.739510
C    -3.127115  3.885094  3.222131
H    -1.752800  3.173294  4.670106
H    -2.747815  4.907880  3.349026
H    -4.057391  3.795032  3.801724
H    -3.328455  3.705215  2.163046
Hg    1.188308  0.209214  3.549132
