37
Energy: -574593.4208744  eV PBE+vdW (tier 2 basis)
C    -1.545779  1.695038  0.768413
C    -1.906708  0.349056  1.311980
O    -2.669836  -0.350247  0.560841
H    -1.082611  1.565519  -0.221528
H    -0.855726  2.241683  1.421582
H    -2.464211  2.278904  0.613065
N    -1.418525  -0.020576  2.512731
C    -1.340783  -1.371620  3.105569
C    -2.596999  -1.703585  3.957736
O    -3.572932  -2.372554  3.444962
H    -0.869880  0.701902  2.974812
H    -1.388861  -2.089339  2.270291
C    0.055929  -1.640198  3.738822
C    0.541522  -0.787543  4.930488
C    2.076296  -0.769465  5.128459
N    2.628235  -2.010595  5.674958
C    3.680308  -2.082030  6.531142
N    4.402168  -0.998717  6.829092
N    3.970898  -3.255253  7.099248
H    0.764459  -1.527737  2.903075
H    0.065098  -2.708842  4.000340
H    0.088729  -1.120620  5.877405
H    0.265191  0.272050  4.802070
H    2.298396  0.030228  5.846254
H    2.570093  -0.509409  4.177102
H    2.394530  -2.883815  5.212195
H    5.065838  -1.016156  7.598249
H    4.463792  -0.203457  6.204155
H    3.306250  -4.020428  7.121592
H    4.858748  -3.409100  7.567744
N    -2.693339  -1.332710  5.216613
C    -3.859119  -1.577991  6.080615
H    -1.880146  -0.896314  5.645814
H    -4.774883  -1.533179  5.482883
H    -3.875022  -0.811043  6.860730
H    -3.782775  -2.571102  6.543789
Hg    -3.776338  -2.084756  1.286714
