37
Energy: -574592.9076582  eV PBE+vdW (tier 2 basis)
C    0.413944  0.226269  0.286515
C    0.341542  0.595267  1.723151
O    1.430490  0.894331  2.323806
H    0.698902  1.101640  -0.317139
H    -0.516118  -0.220740  -0.079773
H    1.233847  -0.499264  0.159617
N    -0.817167  0.588109  2.428442
C    -2.067686  1.230883  2.008842
C    -1.955103  2.698986  2.506147
O    -1.184788  3.001244  3.488991
H    -0.665407  0.652736  3.436720
H    -2.090168  1.237185  0.910684
C    -3.333584  0.479318  2.507450
C    -3.460672  0.283960  4.028963
C    -4.814151  -0.279903  4.500038
N    -5.002211  -1.698405  4.176031
C    -6.183782  -2.360844  4.279727
N    -6.237927  -3.644821  3.908023
N    -7.279285  -1.739969  4.716946
H    -3.339306  -0.488659  1.986165
H    -4.210619  1.028075  2.134327
H    -3.350222  1.247216  4.550026
H    -2.655096  -0.361624  4.416119
H    -5.638436  0.287918  4.042128
H    -4.875952  -0.135019  5.592352
H    -4.171952  -2.285799  4.171920
H    -5.494340  -4.083304  3.375303
H    -7.047492  -4.222770  4.116363
H    -8.188353  -2.191600  4.670806
H    -7.234309  -0.881878  5.254125
N    -2.681239  3.669243  1.968605
C    -3.741538  3.610440  0.965288
H    -2.493102  4.595217  2.367647
H    -4.723001  3.743245  1.443747
H    -3.721509  2.666992  0.413957
H    -3.594562  4.442485  0.263731
Hg    1.124522  2.663085  3.694572
