37
Energy: -574592.7658773  eV PBE+vdW (tier 2 basis)
C    -0.550655  0.530761  0.950344
C    -0.590331  0.230005  2.404123
O    0.167253  0.928984  3.162632
H    0.309116  0.026452  0.481810
H    -0.363839  1.609670  0.837508
H    -1.481471  0.270449  0.440249
N    -1.433143  -0.659220  2.997878
C    -1.664998  -2.088294  2.711212
C    -0.529196  -2.794690  3.511031
O    0.644864  -2.286984  3.456298
H    -1.532619  -0.456402  3.996186
H    -2.637544  -2.320075  3.168879
C    -1.709731  -2.469375  1.214643
C    -2.272496  -3.876104  0.925551
C    -2.416858  -4.104164  -0.592191
N    -3.059975  -5.387302  -0.881709
C    -2.991409  -6.056405  -2.059427
N    -3.512996  -7.285997  -2.132154
N    -2.394855  -5.514385  -3.122307
H    -0.707785  -2.367389  0.773978
H    -2.361934  -1.731542  0.726540
H    -3.263497  -3.976115  1.397146
H    -1.624241  -4.660372  1.343403
H    -1.425306  -4.104004  -1.068703
H    -3.005547  -3.280357  -1.033657
H    -3.775407  -5.706504  -0.233218
H    -3.647978  -7.751598  -3.025409
H    -3.755742  -7.817880  -1.302720
H    -2.214043  -6.066958  -3.955512
H    -2.260252  -4.514256  -3.210650
N    -0.739336  -3.882329  4.239253
C    -1.938106  -4.696065  4.423313
H    0.092374  -4.200184  4.748006
H    -2.108212  -4.833257  5.499493
H    -1.782799  -5.687986  3.975885
H    -2.814209  -4.225204  3.972105
Hg    1.448376  -0.354198  4.508253
