37
Energy: -574593.4565972  eV PBE+vdW (tier 2 basis)
C    -1.979316  0.665388  0.011626
C    -1.692197  0.141579  1.384784
O    -1.400843  -1.105857  1.429443
H    -1.034044  0.702565  -0.552183
H    -2.444455  1.657680  0.019681
H    -2.629654  -0.043629  -0.518810
N    -1.752882  1.000969  2.416900
C    -1.787572  0.842194  3.901650
C    -0.400130  0.575931  4.533175
O    0.078317  -0.616355  4.706945
H    -1.947234  1.952681  2.112773
H    -2.071671  1.844438  4.244681
C    -2.875920  -0.122448  4.436494
C    -4.310010  0.416232  4.258401
C    -5.356307  -0.509362  4.908764
N    -6.705377  0.041104  4.763058
C    -7.749775  -0.195162  5.591177
N    -8.861193  0.534712  5.458490
N    -7.668704  -1.125190  6.547813
H    -2.667074  -0.271756  5.507099
H    -2.794635  -1.116792  3.969394
H    -4.538978  0.530828  3.187056
H    -4.388244  1.414305  4.716198
H    -5.145608  -0.605527  5.983611
H    -5.301144  -1.516455  4.461287
H    -6.931639  0.504910  3.887823
H    -9.730666  0.258604  5.904719
H    -8.873417  1.405444  4.938534
H    -8.383149  -1.191079  7.266727
H    -7.025102  -1.904534  6.482863
N    0.327245  1.559668  5.027312
C    0.052054  2.989166  5.202838
H    1.215618  1.240960  5.431833
H    0.960583  3.540878  4.929631
H    -0.175521  3.195724  6.257508
H    -0.769751  3.327945  4.567910
Hg    -0.288111  -1.984710  3.074140
