37
Energy: -574593.2267132  eV PBE+vdW (tier 2 basis)
C    -0.478679  -2.129460  -0.461713
C    -0.448691  -1.407249  0.847600
O    0.578915  -0.664635  1.030607
H    0.410996  -2.770410  -0.540869
H    -0.413058  -1.393005  -1.276898
H    -1.388168  -2.729001  -0.588965
N    -1.467085  -1.580360  1.709503
C    -1.827607  -0.793419  2.907531
C    -1.058376  -1.261922  4.172975
O    -0.102257  -0.514593  4.626859
H    -2.186124  -2.222042  1.377000
H    -1.473034  0.238110  2.746880
C    -3.372682  -0.740731  3.018864
C    -4.006536  0.042132  4.191246
C    -4.159186  1.568980  3.972517
N    -5.350882  2.115114  4.632314
C    -5.410648  3.094851  5.563258
N    -6.525408  3.818892  5.674799
N    -4.367628  3.344586  6.367119
H    -3.756314  -1.769030  3.046385
H    -3.727748  -0.315694  2.066910
H    -3.494558  -0.162427  5.144185
H    -5.015309  -0.376475  4.313324
H    -4.262965  1.778740  2.896012
H    -3.284931  2.134832  4.317052
H    -6.242179  1.873947  4.205422
H    -6.713987  4.376483  6.502917
H    -7.218476  3.858853  4.933999
H    -4.361618  4.171199  6.956958
H    -3.697999  2.622255  6.598795
N    -1.323620  -2.359430  4.853918
C    -2.379930  -3.366581  4.696046
H    -0.694113  -2.502166  5.650527
H    -3.304261  -3.048600  5.196459
H    -2.028263  -4.285793  5.176725
H    -2.569678  -3.579898  3.640539
Hg    1.148085  0.181949  2.955198
