37
Energy: -574593.2668736  eV PBE+vdW (tier 2 basis)
C    0.857506  -2.888361  2.108239
C    0.453877  -1.928452  3.183695
O    1.402200  -1.273589  3.725245
H    0.032619  -3.547402  1.810086
H    1.711031  -3.487532  2.449926
H    1.196316  -2.312391  1.233061
N    -0.853475  -1.817925  3.502304
C    -1.432074  -0.775003  4.350544
C    -1.206374  -1.034685  5.867640
O    -0.497851  -0.177319  6.518741
H    -1.482470  -2.398546  2.952711
H    -0.817335  0.125619  4.183914
C    -2.833847  -0.266592  3.910816
C    -4.083642  -1.166303  3.894306
C    -5.252522  -0.389721  3.248816
N    -6.489468  -1.171428  3.238944
C    -7.741818  -0.653228  3.194092
N    -8.785965  -1.470926  3.358827
N    -7.935740  0.655939  3.016447
H    -2.672255  0.140556  2.899748
H    -3.032185  0.608755  4.548487
H    -4.376512  -1.459538  4.910779
H    -3.909054  -2.089583  3.317153
H    -4.976675  -0.092317  2.222332
H    -5.438936  0.527879  3.825694
H    -6.417124  -2.164654  3.036007
H    -8.682754  -2.404281  3.742206
H    -9.731267  -1.171511  3.138313
H    -8.857087  1.065033  3.142181
H    -7.240496  1.246623  2.575899
N    -1.680449  -2.058241  6.553878
C    -2.540266  -3.172431  6.165830
H    -1.395515  -2.048094  7.539474
H    -2.068616  -4.099777  6.518125
H    -2.661726  -3.222940  5.083396
H    -3.518981  -3.081802  6.654784
Hg    1.370410  0.247638  5.373351
