37
Energy: -574592.9668631  eV PBE+vdW (tier 2 basis)
C    -1.359401  0.588232  -0.593192
C    -0.707289  0.436111  0.733076
O    0.480582  -0.034839  0.768235
H    -1.173754  -0.328849  -1.174766
H    -0.878859  1.400051  -1.161178
H    -2.439107  0.750946  -0.514412
N    -1.332164  0.737614  1.898812
C    -2.041125  1.990243  2.185250
C    -0.942761  2.990186  2.642523
O    0.154442  2.564152  3.155704
H    -0.844140  0.373219  2.719999
H    -2.491916  2.349711  1.249649
C    -3.143787  1.802755  3.259294
C    -4.285766  0.880909  2.783984
C    -5.596120  0.945526  3.592339
N    -5.575051  0.198653  4.853344
C    -6.672310  -0.310299  5.468253
N    -6.505622  -1.127183  6.515716
N    -7.897857  -0.018293  5.033278
H    -3.546557  2.797110  3.501518
H    -2.671694  1.434181  4.184322
H    -3.947922  -0.163189  2.715211
H    -4.570163  1.175282  1.762003
H    -6.388791  0.506975  2.970105
H    -5.870741  1.998739  3.780479
H    -4.716211  0.179730  5.394831
H    -7.288279  -1.391614  7.107625
H    -5.620060  -1.584016  6.705667
H    -8.708975  -0.522575  5.380037
H    -8.086768  0.785277  4.445594
N    -1.126353  4.301359  2.578193
C    -2.318916  5.068877  2.230186
H    -0.318229  4.848247  2.894350
H    -2.012056  5.910756  1.595477
H    -2.780023  5.482028  3.139552
H    -3.045484  4.456665  1.689743
Hg    1.740518  1.111106  2.256188
