37
Energy: -574592.9318320  eV PBE+vdW (tier 2 basis)
C    -0.774630  -1.408539  1.085699
C    0.164802  -0.264154  0.928732
O    1.427719  -0.370472  1.065091
H    -0.591913  -2.145103  0.288882
H    -1.828962  -1.119293  1.080213
H    -0.566501  -1.910327  2.042824
N    -0.246421  0.977980  0.581082
C    -1.436098  1.343217  -0.179840
C    -0.922901  1.979731  -1.508304
O    0.089646  2.678189  -1.450612
H    0.518856  1.660793  0.503120
H    -2.024419  0.440363  -0.369074
C    -2.350533  2.395527  0.546522
C    -1.662114  3.703925  0.966092
C    -2.583784  4.921763  1.145118
N    -3.439714  4.852629  2.334483
C    -4.471809  5.698440  2.587457
N    -5.210619  5.504658  3.686496
N    -4.763022  6.689889  1.745895
H    -2.789725  1.874972  1.409780
H    -3.178698  2.603202  -0.148183
H    -0.940995  4.011764  0.190803
H    -1.060145  3.555779  1.876470
H    -3.232546  5.038286  0.263129
H    -1.940430  5.817163  1.205113
H    -3.074654  4.350228  3.139981
H    -5.885054  6.197254  3.999973
H    -5.155382  4.648767  4.228035
H    -5.606843  7.243754  1.862641
H    -4.095086  7.031692  1.064597
N    -1.599632  1.788710  -2.667498
C    -2.695119  0.886393  -2.973149
H    -1.134991  2.229084  -3.468252
H    -3.314943  1.351654  -3.752697
H    -3.316495  0.688924  -2.095005
H    -2.322311  -0.065801  -3.387359
Hg    2.607263  -1.877187  2.331574
