37
Energy: -574593.5270295  eV PBE+vdW (tier 2 basis)
C    -1.774331  -1.444071  -0.257722
C    -1.074017  -1.265377  1.052967
O    0.176467  -1.020035  0.975195
H    -1.511851  -0.611753  -0.925542
H    -2.863904  -1.500299  -0.149943
H    -1.399108  -2.361802  -0.735327
N    -1.788846  -1.377854  2.188873
C    -1.380658  -1.043714  3.562975
C    -0.569763  -2.186249  4.239585
O    0.703707  -2.033519  4.395004
H    -2.772303  -1.602318  2.050301
H    -0.652571  -0.218690  3.495381
C    -2.561964  -0.511535  4.410879
C    -2.956354  0.944387  4.089361
C    -4.064230  1.446129  5.035831
N    -4.397455  2.845176  4.760489
C    -5.553510  3.461379  5.104195
N    -6.455989  2.844247  5.872113
N    -5.794820  4.690987  4.639238
H    -2.258722  -0.581638  5.466966
H    -3.432325  -1.174719  4.299143
H    -3.300057  1.037519  3.048355
H    -2.069787  1.589956  4.198462
H    -3.735405  1.328539  6.083019
H    -4.976030  0.846296  4.898239
H    -3.641065  3.457218  4.467031
H    -7.381280  3.241838  6.004593
H    -6.199634  2.090058  6.498006
H    -6.539561  5.264658  5.023706
H    -5.269212  5.086042  3.866928
N    -1.091240  -3.300391  4.715991
C    -2.485093  -3.736123  4.839181
H    -0.394517  -3.929971  5.128362
H    -2.917319  -3.393252  5.788855
H    -2.488362  -4.831788  4.834804
H    -3.086127  -3.384323  3.996534
Hg    1.647234  -1.140005  2.619973
