37
Energy: -574593.7120183  eV PBE+vdW (tier 2 basis)
C    0.323229  0.394168  -0.037555
C    0.455538  -0.158444  1.345385
O    1.646962  -0.474601  1.692169
H    1.051462  1.208501  -0.168281
H    -0.684443  0.770658  -0.247981
H    0.595742  -0.388637  -0.761176
N    -0.649504  -0.283748  2.104804
C    -0.774445  -0.456619  3.571680
C    -0.862920  -1.958864  3.953271
O    0.193972  -2.626373  4.265468
H    -1.510985  -0.026664  1.624170
H    0.159241  -0.092009  4.031431
C    -1.919256  0.446803  4.087922
C    -2.004761  0.580171  5.621075
C    -3.087912  1.597645  6.031566
N    -3.145120  1.751659  7.486257
C    -3.613561  2.838946  8.143460
N    -3.425207  2.930112  9.463192
N    -4.231350  3.823519  7.483896
H    -2.885245  0.111258  3.670929
H    -1.739431  1.440319  3.649160
H    -1.035123  0.912839  6.021196
H    -2.226003  -0.395825  6.082089
H    -4.069102  1.281187  5.637558
H    -2.851785  2.580116  5.597393
H    -2.989945  0.924082  8.054817
H    -2.749099  2.352330  9.950590
H    -3.930292  3.610699  10.022607
H    -4.439419  4.703847  7.945880
H    -4.686799  3.667668  6.592542
N    -2.025955  -2.573786  3.975052
C    -2.226378  -4.003697  4.258852
H    -2.861832  -2.011110  3.824882
H    -1.342143  -4.566807  3.946640
H    -3.109638  -4.342104  3.708053
H    -2.388310  -4.154903  5.334516
Hg    2.018818  -1.849335  3.337487
