37
Energy: -574593.5378251  eV PBE+vdW (tier 2 basis)
C    1.033805  0.380639  0.625712
C    0.261718  -0.267579  1.732027
O    0.388466  -1.544275  1.793813
H    2.099475  0.390886  0.906180
H    0.698414  1.401204  0.409260
H    0.959125  -0.235982  -0.280259
N    -0.459500  0.516890  2.551187
C    -1.555706  0.273175  3.542698
C    -1.059355  -0.163728  4.946553
O    -0.771251  -1.382407  5.269686
H    -0.335920  1.505326  2.339554
H    -1.965269  1.282175  3.690773
C    -2.726603  -0.600092  3.026956
C    -3.552821  0.065469  1.906800
C    -4.764718  -0.800698  1.499302
N    -5.515527  -0.236179  0.374169
C    -6.841066  0.039657  0.334975
N    -7.468886  0.043489  -0.843012
N    -7.523313  0.314907  1.452310
H    -3.370773  -0.803777  3.896730
H    -2.371518  -1.584888  2.681039
H    -2.921634  0.237705  1.021596
H    -3.904510  1.054388  2.239264
H    -5.451775  -0.937051  2.344045
H    -4.428985  -1.809744  1.212224
H    -5.059030  -0.269941  -0.533329
H    -8.383555  0.471158  -0.953237
H    -7.084170  -0.420422  -1.659268
H    -8.537715  0.355161  1.442937
H    -7.065382  0.645804  2.291480
N    -1.016745  0.747424  5.896935
C    -0.604953  0.512528  7.287924
H    -1.353661  1.684632  5.677390
H    -0.116843  1.420253  7.658020
H    0.078846  -0.339429  7.332997
H    -1.489272  0.301652  7.905505
Hg    0.010607  -2.568331  3.654066
