37
Energy: -574593.3264466  eV PBE+vdW (tier 2 basis)
C    -2.122151  -0.901920  -0.026532
C    -1.821581  -0.784931  1.435488
O    -1.393440  -1.864403  1.979875
H    -2.639163  -1.852371  -0.216856
H    -1.168143  -0.950783  -0.575473
H    -2.726424  -0.070403  -0.407446
N    -2.008632  0.406895  2.028975
C    -2.083981  0.864058  3.450083
C    -0.700486  1.043254  4.117671
O    -0.103067  0.090707  4.764153
H    -2.303518  1.121288  1.366286
H    -2.492186  1.877389  3.352530
C    -3.087371  0.082640  4.338353
C    -4.546615  0.259049  3.870073
C    -5.611719  -0.547129  4.640655
N    -6.025472  0.060297  5.909071
C    -7.272821  -0.012103  6.434279
N    -7.586835  0.768881  7.472934
N    -8.189100  -0.834040  5.916111
H    -2.947455  0.455600  5.364880
H    -2.844254  -0.991445  4.371137
H    -4.627188  -0.066119  2.822539
H    -4.824001  1.324436  3.883974
H    -5.267239  -1.582914  4.801322
H    -6.503666  -0.595817  4.002657
H    -5.311709  0.427341  6.530024
H    -8.425002  0.602975  8.021768
H    -7.045194  1.592980  7.707925
H    -9.165383  -0.757749  6.186084
H    -7.935348  -1.652528  5.375759
N    -0.098596  2.216960  4.145435
C    -0.522392  3.550199  3.707444
H    0.808573  2.193656  4.626281
H    -0.702671  4.183895  4.586304
H    -1.419640  3.512091  3.085798
H    0.297327  3.990855  3.124602
Hg    -0.252454  -1.848789  3.821835
