37
Energy: -574593.4185863  eV PBE+vdW (tier 2 basis)
C    -1.551233  0.209048  0.621538
C    -0.931099  -0.303373  1.883071
O    -0.277153  -1.399744  1.747437
H    -2.019227  -0.628258  0.084514
H    -0.751435  0.590261  -0.033027
H    -2.296399  0.992958  0.798490
N    -1.091431  0.409634  3.012209
C    -0.938320  0.104436  4.473113
C    0.519379  0.294180  4.978822
O    1.431471  -0.612691  4.896557
H    -1.590540  1.281438  2.844591
H    -1.519729  0.909328  4.943750
C    -1.582960  -1.236149  4.900910
C    -1.931272  -1.352836  6.405682
C    -3.378200  -0.922483  6.740152
N    -3.708478  -1.060698  8.159390
C    -4.617630  -1.903664  8.704810
N    -5.139834  -1.612205  9.897641
N    -4.996581  -3.015731  8.064787
H    -0.929403  -2.083841  4.635558
H    -2.484844  -1.372154  4.286136
H    -1.219523  -0.779921  7.020905
H    -1.795696  -2.399186  6.710232
H    -4.099070  -1.513773  6.160025
H    -3.553425  0.128055  6.460157
H    -3.344172  -0.350924  8.788142
H    -5.106511  -0.675425  10.285933
H    -5.633977  -2.311965  10.443420
H    -5.794315  -3.553164  8.390246
H    -4.416861  -3.452739  7.360060
N    0.825782  1.428668  5.576214
C    2.153381  1.788112  6.095454
H    0.078267  2.104416  5.729654
H    2.924935  1.243658  5.544215
H    2.219886  1.530213  7.161349
H    2.286229  2.868717  5.978111
Hg    1.222992  -1.942196  3.194750
