37
Energy: -574593.4093484  eV PBE+vdW (tier 2 basis)
C    -2.556877  -0.483964  0.090179
C    -2.041686  -0.518810  1.495881
O    -1.534961  -1.642425  1.849355
H    -3.202429  0.379442  -0.108077
H    -3.105211  -1.412264  -0.119764
H    -1.695257  -0.468519  -0.595976
N    -2.141043  0.599315  2.235359
C    -1.979805  0.904067  3.688785
C    -0.503758  1.027446  4.137365
O    0.183871  0.021305  4.580601
H    -2.533051  1.375251  1.705804
H    -2.390429  1.917782  3.769443
C    -2.820334  0.019923  4.644190
C    -4.336718  0.287740  4.553356
C    -5.130709  -0.569478  5.562188
N    -6.579836  -0.379133  5.449907
C    -7.443713  -0.081369  6.449883
N    -8.724258  -0.438763  6.328862
N    -7.036779  0.569741  7.545167
H    -2.464865  0.228329  5.665240
H    -2.628295  -1.051306  4.471078
H    -4.698768  0.071585  3.536334
H    -4.539488  1.353493  4.740537
H    -4.826974  -0.344289  6.592144
H    -4.912222  -1.637873  5.405347
H    -7.014405  -0.729301  4.600350
H    -9.443064  -0.038148  6.924242
H    -9.024141  -1.156118  5.677065
H    -7.641500  0.645233  8.357131
H    -6.198664  1.136349  7.551478
N    0.101993  2.198372  4.187874
C    -0.381477  3.563593  3.961633
H    1.072600  2.136752  4.517549
H    -0.458834  4.090511  4.922310
H    -1.346095  3.576668  3.449421
H    0.358374  4.083757  3.339421
Hg    -0.141192  -1.820895  3.501340
