37
Energy: -574592.6700263  eV PBE+vdW (tier 2 basis)
C    -1.019696  0.105040  -0.650842
C    -0.317134  -0.192369  0.625309
O    0.933744  0.063426  0.678757
H    -0.510041  0.951028  -1.132927
H    -2.073845  0.349055  -0.499591
H    -0.917025  -0.751129  -1.336422
N    -0.928992  -0.649303  1.750002
C    -1.841320  -1.795513  1.887893
C    -0.941300  -3.050775  1.646665
O    0.072121  -2.938625  0.879582
H    -0.331271  -0.531571  2.572005
H    -2.127387  -1.789978  2.950814
C    -3.148536  -1.795758  1.058905
C    -4.104210  -0.655731  1.475562
C    -5.593447  -0.845022  1.142351
N    -5.932569  -0.627252  -0.269036
C    -7.154081  -0.889583  -0.806183
N    -7.344828  -0.671477  -2.112312
N    -8.138753  -1.381892  -0.055379
H    -3.634393  -2.763243  1.254811
H    -2.931259  -1.791965  -0.016943
H    -3.755878  0.315419  1.090093
H    -4.071203  -0.547943  2.570254
H    -6.159255  -0.134346  1.770374
H    -5.917992  -1.860071  1.418782
H    -5.372195  0.051366  -0.778568
H    -8.273333  -0.703816  -2.524539
H    -6.573173  -0.505171  -2.749260
H    -9.008159  -1.697899  -0.476152
H    -8.132064  -1.313077  0.955718
N    -1.210778  -4.218208  2.216453
C    -2.344754  -4.630389  3.037006
H    -0.513731  -4.943979  2.019681
H    -3.021730  -5.267549  2.447798
H    -2.894477  -3.766755  3.421481
H    -1.968689  -5.225918  3.878813
Hg    2.127640  -1.795391  1.178900
