37
Energy: -574593.5206638  eV PBE+vdW (tier 2 basis)
C    -1.332806  -2.946034  -0.354907
C    -0.875055  -2.026824  0.733568
O    0.309107  -1.567460  0.593675
H    -1.263706  -2.419349  -1.318444
H    -2.362137  -3.293204  -0.204720
H    -0.649465  -3.805098  -0.412184
N    -1.715872  -1.756218  1.750211
C    -1.609435  -0.696427  2.768994
C    -0.723489  -1.123333  3.972166
O    0.453878  -0.606966  4.087673
H    -2.618063  -2.224442  1.682226
H    -1.048178  0.138034  2.316537
C    -3.012993  -0.132612  3.099853
C    -3.014753  1.051174  4.086358
C    -4.413868  1.691824  4.178639
N    -4.412721  2.833143  5.095364
C    -5.503438  3.344821  5.714583
N    -6.729467  2.909690  5.410184
N    -5.335213  4.273856  6.660222
H    -3.669725  -0.933885  3.466944
H    -3.431635  0.195195  2.135453
H    -2.292799  1.812546  3.749234
H    -2.698099  0.729534  5.090167
H    -5.140105  0.955662  4.553588
H    -4.740137  2.006276  3.172238
H    -3.577191  3.411120  5.122417
H    -7.529165  3.178762  5.975790
H    -6.938222  2.480446  4.516582
H    -6.115219  4.827157  7.002248
H    -4.432787  4.445218  7.090362
N    -1.098638  -1.965141  4.916615
C    -2.378094  -2.643002  5.146307
H    -0.374319  -2.134157  5.621892
H    -2.852912  -2.926424  4.203433
H    -3.053145  -2.015299  5.743094
H    -2.168554  -3.556181  5.714079
Hg    1.466418  -0.501403  2.125558
