37
Energy: -574593.1036573  eV PBE+vdW (tier 2 basis)
C    -0.192503  1.958312  1.235784
C    -0.341428  0.633704  1.894592
O    0.635895  -0.155555  2.094252
H    0.398760  1.843087  0.317634
H    0.373109  2.622585  1.909947
H    -1.138441  2.448283  0.990126
N    -1.533927  0.124916  2.302587
C    -2.892821  0.479314  1.912557
C    -3.691968  0.524220  3.295219
O    -4.246007  -0.503547  3.660139
H    -1.437885  -0.782161  2.773374
H    -2.893824  1.477854  1.460379
C    -3.517331  -0.568060  0.965134
C    -4.948733  -0.237512  0.503118
C    -5.544201  -1.398590  -0.313481
N    -6.908829  -1.094782  -0.744824
C    -7.591772  -1.737397  -1.724089
N    -8.775126  -1.245730  -2.110649
N    -7.088783  -2.827411  -2.303435
H    -3.505126  -1.541328  1.477583
H    -2.850650  -0.645089  0.092740
H    -4.952169  0.676086  -0.110059
H    -5.592329  -0.058830  1.377891
H    -5.543633  -2.315974  0.302772
H    -4.935445  -1.593902  -1.210160
H    -7.444915  -0.442729  -0.177071
H    -9.395079  -1.774073  -2.718625
H    -9.076400  -0.309086  -1.860678
H    -7.531705  -3.235966  -3.121415
H    -6.352204  -3.373357  -1.872130
N    -3.707514  1.675369  4.003605
C    -3.274941  3.012753  3.616675
H    -4.304143  1.617435  4.833403
H    -2.295266  2.992172  3.130369
H    -3.187988  3.609786  4.532574
H    -4.010266  3.510861  2.966521
Hg    2.841458  0.353468  2.573160
