37
Energy: -574593.0979844  eV PBE+vdW (tier 2 basis)
C    0.332154  1.301410  -0.436734
C    0.081616  0.739013  0.914578
O    1.096285  0.410545  1.623795
H    0.817052  2.286143  -0.356463
H    -0.577464  1.352554  -1.043872
H    1.063688  0.651535  -0.945048
N    -1.161052  0.517747  1.405011
C    -2.284826  1.458992  1.413293
C    -2.053706  2.376450  2.649882
O    -1.409794  1.972446  3.678230
H    -1.175886  -0.124276  2.200895
H    -2.236212  2.067447  0.498588
C    -3.614303  0.657171  1.458856
C    -4.907741  1.441251  1.170331
C    -6.104084  0.477018  1.040212
N    -7.337178  1.190306  0.703100
C    -8.593751  0.709002  0.872148
N    -9.630756  1.524381  0.650078
N    -8.797625  -0.546023  1.274867
H    -3.689112  0.152059  2.435266
H    -3.497543  -0.134452  0.703244
H    -4.796858  2.003397  0.228182
H    -5.124260  2.164930  1.970695
H    -6.264256  -0.050882  1.992218
H    -5.881437  -0.279366  0.266935
H    -7.254918  2.017280  0.117140
H    -9.518916  2.530441  0.579106
H    -10.580535  1.167960  0.589619
H    -9.725152  -0.863013  1.542139
H    -8.090563  -1.264588  1.174359
N    -2.592773  3.587937  2.649419
C    -2.468272  4.578435  3.721306
H    -3.183459  3.842372  1.858101
H    -2.403079  5.574826  3.270088
H    -1.579044  4.363968  4.319710
H    -3.352464  4.540560  4.374480
Hg    0.690113  0.957257  3.764995
