37
Energy: -574593.2004789  eV PBE+vdW (tier 2 basis)
C    -0.451253  -1.301721  0.311783
C    -0.378626  -0.152397  1.258035
O    0.655686  0.574683  1.407594
H    0.413058  -1.963521  0.456642
H    -0.407513  -0.911225  -0.719793
H    -1.372772  -1.886090  0.407282
N    -1.452407  0.121281  2.036333
C    -1.587860  1.224504  2.973386
C    -1.379635  0.697818  4.457766
O    -2.287113  0.807902  5.282342
H    -2.210511  -0.563403  2.012933
H    -0.771948  1.931816  2.759140
C    -2.969987  1.885058  2.835097
C    -3.065775  3.230877  3.603734
C    -4.442387  3.512519  4.202624
N    -4.723364  2.662939  5.354715
C    -5.874283  2.677934  6.077451
N    -5.996454  1.823632  7.100198
N    -6.855952  3.521303  5.770073
H    -3.734932  1.177372  3.186157
H    -3.163504  2.055471  1.768110
H    -2.835744  4.056486  2.918076
H    -2.318962  3.293175  4.407659
H    -5.243521  3.389094  3.451371
H    -4.464139  4.573402  4.519386
H    -3.967864  2.046446  5.665170
H    -6.811262  1.832517  7.708363
H    -5.280557  1.137770  7.314790
H    -7.730906  3.526983  6.287293
H    -6.753089  4.238123  5.061006
N    -0.182880  0.141839  4.734737
C    0.213227  -0.268552  6.076418
H    0.546127  0.183752  4.025065
H    0.944982  -1.080587  5.993420
H    -0.675871  -0.592819  6.628700
H    0.681982  0.563814  6.626416
Hg    2.195758  0.987260  -0.333152
