37
Energy: -574593.1829257  eV PBE+vdW (tier 2 basis)
C    1.186464  -0.996441  1.650549
C    0.497957  0.320925  1.825262
O    1.016531  1.413488  1.583841
H    0.729938  -1.522156  0.794573
H    1.078113  -1.644999  2.530142
H    2.244592  -0.828421  1.432972
N    -0.818011  0.270836  2.293382
C    -1.642315  1.374122  2.682745
C    -2.030161  2.327273  1.460776
O    -3.292900  2.416310  1.390196
H    -1.202372  -0.659398  2.465457
H    -2.608335  0.931821  2.960995
C    -1.250529  2.214006  3.964663
C    0.118996  2.881063  4.082455
C    0.235090  3.564254  5.479053
N    1.564908  4.114277  5.699361
C    2.238707  4.146550  6.879731
N    1.623725  3.851226  8.025995
N    3.535023  4.469910  6.866910
H    -1.381810  1.489122  4.783652
H    -2.058523  2.952684  4.078392
H    0.268556  3.640811  3.301778
H    0.931314  2.149018  3.994380
H    0.031559  2.830709  6.271411
H    -0.521002  4.364131  5.553356
H    1.989639  4.632952  4.933399
H    2.155460  3.732263  8.884201
H    0.618981  3.937298  8.131886
H    4.087337  4.449374  6.015320
H    4.028336  4.712576  7.722257
N    -1.106201  2.876568  0.712423
C    -1.324842  3.723577  -0.463781
H    -0.141837  2.570030  0.947298
H    -0.342692  3.993829  -0.866115
H    -1.846470  4.650919  -0.192573
H    -1.867120  3.179919  -1.250538
Hg    -4.733768  3.454874  -0.091721
