37
Energy: -574593.5172861  eV PBE+vdW (tier 2 basis)
C    -1.047006  -2.006186  -0.817254
C    -0.637928  -1.535819  0.543018
O    0.592447  -1.209988  0.657681
H    -0.448792  -2.887547  -1.088728
H    -0.809941  -1.222087  -1.551787
H    -2.115828  -2.244900  -0.874146
N    -1.564364  -1.489170  1.519194
C    -1.478011  -0.819676  2.829291
C    -0.783740  -1.707692  3.898672
O    0.412586  -1.400803  4.274960
H    -2.492275  -1.794743  1.230373
H    -0.791103  0.035307  2.715144
C    -2.850904  -0.212817  3.210476
C    -2.844486  0.632109  4.499319
C    -4.208354  1.316425  4.717512
N    -4.202989  2.138778  5.928839
C    -5.028722  3.184436  6.171707
N    -6.050529  3.453579  5.354413
N    -4.792289  3.964873  7.230718
H    -3.612777  -1.002260  3.276232
H    -3.135580  0.424679  2.358988
H    -2.063200  1.405053  4.443247
H    -2.610368  -0.001028  5.370729
H    -5.005010  0.554533  4.773134
H    -4.430295  1.973681  3.864043
H    -3.665869  1.804142  6.723865
H    -6.570571  4.321488  5.444108
H    -6.460460  2.745825  4.756803
H    -5.487088  4.625858  7.565278
H    -3.901877  3.956017  7.716419
N    -1.341049  -2.751673  4.482674
C    -2.691198  -3.311626  4.368798
H    -0.722862  -3.220358  5.152826
H    -3.371316  -2.846447  5.094746
H    -2.623740  -4.380552  4.599886
H    -3.082873  -3.203176  3.354315
Hg    1.657363  -0.827236  2.540508
