37
Energy: -574593.4566791  eV PBE+vdW (tier 2 basis)
C    -1.468328  -0.537593  -0.571625
C    -1.514397  -0.674445  0.917836
O    -1.238419  -1.851265  1.351129
H    -1.884400  0.412358  -0.926500
H    -2.023821  -1.371059  -1.025349
H    -0.424054  -0.639665  -0.904521
N    -1.820353  0.410047  1.650694
C    -2.263625  0.625516  3.065182
C    -1.090560  0.641655  4.075278
O    -0.677641  -0.427250  4.682304
H    -1.947116  1.237877  1.071250
H    -2.645749  1.652884  3.038557
C    -3.460770  -0.261542  3.485030
C    -4.202079  0.260346  4.732053
C    -5.498511  -0.531348  4.995713
N    -6.199237  -0.019694  6.174760
C    -7.535628  -0.071820  6.384500
N    -8.060375  0.616386  7.402206
N    -8.330095  -0.776477  5.572196
H    -3.160307  -1.310651  3.642407
H    -4.143459  -0.274964  2.622473
H    -4.460632  1.321488  4.593947
H    -3.548125  0.196454  5.616484
H    -5.269220  -1.603381  5.119592
H    -6.171334  -0.428063  4.132564
H    -5.635709  0.237971  6.980081
H    -9.006570  0.440346  7.726015
H    -7.548091  1.354680  7.872251
H    -9.339908  -0.683651  5.629754
H    -7.982372  -1.559308  5.031653
N    -0.502846  1.768506  4.427775
C    -0.779812  3.168073  4.091075
H    0.264114  1.632926  5.096854
H    -1.102359  3.703254  4.993822
H    -1.541344  3.261113  3.313826
H    0.153849  3.623042  3.733699
Hg    -0.615714  -2.164749  3.389031
