37
Energy: -574593.0225962  eV PBE+vdW (tier 2 basis)
C    0.106471  1.170084  -0.094234
C    -0.165120  0.620333  1.260656
O    0.751490  0.185453  2.027931
H    0.700261  2.092317  0.013393
H    -0.788591  1.406954  -0.675037
H    0.717653  0.453322  -0.659700
N    -1.413805  0.486965  1.781985
C    -2.706674  0.456862  1.106398
C    -3.668708  1.328303  2.026313
O    -4.382023  0.740574  2.830838
H    -1.406792  0.117474  2.738944
H    -2.609622  0.939291  0.126466
C    -3.272032  -0.972673  0.958278
C    -4.569231  -1.018279  0.128953
C    -5.234427  -2.399775  0.046580
N    -5.975045  -2.743548  1.263160
C    -6.577952  -3.937495  1.495436
N    -7.200334  -4.126950  2.665466
N    -6.535915  -4.908642  0.585156
H    -3.429244  -1.390021  1.963132
H    -2.498226  -1.580486  0.465837
H    -4.354162  -0.716917  -0.906243
H    -5.308190  -0.294234  0.505447
H    -4.487606  -3.187192  -0.146446
H    -5.929814  -2.388001  -0.812110
H    -6.243641  -1.975880  1.874999
H    -7.772743  -4.949627  2.835032
H    -7.106250  -3.475519  3.437657
H    -6.263508  -4.736360  -0.375618
H    -6.899268  -5.835381  0.788782
N    -3.657736  2.675637  1.899719
C    -3.063403  3.511357  0.865267
H    -4.360647  3.129754  2.489913
H    -2.939617  4.519283  1.281593
H    -3.720001  3.596007  -0.014736
H    -2.079931  3.140809  0.564805
Hg    2.940267  0.910262  2.219464
