37
Energy: -574593.2014034  eV PBE+vdW (tier 2 basis)
C    -0.017921  -1.442847  0.878705
C    -0.048210  -0.302463  1.832212
O    0.854485  -0.096704  2.700424
H    0.900007  -1.370410  0.274237
H    -0.870841  -1.487888  0.196602
H    0.040139  -2.385713  1.441051
N    -1.070090  0.597226  1.894045
C    -2.445783  0.473721  1.432456
C    -2.719035  1.812972  0.607420
O    -3.303748  2.738393  1.147656
H    -0.894519  1.350400  2.568587
H    -2.516183  -0.383444  0.750583
C    -3.458732  0.334524  2.588813
C    -4.890037  0.052712  2.095438
C    -5.944022  -0.082019  3.205114
N    -6.360994  1.210625  3.755608
C    -7.184206  1.367786  4.823167
N    -7.462724  2.606887  5.246126
N    -7.689697  0.308306  5.453341
H    -3.422138  1.250977  3.195797
H    -3.116524  -0.496482  3.223755
H    -4.906721  -0.897916  1.542918
H    -5.221973  0.822182  1.381466
H    -5.567984  -0.709355  4.029166
H    -6.821277  -0.595379  2.772392
H    -6.226758  2.030077  3.167368
H    -8.176818  2.779784  5.948268
H    -6.958964  3.418285  4.904112
H    -8.219503  0.413417  6.313825
H    -7.689825  -0.616070  5.037992
N    -2.245877  1.833642  -0.659985
C    -2.516375  2.933684  -1.577117
H    -1.879261  0.970998  -1.057411
H    -3.468357  2.785433  -2.113561
H    -1.711322  2.970612  -2.321352
H    -2.580810  3.867701  -1.006790
Hg    3.141381  -0.522673  2.554522
