37
Energy: -574592.5234718  eV PBE+vdW (tier 2 basis)
C    -0.314559  0.879100  1.323031
C    0.103202  -0.431563  1.880358
O    1.348988  -0.714567  1.841073
H    0.484970  1.603461  1.543443
H    -1.254538  1.239212  1.748041
H    -0.375523  0.825528  0.224779
N    -0.725107  -1.309059  2.519086
C    -1.978448  -1.926850  2.045594
C    -1.455576  -3.139140  1.205191
O    -0.513404  -2.899621  0.372942
H    -0.185747  -1.952690  3.104910
H    -2.485196  -2.295561  2.949153
C    -2.926372  -1.004176  1.248658
C    -4.324662  -1.603679  0.952787
C    -5.458222  -1.246246  1.930883
N    -6.002219  0.092190  1.666987
C    -6.934624  0.718931  2.430133
N    -7.332154  1.947717  2.083632
N    -7.424584  0.136469  3.525448
H    -2.445737  -0.736976  0.299024
H    -3.041004  -0.074028  1.822365
H    -4.281986  -2.699079  0.893026
H    -4.627095  -1.300344  -0.060259
H    -5.112647  -1.280000  2.976735
H    -6.257236  -1.999189  1.819013
H    -5.917116  0.433228  0.712183
H    -8.131185  2.391781  2.527874
H    -6.853352  2.489191  1.371529
H    -8.036465  0.645340  4.157231
H    -7.362786  -0.863438  3.674958
N    -1.926729  -4.370045  1.340581
C    -3.012112  -4.904546  2.160755
H    -1.442616  -5.058859  0.754577
H    -2.632328  -5.759457  2.736063
H    -3.819784  -5.267642  1.508912
H    -3.404831  -4.149282  2.845383
Hg    1.770997  -2.690524  0.814959
