37
Energy: -574592.9389163  eV PBE+vdW (tier 2 basis)
C    0.413521  1.254060  1.477356
C    -0.311397  0.603024  2.600042
O    0.208309  0.410526  3.745952
H    -0.214100  1.496301  0.617107
H    1.199433  0.559834  1.134860
H    0.916586  2.160038  1.838032
N    -1.587521  0.146830  2.520587
C    -2.717298  0.479535  1.633805
C    -2.357542  0.140099  0.141551
O    -2.255641  1.015151  -0.707419
H    -1.847273  -0.389530  3.354779
H    -3.490009  -0.241800  1.940766
C    -3.391808  1.865852  1.793765
C    -2.585013  3.135916  1.504524
C    -3.417849  4.426829  1.666403
N    -4.302038  4.682616  0.529504
C    -5.365836  5.528635  0.538331
N    -6.129836  5.610804  -0.556113
N    -5.658122  6.246149  1.622878
H    -3.778097  1.896889  2.824667
H    -4.280046  1.825052  1.144720
H    -2.146670  3.116595  0.496137
H    -1.747771  3.228493  2.211170
H    -2.709847  5.266984  1.779883
H    -4.030551  4.379836  2.579101
H    -3.954522  4.418220  -0.390214
H    -6.832839  6.337738  -0.658047
H    -6.063652  4.936434  -1.311270
H    -4.975416  6.423932  2.350530
H    -6.522307  6.777845  1.679935
N    -2.209384  -1.185965  -0.127317
C    -2.055362  -1.697292  -1.478831
H    -2.450564  -1.858479  0.600220
H    -1.516685  -0.961589  -2.087386
H    -3.037233  -1.879912  -1.950694
H    -1.527624  -2.658469  -1.431753
Hg    2.424265  -0.060013  4.284285
