37
Energy: -574592.9110318  eV PBE+vdW (tier 2 basis)
C    0.481237  1.507242  0.398038
C    0.387342  0.987639  1.786113
O    1.474549  0.751585  2.417758
H    1.214367  0.890401  -0.147016
H    0.895405  2.526999  0.398191
H    -0.476831  1.469396  -0.130271
N    -0.792407  0.713302  2.394675
C    -1.958875  1.603608  2.473934
C    -1.577869  2.646833  3.561079
O    -0.872924  2.280534  4.571808
H    -0.687140  0.139627  3.234508
H    -2.093567  2.094533  1.501642
C    -3.203159  0.748211  2.839352
C    -4.552804  1.484943  2.851604
C    -5.755509  0.623161  3.278370
N    -6.197299  -0.316667  2.241837
C    -7.087029  -1.323166  2.447036
N    -7.391420  -2.132443  1.426360
N    -7.627729  -1.523208  3.648918
H    -3.025523  0.294306  3.828035
H    -3.222125  -0.077503  2.112665
H    -4.761771  1.939505  1.869780
H    -4.525435  2.315894  3.571103
H    -6.582525  1.306753  3.536767
H    -5.505603  0.047124  4.182273
H    -6.097887  -0.014643  1.275476
H    -8.161161  -2.793279  1.485707
H    -6.854020  -2.140203  0.566060
H    -8.190576  -2.347897  3.837520
H    -7.640348  -0.802312  4.360968
N    -1.979107  3.909382  3.511754
C    -2.881541  4.590141  2.586501
H    -1.616638  4.484067  4.280596
H    -2.382991  5.499279  2.222432
H    -3.795425  4.896499  3.114465
H    -3.141958  3.952970  1.738984
Hg    1.305967  1.450680  4.559281
