37
Energy: -574593.1437599  eV PBE+vdW (tier 2 basis)
C    -0.405704  0.978841  -0.372487
C    -0.132711  0.816373  1.079916
O    1.039427  0.688764  1.556859
H    0.024315  1.938400  -0.702608
H    -1.466266  0.976592  -0.637055
H    0.105236  0.183433  -0.931745
N    -1.105435  0.746090  2.025536
C    -2.527934  0.462451  1.902562
C    -3.233434  1.722078  2.599648
O    -3.412384  1.696083  3.805904
H    -0.732310  0.715999  2.981424
H    -2.801531  0.440765  0.840420
C    -2.944117  -0.839596  2.618085
C    -4.449221  -1.143082  2.473719
C    -5.017805  -2.174997  3.459872
N    -4.670989  -3.562441  3.133269
C    -4.917339  -4.624728  3.943019
N    -4.559521  -5.846958  3.530492
N    -5.482390  -4.455542  5.137314
H    -2.684753  -0.739098  3.682515
H    -2.334038  -1.655665  2.204146
H    -4.691897  -1.438655  1.440558
H    -5.029415  -0.229079  2.664677
H    -6.116916  -2.065802  3.461526
H    -4.661747  -1.957316  4.478801
H    -4.529023  -3.781848  2.150077
H    -4.843801  -6.681443  4.035860
H    -3.971875  -5.989568  2.716269
H    -5.563905  -5.227257  5.792943
H    -5.964722  -3.601055  5.389956
N    -3.557056  2.750211  1.784838
C    -4.316384  3.903870  2.257012
H    -3.470609  2.623193  0.778691
H    -5.402189  3.723531  2.198610
H    -4.078607  4.760117  1.614071
H    -4.053188  4.099729  3.303400
Hg    3.012236  1.671163  0.829320
