37
Energy: -574593.5827621  eV PBE+vdW (tier 2 basis)
C    0.044107  -0.112032  -0.353752
C    0.219399  0.544257  0.978510
O    0.386259  1.812949  0.941080
H    -0.716264  0.437623  -0.927819
H    -0.250035  -1.164676  -0.271541
H    0.985307  -0.024643  -0.917725
N    0.193512  -0.219339  2.087540
C    0.017609  0.177451  3.503435
C    1.388313  0.422191  4.193018
O    1.897662  1.604461  4.251879
H    0.105633  -1.217526  1.900528
H    -0.492398  1.155237  3.515716
C    -0.919235  -0.833335  4.211320
C    -1.347096  -0.398568  5.627943
C    -2.155734  -1.438208  6.432502
N    -3.578050  -1.496966  6.083153
C    -4.574598  -1.813038  6.946322
N    -5.843426  -1.621594  6.571105
N    -4.302351  -2.289310  8.163675
H    -0.444791  -1.830274  4.240934
H    -1.795605  -0.943236  3.554315
H    -1.914058  0.543497  5.583966
H    -0.453495  -0.186661  6.234033
H    -2.096379  -1.146532  7.489226
H    -1.692768  -2.435632  6.339425
H    -3.840616  -1.477850  5.103078
H    -6.613837  -2.028986  7.092531
H    -6.088537  -1.009240  5.801169
H    -5.029664  -2.353651  8.869953
H    -3.425740  -2.749286  8.379098
N    2.047671  -0.574665  4.742991
C    3.372164  -0.472108  5.375433
H    1.587857  -1.482938  4.782977
H    3.939848  0.338269  4.909193
H    3.889934  -1.427592  5.244337
H    3.260753  -0.262860  6.448060
Hg    1.281650  2.902810  2.602387
