37
Energy: -574593.3808483  eV PBE+vdW (tier 2 basis)
C    1.170005  -0.033685  0.645909
C    0.695043  -0.160491  2.059041
O    1.262487  -0.814847  2.931076
H    1.659872  0.949057  0.533307
H    0.355809  -0.083341  -0.087935
H    1.913523  -0.810414  0.444534
N    -0.482984  0.540017  2.380336
C    -1.221589  0.418752  3.593791
C    -0.439439  1.136369  4.824594
O    -1.153937  2.054374  5.311835
H    -0.895244  1.111513  1.642263
H    -2.135410  1.013775  3.477757
C    -1.620251  -1.019008  4.071784
C    -2.676569  -1.653026  3.152867
C    -3.122526  -3.035818  3.703871
N    -4.101552  -3.649876  2.813715
C    -4.191163  -4.965236  2.484925
N    -3.484067  -5.885500  3.143388
N    -4.995934  -5.318545  1.478577
H    -2.018954  -0.921938  5.092254
H    -0.714313  -1.636758  4.129069
H    -2.278367  -1.785607  2.136770
H    -3.559212  -0.998472  3.081430
H    -3.554955  -2.912410  4.709839
H    -2.256324  -3.706309  3.781779
H    -4.873695  -3.063746  2.502293
H    -3.154744  -5.728560  4.089364
H    -3.442346  -6.844249  2.808232
H    -5.269254  -6.287095  1.334447
H    -5.348495  -4.643043  0.807596
N    0.751859  0.707954  5.155851
C    1.607766  1.241152  6.221282
H    1.126749  -0.031341  4.530454
H    2.527233  0.645705  6.232244
H    1.128444  1.135834  7.203695
H    1.887620  2.285158  6.023239
Hg    -0.776036  3.590939  7.008555
