37
Energy: -574593.2542366  eV PBE+vdW (tier 2 basis)
C    -0.127064  0.420587  -0.056884
C    -0.242170  -0.818865  0.773328
O    0.515386  -1.786573  0.398340
H    -0.960762  1.116328  0.092227
H    -0.061567  0.143307  -1.117839
H    0.823484  0.919415  0.192175
N    -1.089028  -0.810536  1.817045
C    -1.705798  -1.867717  2.678996
C    -0.801696  -2.369429  3.829813
O    0.054761  -3.337165  3.692132
H    -1.526456  0.100421  1.943037
H    -2.514388  -1.318132  3.175413
C    -2.403595  -3.025952  1.917287
C    -3.629482  -2.542429  1.107055
C    -4.733526  -3.588719  0.846153
N    -4.498644  -4.460284  -0.309103
C    -5.479724  -5.020873  -1.058552
N    -5.156445  -5.627422  -2.205564
N    -6.756955  -4.954247  -0.675611
H    -2.727948  -3.741973  2.688912
H    -1.695381  -3.573239  1.275444
H    -3.323293  -2.084331  0.155647
H    -4.126644  -1.745036  1.680948
H    -5.658549  -3.033408  0.641548
H    -4.904027  -4.187198  1.757334
H    -3.568505  -4.837140  -0.456644
H    -5.819025  -6.225894  -2.689180
H    -4.277306  -5.448312  -2.676882
H    -7.504398  -5.206658  -1.315589
H    -7.024351  -4.806697  0.290453
N    -0.938837  -1.907153  5.056937
C    -1.902746  -0.977573  5.656172
H    -0.293314  -2.343576  5.726075
H    -2.647854  -1.540047  6.235540
H    -2.399347  -0.361259  4.902942
H    -1.351797  -0.321803  6.342503
Hg    1.081990  -3.317415  1.808389
