37
Energy: -574592.8320163  eV PBE+vdW (tier 2 basis)
C    0.151641  0.822732  -0.173938
C    0.219376  0.459155  1.272736
O    1.245360  0.488217  1.959711
H    -0.366266  0.059376  -0.771203
H    1.162139  0.980741  -0.560049
H    -0.417461  1.761544  -0.284697
N    -0.987594  0.065973  1.864598
C    -1.175387  -0.483790  3.167406
C    -0.863329  0.575023  4.352286
O    -1.861144  0.641245  5.122647
H    -1.821225  0.125196  1.276822
H    -2.255579  -0.628998  3.278645
C    -0.562585  -1.910236  3.488840
C    0.823170  -2.371267  3.025858
C    2.009451  -2.142943  3.991362
N    3.276088  -2.635945  3.456754
C    3.937923  -3.767684  3.806902
N    3.344263  -4.717617  4.533058
N    5.207316  -3.912720  3.416622
H    -1.290462  -2.566598  2.986308
H    -0.709120  -2.075295  4.566544
H    1.068501  -1.980905  2.029521
H    0.729006  -3.460705  2.877354
H    1.826880  -2.616749  4.965143
H    2.150532  -1.070342  4.184461
H    3.726379  -2.061695  2.748015
H    3.879922  -5.491974  4.915142
H    2.337887  -4.786059  4.616174
H    5.763600  -3.129527  3.087735
H    5.688977  -4.804028  3.500397
N    0.283019  1.206554  4.391167
C    0.661464  2.254069  5.345720
H    0.896551  1.002540  3.575306
H    1.667632  2.595937  5.082272
H    0.686995  1.863126  6.370475
H    -0.010797  3.121224  5.273277
Hg    -2.455833  2.025354  6.887840
