37
Energy: -574593.0652582  eV PBE+vdW (tier 2 basis)
C    -0.485539  0.339886  0.472629
C    -0.151238  0.060761  1.900358
O    0.952670  -0.478518  2.276653
H    -0.414465  -0.591364  -0.107864
H    0.240200  1.061789  0.064739
H    -1.489997  0.756194  0.343514
N    -1.040734  0.351831  2.853543
C    -0.873312  0.008519  4.273466
C    -2.213315  -0.620667  4.729563
O    -3.258448  -0.077008  4.333068
H    -1.982830  0.625439  2.565040
H    -0.059353  -0.728061  4.323716
C    -0.502962  1.224035  5.179018
C    -1.609268  2.075129  5.825121
C    -2.381743  3.022681  4.866147
N    -3.378063  3.818545  5.566922
C    -4.707231  3.555079  5.652244
N    -5.504420  4.481194  6.194474
N    -5.202482  2.402336  5.200403
H    0.191554  1.859435  4.610235
H    0.082720  0.802062  6.009501
H    -1.120623  2.701577  6.585198
H    -2.320858  1.441454  6.374356
H    -2.884576  2.479166  4.058357
H    -1.676410  3.726389  4.400030
H    -3.042162  4.628644  6.085299
H    -6.486070  4.295308  6.383581
H    -5.185762  5.430128  6.370699
H    -4.608674  1.616044  4.948884
H    -6.205726  2.257461  5.139556
N    -2.167302  -1.677473  5.552110
C    -3.338669  -2.384628  6.054583
H    -1.255149  -2.075121  5.772793
H    -3.469202  -3.336434  5.514982
H    -4.230106  -1.769062  5.909599
H    -3.187664  -2.618193  7.116886
Hg    2.774546  -0.705122  0.926625
