37
Energy: -574593.4602941  eV PBE+vdW (tier 2 basis)
C    -1.504563  -2.919345  -0.256482
C    -1.027231  -1.977065  0.803378
O    0.093255  -1.411233  0.561708
H    -0.762330  -3.719622  -0.387378
H    -1.563014  -2.380118  -1.213635
H    -2.485346  -3.350640  -0.022661
N    -1.786302  -1.796182  1.900594
C    -1.671520  -0.746053  2.928835
C    -0.636428  -1.111957  4.028124
O    0.494479  -0.488860  4.046056
H    -2.646814  -2.341498  1.908883
H    -1.233503  0.141506  2.442868
C    -3.077530  -0.315347  3.414284
C    -3.082056  0.877021  4.390753
C    -4.523356  1.291628  4.754944
N    -4.552816  2.401573  5.712687
C    -5.412186  3.451029  5.721723
N    -5.997141  3.879716  4.599425
N    -5.659839  4.071965  6.877607
H    -3.607019  -1.171208  3.856265
H    -3.633691  -0.044846  2.503163
H    -2.558411  1.737893  3.948861
H    -2.538706  0.617630  5.313910
H    -5.068079  0.434972  5.185416
H    -5.074616  1.583492  3.853208
H    -4.063501  2.247246  6.590467
H    -6.745742  4.564757  4.634389
H    -5.631369  3.658775  3.682311
H    -6.105055  4.984680  6.902418
H    -5.467243  3.638780  7.774531
N    -0.836911  -2.005622  4.978262
C    -2.017102  -2.810419  5.308730
H    -0.033141  -2.120247  5.604071
H    -2.683669  -2.267945  5.992262
H    -1.665773  -3.713875  5.819263
H    -2.557731  -3.112499  4.408099
Hg    1.298001  -0.271086  2.000665
