37
Energy: -574592.7435800  eV PBE+vdW (tier 2 basis)
C    -2.365810  1.730790  0.303275
C    -1.154830  1.097833  0.890343
O    -0.016925  1.498857  0.464821
H    -3.194882  1.777905  1.013813
H    -2.668718  1.180096  -0.601327
H    -2.100766  2.745716  -0.023352
N    -1.182359  0.180571  1.891596
C    -1.987201  -1.047607  1.957532
C    -1.442197  -1.950166  0.789395
O    -0.891290  -1.395419  -0.208696
H    -0.260845  0.065554  2.320516
H    -1.685901  -1.520145  2.904654
C    -3.529616  -0.913449  1.985109
C    -4.024268  -0.147892  3.233276
C    -5.463364  -0.429281  3.694738
N    -6.502999  0.181834  2.858829
C    -7.833098  -0.066350  2.997196
N    -8.690553  0.525479  2.157700
N    -8.276711  -0.904611  3.932841
H    -3.925520  -1.940458  2.011840
H    -3.905211  -0.478547  1.049901
H    -3.874190  0.936752  3.115022
H    -3.395516  -0.424493  4.092967
H    -5.551688  -0.048870  4.728168
H    -5.645730  -1.514703  3.727475
H    -6.269985  1.056083  2.394448
H    -9.694003  0.494280  2.316972
H    -8.381587  0.992702  1.312027
H    -9.251201  -1.191803  3.958150
H    -7.715728  -1.160923  4.737144
N    -1.582099  -3.267141  0.886009
C    -1.054701  -4.255750  -0.051978
H    -2.098935  -3.637382  1.684967
H    -0.367983  -4.932135  0.477235
H    -0.547841  -3.751674  -0.876631
H    -1.889148  -4.857412  -0.442327
Hg    1.176368  -0.199578  -0.426132
