37
Energy: -574593.2904944  eV PBE+vdW (tier 2 basis)
C    -0.633275  -1.141224  0.901548
C    -0.268251  0.167276  1.505449
O    0.747760  0.332480  2.248119
H    0.185650  -1.460744  0.237592
H    -1.557808  -1.129282  0.318518
H    -0.719642  -1.896811  1.694898
N    -1.013992  1.297337  1.356579
C    -2.416332  1.454556  0.994821
C    -2.397783  2.556261  -0.162576
O    -2.611650  3.722126  0.123484
H    -0.577805  2.119288  1.790211
H    -2.790484  0.508522  0.583283
C    -3.275120  1.924372  2.187429
C    -4.780269  2.036411  1.883059
C    -5.539980  2.622108  3.087272
N    -6.971652  2.730879  2.805819
C    -7.951738  2.869016  3.731624
N    -9.227383  2.786229  3.335430
N    -7.653085  3.065591  5.016253
H    -2.887365  2.898412  2.521977
H    -3.111169  1.204876  3.003821
H    -5.196076  1.047124  1.639463
H    -4.938927  2.691898  1.013387
H    -5.129034  3.618951  3.329054
H    -5.412689  1.980576  3.972921
H    -7.250606  2.854493  1.835358
H    -9.485868  2.405415  2.430741
H    -9.991269  3.049928  3.951772
H    -8.374659  3.034388  5.730669
H    -6.745860  3.408879  5.309210
N    -2.102665  2.106675  -1.404761
C    -2.151124  2.974283  -2.575235
H    -2.059611  1.102145  -1.563450
H    -3.167842  3.025698  -2.998479
H    -1.485013  2.560019  -3.341659
H    -1.848473  3.986698  -2.281602
Hg    2.830815  -0.704708  2.131968
