37
Energy: -574593.5826509  eV PBE+vdW (tier 2 basis)
C    -0.976666  -0.089306  0.293053
C    -0.543758  -0.379805  1.694823
O    0.094009  -1.487283  1.835967
H    -1.377071  -1.008545  -0.157993
H    -0.088514  0.185151  -0.298500
H    -1.727890  0.706369  0.233368
N    -0.829568  0.516656  2.655366
C    -0.905699  0.466201  4.154553
C    0.455228  0.723376  4.854781
O    1.342044  -0.192808  5.065999
H    -1.278302  1.348907  2.276103
H    -1.520267  1.348116  4.382931
C    -1.688225  -0.754967  4.696084
C    -2.186161  -0.568534  6.143362
C    -3.121839  -1.715039  6.576396
N    -3.600505  -1.516559  7.945440
C    -4.781374  -1.955176  8.441397
N    -5.184492  -1.520232  9.638285
N    -5.553159  -2.789536  7.736922
H    -1.097416  -1.684139  4.623537
H    -2.544688  -0.895394  4.020124
H    -2.734040  0.382684  6.227253
H    -1.330194  -0.513357  6.835155
H    -2.601719  -2.683770  6.486032
H    -3.998517  -1.740017  5.913619
H    -2.932201  -1.178490  8.631997
H    -4.774389  -0.704028  10.078705
H    -5.937901  -1.979553  10.140735
H    -6.504869  -2.985439  8.032654
H    -5.168457  -3.404471  7.029924
N    0.689733  1.932736  5.321259
C    1.918806  2.367509  5.998919
H    -0.055373  2.625267  5.247147
H    2.126604  3.401170  5.701391
H    2.747460  1.711723  5.719404
H    1.775700  2.330549  7.087654
Hg    1.364668  -1.724969  3.546155
