37
Energy: -574592.9213535  eV PBE+vdW (tier 2 basis)
C    0.643784  -0.613832  1.790867
C    -0.103832  0.612137  2.169211
O    0.448397  1.746556  2.350841
H    1.156820  -0.451514  0.832153
H    0.018310  -1.508910  1.738035
H    1.427530  -0.788593  2.544860
N    -1.450010  0.654629  2.329747
C    -2.516836  -0.211064  1.804836
C    -2.574924  -1.511266  2.706117
O    -2.089420  -2.548501  2.266187
H    -1.763101  1.551382  2.713655
H    -3.439008  0.360658  1.974408
C    -2.440672  -0.570440  0.306043
C    -3.806093  -1.062382  -0.216455
C    -3.882843  -1.343510  -1.728028
N    -3.443110  -2.693139  -2.093866
C    -3.778914  -3.335523  -3.239942
N    -3.505417  -4.641760  -3.353535
N    -4.377031  -2.681108  -4.234238
H    -1.656536  -1.322499  0.146011
H    -2.150784  0.341840  -0.235986
H    -4.557494  -0.282589  -0.021217
H    -4.144219  -1.955290  0.330864
H    -3.295936  -0.591739  -2.285763
H    -4.930548  -1.240361  -2.047886
H    -2.825666  -3.191504  -1.459043
H    -3.606257  -5.126361  -4.241248
H    -3.293070  -5.218953  -2.546422
H    -4.759198  -3.177748  -5.034077
H    -4.389240  -1.669189  -4.286638
N    -3.147006  -1.434653  3.931969
C    -3.983998  -0.397633  4.520497
H    -3.180714  -2.344324  4.402303
H    -3.747218  0.595172  4.129980
H    -5.051879  -0.614641  4.362479
H    -3.806445  -0.395071  5.605298
Hg    2.543140  2.224760  3.210986
