37
Energy: -574593.7202237  eV PBE+vdW (tier 2 basis)
C    0.172574  -0.535172  0.089174
C    -0.167913  -0.999404  1.469662
O    0.415592  -2.075066  1.842408
H    -0.256295  -1.244896  -0.635066
H    1.262731  -0.573761  -0.046508
H    -0.189788  0.477506  -0.120396
N    -1.041244  -0.279080  2.198698
C    -1.330390  -0.325523  3.649407
C    -2.494800  -1.304300  3.972221
O    -2.262117  -2.540217  4.259201
H    -1.450293  0.509139  1.699066
H    -0.447321  -0.754580  4.151788
C    -1.535354  1.099036  4.214942
C    -0.254817  1.957580  4.271149
C    -0.521292  3.315662  4.949948
N    0.712363  4.094875  5.069690
C    0.782387  5.440481  5.206144
N    1.975535  6.037777  5.135577
N    -0.324024  6.169866  5.378677
H    -1.933877  0.985514  5.234494
H    -2.310573  1.623075  3.628627
H    0.152101  2.131045  3.264192
H    0.514034  1.412798  4.842670
H    -0.969926  3.150066  5.944682
H    -1.234748  3.899592  4.350169
H    1.567612  3.585981  5.275182
H    2.791304  5.565454  4.761549
H    2.102491  7.000770  5.431863
H    -0.288188  7.183572  5.325997
H    -1.172715  5.772033  5.762696
N    -3.741032  -0.885052  3.990604
C    -4.915455  -1.727377  4.270939
H    -3.910464  0.113240  3.878543
H    -5.118265  -1.735885  5.350535
H    -4.724578  -2.749598  3.931823
H    -5.774936  -1.302972  3.742979
Hg    -0.399318  -3.322180  3.441675
