37
Energy: -574593.1547950  eV PBE+vdW (tier 2 basis)
C    -2.269487  -3.234600  1.561504
C    -1.277984  -2.138262  1.733005
O    -0.202036  -2.259952  2.386048
H    -1.738725  -4.163699  1.310157
H    -3.023135  -3.046157  0.791289
H    -2.782103  -3.411297  2.520067
N    -1.483356  -0.875251  1.244068
C    -2.749715  -0.246828  0.897259
C    -2.557794  0.483684  -0.503575
O    -2.869104  1.658823  -0.624921
H    -0.688805  -0.252146  1.416007
H    -3.490824  -1.042190  0.739680
C    -3.330281  0.729268  1.947369
C    -2.438472  1.903402  2.377992
C    -3.179196  2.968933  3.205440
N    -4.006367  3.844265  2.372785
C    -4.922897  4.729252  2.842186
N    -5.648608  5.430919  1.963905
N    -5.112010  4.881999  4.152166
H    -3.607486  0.124129  2.824163
H    -4.272684  1.096379  1.516675
H    -1.974380  2.397490  1.510210
H    -1.610029  1.546011  3.007169
H    -2.420610  3.572500  3.735356
H    -3.821411  2.497799  3.965963
H    -3.718472  3.965024  1.403860
H    -5.664087  5.203771  0.975169
H    -6.241785  6.200883  2.261105
H    -5.871925  5.454659  4.508646
H    -4.436609  4.559656  4.835461
N    -2.068462  -0.277404  -1.510964
C    -1.987350  0.196680  -2.885623
H    -1.965270  -1.277795  -1.352630
H    -1.213770  -0.379640  -3.407388
H    -1.759229  1.268878  -2.885291
H    -2.942223  0.045345  -3.417367
Hg    1.149118  -4.170102  2.681916
