37
Energy: -574593.2510787  eV PBE+vdW (tier 2 basis)
C    -0.485891  0.796361  -0.675054
C    -0.125612  0.516384  0.742157
O    1.053016  0.161812  1.099020
H    -0.032784  1.758920  -0.967036
H    -1.561042  0.867149  -0.860211
H    -0.062744  0.018254  -1.322895
N    -1.006173  0.577833  1.755835
C    -2.451542  0.706187  1.720804
C    -2.808788  1.448565  3.055387
O    -2.163953  1.183192  4.065299
H    -0.616424  0.460425  2.700759
H    -2.734596  1.308426  0.848367
C    -3.252447  -0.636455  1.655930
C    -3.047597  -1.624252  2.812771
C    -3.973864  -2.850145  2.666023
N    -3.821068  -3.773953  3.788618
C    -4.755566  -4.654287  4.223839
N    -4.552712  -5.286822  5.384937
N    -5.866199  -4.875817  3.518543
H    -2.986767  -1.099505  0.692065
H    -4.314498  -0.358759  1.574013
H    -3.257024  -1.140991  3.779474
H    -1.998805  -1.959293  2.845157
H    -3.751917  -3.370768  1.717786
H    -5.025360  -2.528033  2.632737
H    -2.896332  -3.862563  4.202859
H    -3.866757  -4.964459  6.060015
H    -5.117749  -6.086498  5.657279
H    -6.631277  -5.417903  3.909821
H    -5.920712  -4.674420  2.526848
N    -3.833924  2.328665  3.004360
C    -4.171543  3.208821  4.112928
H    -4.276384  2.516796  2.105501
H    -3.668140  4.185683  4.011888
H    -3.849345  2.746994  5.052303
H    -5.254415  3.390474  4.096289
Hg    3.012900  0.860804  0.171839
