37
Energy: -574593.5228855  eV PBE+vdW (tier 2 basis)
C    0.327580  -2.330368  1.870272
C    0.144303  -0.940386  2.390732
O    1.015617  -0.093497  1.993082
H    0.358914  -2.295651  0.770692
H    -0.472274  -3.009018  2.187575
H    1.304014  -2.712580  2.200527
N    -0.892589  -0.684732  3.214423
C    -1.501591  0.613745  3.568461
C    -0.906806  1.203923  4.877020
O    0.112558  1.992847  4.836735
H    -1.436002  -1.509316  3.460107
H    -1.188763  1.333949  2.793920
C    -3.050009  0.590849  3.430445
C    -3.913394  -0.444445  4.182846
C    -5.375351  -0.349228  3.688474
N    -6.249599  -1.291566  4.385951
C    -7.585056  -1.135213  4.565757
N    -8.232194  -1.981296  5.370820
N    -8.243696  -0.133957  3.974764
H    -3.234260  0.472699  2.351532
H    -3.392354  1.607242  3.677816
H    -3.918440  -0.283719  5.272236
H    -3.551203  -1.472135  4.013097
H    -5.402123  -0.523612  2.599376
H    -5.753919  0.665787  3.875751
H    -5.895070  -2.230344  4.546556
H    -7.742242  -2.580058  6.026490
H    -9.246155  -2.038768  5.371232
H    -9.201949  0.078933  4.236535
H    -7.906380  0.301187  3.124189
N    -1.440293  0.945788  6.050735
C    -0.940920  1.462494  7.335783
H    -2.300687  0.403332  6.067480
H    -1.366019  2.456075  7.531265
H    0.150078  1.538961  7.301931
H    -1.247348  0.771195  8.126217
Hg    1.337738  1.789824  3.043294
