37
Energy: -574592.9447451  eV PBE+vdW (tier 2 basis)
C    -0.402296  -2.092612  0.146592
C    0.084117  -1.947651  1.544058
O    1.198503  -2.505283  1.833974
H    -0.977360  -3.027695  0.050848
H    0.471306  -2.201549  -0.511317
H    -1.004584  -1.241125  -0.180235
N    -0.534401  -1.206698  2.500860
C    -1.946845  -1.255936  2.911081
C    -2.120016  -2.655121  3.602648
O    -1.362126  -3.612898  3.256393
H    0.088730  -1.024599  3.291314
H    -2.036692  -0.483899  3.690255
C    -3.022644  -0.974322  1.838369
C    -2.998600  0.474948  1.312753
C    -4.188948  0.770220  0.383080
N    -4.176302  2.167536  -0.055320
C    -4.895750  2.679225  -1.084195
N    -4.667551  3.941937  -1.463629
N    -5.799851  1.934887  -1.722060
H    -3.996113  -1.167363  2.315581
H    -2.952238  -1.701934  1.018704
H    -2.058274  0.678836  0.779164
H    -3.031714  1.167497  2.169404
H    -5.133911  0.551007  0.912158
H    -4.150020  0.128140  -0.510665
H    -3.714740  2.843911  0.547812
H    -3.842413  4.453413  -1.166643
H    -5.287619  4.419887  -2.111955
H    -6.242700  2.267913  -2.573612
H    -6.196519  1.098837  -1.309641
N    -3.071077  -2.799705  4.517863
C    -3.326205  -4.002781  5.306898
H    -3.691746  -2.008198  4.693710
H    -2.632229  -4.792600  5.014533
H    -4.360330  -4.333627  5.129682
H    -3.224877  -3.766106  6.375865
Hg    0.974455  -3.957367  3.550833
