37
Energy: -574593.5855915  eV PBE+vdW (tier 2 basis)
C    1.034390  -1.020345  0.558534
C    0.209929  -1.080590  1.806425
O    0.121396  -2.248614  2.331536
H    0.880179  -0.098669  -0.013764
H    0.805207  -1.891232  -0.070713
H    2.096102  -1.111592  0.838579
N    -0.335788  0.058878  2.265541
C    -1.415318  0.382106  3.251481
C    -0.944625  0.401315  4.729556
O    -0.855733  -0.648972  5.477901
H    -0.053752  0.866657  1.713416
H    -1.641701  1.431196  3.014991
C    -2.738330  -0.400369  3.059719
C    -3.488765  -0.033977  1.762808
C    -4.874365  -0.705194  1.693307
N    -5.581535  -0.322767  0.469682
C    -6.925583  -0.263627  0.318821
N    -7.431305  0.298730  -0.782358
N    -7.742105  -0.733911  1.267294
H    -3.368131  -0.163957  3.931492
H    -2.571031  -1.489114  3.093785
H    -2.892473  -0.331527  0.885911
H    -3.622294  1.057451  1.709032
H    -5.482488  -0.379636  2.549459
H    -4.768763  -1.801986  1.750603
H    -5.037384  -0.257446  -0.385880
H    -8.406794  0.177096  -1.037109
H    -6.872824  0.888862  -1.389301
H    -8.739555  -0.546302  1.229680
H    -7.445334  -1.448104  1.921315
N    -0.710374  1.572318  5.286085
C    -0.289857  1.788640  6.677276
H    -0.894878  2.410202  4.734577
H    -1.170934  1.989985  7.302682
H    0.374274  2.659121  6.702684
H    0.224021  0.899186  7.051493
Hg    -0.339023  -2.460623  4.431758
