37
Energy: -574593.5467890  eV PBE+vdW (tier 2 basis)
C    -1.681661  1.978047  0.458260
C    -1.918954  0.698341  1.193756
O    -2.514673  -0.212732  0.519241
H    -1.071504  2.687130  1.029345
H    -2.652435  2.429150  0.204448
H    -1.181866  1.753584  -0.496082
N    -1.505595  0.594662  2.471950
C    -1.282871  -0.617014  3.295172
C    -2.537886  -0.968992  4.138915
O    -3.429908  -1.784659  3.691329
H    -1.102819  1.453305  2.845153
H    -1.152996  -1.467369  2.604887
C    0.051684  -0.477734  4.070261
C    0.478766  -1.764676  4.811324
C    1.993051  -1.936083  5.052593
N    2.537555  -1.137716  6.155052
C    3.575295  -1.519521  6.942386
N    4.280746  -2.618732  6.666651
N    3.871931  -0.789156  8.021947
H    0.004728  0.391164  4.749767
H    0.806691  -0.223135  3.310317
H    0.191614  -2.634126  4.199761
H    -0.056521  -1.876000  5.765296
H    2.545902  -1.736205  4.119100
H    2.154022  -2.990836  5.310384
H    2.312469  -0.148557  6.191683
H    4.929542  -3.002352  7.347775
H    4.325138  -3.012393  5.734071
H    3.211737  -0.133206  8.423522
H    4.748663  -0.915244  8.518588
N    -2.706195  -0.452081  5.336555
C    -3.875884  -0.678805  6.200918
H    -1.949675  0.111524  5.719641
H    -4.005468  0.199304  6.840714
H    -3.714284  -1.566968  6.826309
H    -4.764559  -0.833403  5.582054
Hg    -3.518780  -1.866512  1.509956
