37
Energy: -574593.1451189  eV PBE+vdW (tier 2 basis)
C    -0.128499  0.514206  -0.108316
C    -0.117142  0.152555  1.335142
O    0.922304  -0.301085  1.928718
H    0.437935  1.451877  -0.237341
H    -1.127371  0.670884  -0.524213
H    0.381831  -0.265643  -0.687465
N    -1.199321  0.237675  2.131628
C    -2.593107  0.451650  1.791734
C    -3.180016  1.219616  3.034940
O    -2.827757  0.867405  4.155228
H    -1.030271  0.054153  3.129465
H    -2.650682  1.068430  0.886542
C    -3.447085  -0.839992  1.558994
C    -3.374911  -1.907986  2.655602
C    -4.168984  -3.194190  2.339760
N    -5.599978  -3.080041  2.624624
C    -6.551005  -3.944883  2.180893
N    -7.831487  -3.700862  2.477035
N    -6.218948  -5.002718  1.440411
H    -3.101570  -1.254657  0.597181
H    -4.485140  -0.514824  1.386967
H    -3.692340  -1.513002  3.633835
H    -2.331989  -2.225942  2.797577
H    -3.733798  -4.003451  2.952397
H    -4.048056  -3.473765  1.282543
H    -5.858878  -2.527266  3.439214
H    -8.554405  -4.396228  2.314125
H    -8.137417  -2.809519  2.852267
H    -6.933398  -5.574502  0.998485
H    -5.277755  -5.378366  1.431745
N    -4.053067  2.215415  2.772176
C    -4.528466  3.131410  3.802535
H    -4.235370  2.465586  1.801510
H    -5.530830  3.478978  3.522365
H    -3.874011  4.015201  3.881906
H    -4.532793  2.615050  4.768759
Hg    3.094506  0.267807  1.526229
