37
Energy: -574593.0180247  eV PBE+vdW (tier 2 basis)
C    0.373208  0.610152  1.230365
C    -0.195824  0.497467  2.597184
O    0.373653  0.960564  3.637936
H    -0.220478  0.105655  0.463352
H    1.378133  0.158677  1.236571
H    0.504435  1.670475  0.970943
N    -1.391854  -0.086448  2.872405
C    -2.571972  -0.304253  2.025830
C    -2.294137  -1.581128  1.128564
O    -2.009564  -1.415030  -0.052122
H    -1.546671  -0.187001  3.880177
H    -3.376295  -0.555876  2.729824
C    -3.019288  0.904411  1.176038
C    -4.443192  0.742592  0.612317
C    -4.888843  2.006394  -0.163521
N    -6.290347  1.959394  -0.576408
C    -6.787752  1.982361  -1.837743
N    -8.071979  2.309570  -2.011518
N    -6.021101  1.682849  -2.888451
H    -2.306790  1.064765  0.356260
H    -2.980682  1.786235  1.833513
H    -5.152044  0.568070  1.436667
H    -4.501893  -0.128112  -0.056452
H    -4.262271  2.176096  -1.047891
H    -4.771317  2.895270  0.476846
H    -6.981918  2.033645  0.166793
H    -8.537142  2.173043  -2.904799
H    -8.607748  2.786208  -1.292470
H    -6.346250  1.849176  -3.836206
H    -5.146986  1.182022  -2.791291
N    -2.368271  -2.807926  1.698967
C    -2.919269  -3.222009  2.982516
H    -2.228282  -3.560990  1.018585
H    -2.343335  -4.089936  3.333489
H    -3.967634  -3.541465  2.878846
H    -2.846298  -2.434473  3.736669
Hg    2.640431  1.114212  4.105950
