37
Energy: -574593.0802615  eV PBE+vdW (tier 2 basis)
C    0.803098  0.791565  0.508086
C    0.106352  0.114730  1.631112
O    0.686538  -0.247468  2.704824
H    0.157538  0.990540  -0.351518
H    1.627974  0.142949  0.172033
H    1.259844  1.724981  0.866431
N    -1.224414  -0.159336  1.638924
C    -2.344743  0.443808  0.901015
C    -2.345433  -0.173028  -0.560296
O    -1.881896  0.471788  -1.490824
H    -1.491470  -0.740341  2.439428
H    -3.239039  0.075196  1.423565
C    -2.404457  1.984975  0.867395
C    -3.811324  2.478735  0.471915
C    -4.045578  3.996372  0.581191
N    -3.621311  4.742558  -0.607371
C    -4.065355  5.977432  -0.947446
N    -3.783202  6.453704  -2.167134
N    -4.776695  6.704110  -0.086549
H    -1.637712  2.366610  0.179283
H    -2.161298  2.344449  1.878223
H    -4.547228  2.018314  1.148176
H    -4.079401  2.145635  -0.542086
H    -3.539273  4.395289  1.478238
H    -5.123914  4.170996  0.711353
H    -2.925123  4.327167  -1.219607
H    -3.964783  7.423833  -2.409852
H    -3.483823  5.847558  -2.923857
H    -5.236672  7.561565  -0.378896
H    -4.809436  6.492187  0.903813
N    -2.865707  -1.417840  -0.672904
C    -3.050951  -2.079727  -1.955969
H    -3.330589  -1.827511  0.136129
H    -3.018350  -3.164628  -1.795041
H    -2.269928  -1.747790  -2.649758
H    -4.032732  -1.834446  -2.395260
Hg    2.845612  -1.044378  3.004172
