37
Energy: -574593.1814335  eV PBE+vdW (tier 2 basis)
C    -0.441522  0.201735  -0.287877
C    -0.458108  0.875052  1.035368
O    -0.037540  2.059497  1.228933
H    0.592355  0.211989  -0.668060
H    -1.045925  0.779006  -1.002364
H    -0.783514  -0.836252  -0.258468
N    -0.952466  0.304213  2.168141
C    -1.937501  -0.770145  2.352107
C    -1.186301  -2.149706  2.122619
O    -1.335590  -2.757407  1.072596
H    -0.759109  0.871793  2.998933
H    -2.212790  -0.709613  3.414692
C    -3.219469  -0.663477  1.499487
C    -4.351469  -1.574523  2.008697
C    -5.651220  -1.369122  1.192653
N    -6.795033  -2.090358  1.748874
C    -7.534793  -3.060157  1.157254
N    -8.749309  -3.326396  1.647791
N    -7.068194  -3.743967  0.109888
H    -2.984423  -0.903271  0.453728
H    -3.543960  0.387363  1.539568
H    -4.562159  -1.349427  3.065798
H    -4.055768  -2.632238  1.955189
H    -5.518364  -1.665260  0.144727
H    -5.917211  -0.300029  1.182383
H    -7.157951  -1.744708  2.634794
H    -9.266328  -4.153122  1.361398
H    -9.239346  -2.675402  2.253826
H    -7.676177  -4.354420  -0.427767
H    -6.083203  -3.767684  -0.121370
N    -0.390624  -2.558863  3.139412
C    0.280550  -3.850667  3.139114
H    -0.422064  -2.047418  4.020134
H    1.181370  -3.774144  3.760851
H    0.522177  -4.131305  2.107416
H    -0.361251  -4.636764  3.571308
Hg    1.735955  3.165380  0.205912
