37
Energy: -574592.9988114  eV PBE+vdW (tier 2 basis)
C    -0.018352  -0.561245  0.049597
C    -0.204882  -0.312738  1.501195
O    0.746010  -0.408574  2.344527
H    -0.926137  -0.464857  -0.544287
H    0.400879  -1.565486  -0.097895
H    0.719784  0.172241  -0.321414
N    -1.385370  0.032288  2.094305
C    -2.758308  -0.305127  1.738881
C    -2.917440  -1.884287  1.695980
O    -2.203238  -2.485025  0.896958
H    -1.250612  0.260753  3.083187
H    -3.343032  0.070577  2.588712
C    -3.291294  0.322866  0.420620
C    -4.825128  0.475867  0.425017
C    -5.323570  1.124073  -0.886718
N    -6.772367  1.319589  -0.859685
C    -7.604843  1.291856  -1.930260
N    -8.925008  1.300636  -1.717314
N    -7.121472  1.239549  -3.172941
H    -2.982388  -0.290300  -0.435733
H    -2.819347  1.310203  0.314543
H    -5.129606  1.106789  1.275477
H    -5.316447  -0.501577  0.543361
H    -5.082735  0.474521  -1.739788
H    -4.817656  2.092414  -1.039529
H    -7.177444  1.668721  0.006116
H    -9.581234  1.485121  -2.471220
H    -9.325334  1.089790  -0.808663
H    -6.183960  1.553866  -3.394792
H    -7.737330  1.069210  -3.962939
N    -3.803986  -2.475643  2.512233
C    -4.592812  -1.897150  3.599836
H    -3.794161  -3.495881  2.444181
H    -5.302008  -2.660801  3.936497
H    -5.166684  -1.026245  3.264206
H    -3.964680  -1.626952  4.461501
Hg    2.962310  -0.017371  1.944350
