37
Energy: -574592.9686070  eV PBE+vdW (tier 2 basis)
C    -2.135688  -1.073232  1.319832
C    -1.441595  -0.763633  2.607408
O    -0.698976  -1.595107  3.220402
H    -2.710951  -0.230291  0.922600
H    -2.828826  -1.914515  1.481754
H    -1.392288  -1.379994  0.570118
N    -1.587007  0.470166  3.135289
C    -0.898555  0.975672  4.331780
C    -1.848997  1.919161  5.120749
O    -1.531481  3.090254  5.359684
H    -2.070863  1.143304  2.541841
H    -0.688043  0.098299  4.962559
C    0.447951  1.667148  4.037989
C    0.399606  2.886667  3.086110
C    1.299969  4.056938  3.493672
N    0.800117  4.733186  4.685375
C    1.278603  5.899709  5.188250
N    0.620285  6.465774  6.208261
N    2.371094  6.463562  4.680621
H    1.128359  0.903746  3.637190
H    0.863566  1.943666  5.017604
H    -0.623735  3.281219  2.979895
H    0.713054  2.586811  2.077664
H    1.359052  4.785579  2.666061
H    2.332101  3.697680  3.674442
H    -0.014140  4.300999  5.140003
H    0.961164  7.310406  6.660636
H    -0.277512  6.113831  6.524651
H    2.706504  7.363716  5.012849
H    2.945255  6.003135  3.983660
N    -3.040311  1.446865  5.581870
C    -3.517212  0.086207  5.734866
H    -3.578813  2.165860  6.075451
H    -3.673899  -0.131641  6.802762
H    -2.816618  -0.638015  5.313873
H    -4.496368  -0.016569  5.238480
Hg    -0.623940  -3.882264  2.776703
