37
Energy: -574592.8450030  eV PBE+vdW (tier 2 basis)
C    0.293677  1.381844  0.179166
C    0.225368  0.102415  0.932264
O    1.130499  -0.785034  0.865396
H    -0.612391  1.985152  0.238938
H    0.520598  1.183627  -0.874867
H    1.128623  1.964648  0.610151
N    -0.771472  -0.234558  1.814442
C    -2.204071  -0.042294  1.670491
C    -2.665052  -0.488310  0.210002
O    -1.916985  -0.229096  -0.725303
H    -0.521802  -1.081653  2.332257
H    -2.643735  -0.755266  2.380999
C    -2.791531  1.367311  1.959852
C    -2.562510  1.805356  3.422341
C    -3.553198  2.848066  3.969150
N    -3.379807  4.200156  3.438008
C    -4.305956  5.191028  3.541745
N    -4.061541  6.365627  2.952158
N    -5.450362  4.990659  4.195848
H    -3.870264  1.288549  1.757332
H    -2.412028  2.110533  1.247532
H    -1.525954  2.147805  3.565900
H    -2.676090  0.936625  4.087918
H    -3.426709  2.860800  5.067270
H    -4.586896  2.531122  3.763158
H    -2.426016  4.512020  3.270697
H    -4.629497  7.185020  3.149310
H    -3.325324  6.479520  2.263999
H    -5.551253  4.260376  4.891627
H    -6.199343  5.676503  4.156418
N    -3.848300  -1.115303  0.079731
C    -4.734259  -1.640249  1.113773
H    -4.030996  -1.425140  -0.878234
H    -5.699466  -1.861765  0.643331
H    -4.903086  -0.910594  1.912747
H    -4.350683  -2.582176  1.536890
Hg    3.353047  -0.479682  0.351438
