37
Energy: -574593.1565980  eV PBE+vdW (tier 2 basis)
C    2.099421  -0.981647  1.798737
C    1.327491  -0.528051  2.998532
O    1.991861  0.112702  3.875808
H    1.507414  -1.635562  1.146516
H    3.008751  -1.503737  2.124421
H    2.423612  -0.096073  1.231165
N    0.011590  -0.818762  3.076821
C    -0.909358  -0.281211  4.078521
C    -0.747535  -0.963583  5.467827
O    -0.410594  -0.211655  6.460187
H    -0.371278  -1.323717  2.281400
H    -0.562780  0.745029  4.287848
C    -2.363781  -0.023158  3.588972
C    -3.285909  -1.180232  3.172162
C    -4.737173  -0.747190  2.877942
N    -4.895608  0.006391  1.628595
C    -5.990627  0.753140  1.324514
N    -6.014262  1.424570  0.169369
N    -7.013480  0.848336  2.175835
H    -2.267407  0.701646  2.765698
H    -2.841020  0.532299  4.411572
H    -3.377043  -1.908985  3.987135
H    -2.890655  -1.735528  2.305531
H    -5.101147  -0.117640  3.703064
H    -5.358051  -1.657995  2.852377
H    -4.374865  -0.332783  0.823379
H    -5.182224  1.552767  -0.395537
H    -6.870097  1.845156  -0.180562
H    -7.182607  0.153683  2.893886
H    -7.762372  1.516009  2.015511
N    -0.921875  -2.247103  5.726942
C    -1.323716  -3.372864  4.886579
H    -0.742807  -2.482643  6.709761
H    -0.590143  -4.177782  5.033304
H    -1.347807  -3.098233  3.831800
H    -2.304859  -3.750214  5.204114
Hg    1.371028  0.989102  5.852200
