37
Energy: -574593.1409288  eV PBE+vdW (tier 2 basis)
C    0.054127  1.239145  1.641878
C    -0.148758  -0.127061  2.191937
O    0.802573  -0.949232  2.379406
H    0.649913  1.177981  0.721318
H    0.637648  1.824608  2.370903
H    -0.869310  1.785715  1.433562
N    -1.368198  -0.638325  2.506319
C    -2.702631  -0.222453  2.101036
C    -3.476705  -0.001666  3.486945
O    -4.039644  -0.954368  4.000027
H    -1.311144  -1.562600  2.949365
H    -2.637988  0.735184  1.569763
C    -3.431626  -1.287814  1.254386
C    -4.836861  -0.837836  0.804141
C    -5.792821  -1.962556  0.368493
N    -5.556110  -2.464852  -0.987637
C    -6.475344  -3.116789  -1.742346
N    -7.625268  -3.526561  -1.208385
N    -6.213000  -3.333594  -3.037464
H    -3.508976  -2.203717  1.859334
H    -2.786111  -1.512181  0.391839
H    -4.773369  -0.076690  0.012137
H    -5.351202  -0.358000  1.649186
H    -6.819465  -1.568919  0.396035
H    -5.739337  -2.793237  1.095272
H    -4.620434  -2.399830  -1.377394
H    -8.379642  -3.874484  -1.793445
H    -7.754832  -3.617326  -0.207254
H    -6.794652  -3.951312  -3.596904
H    -5.497460  -2.813650  -3.534527
N    -3.419412  1.243457  4.008400
C    -4.173032  1.620597  5.200249
H    -3.025529  1.992909  3.443575
H    -5.193075  1.950918  4.945117
H    -3.655682  2.457480  5.685188
H    -4.245437  0.752002  5.865597
Hg    2.988477  -0.513929  3.037152
