37
Energy: -574592.5708761  eV PBE+vdW (tier 2 basis)
C    -0.695464  0.678608  0.082391
C    -1.610330  -0.488032  0.023663
O    -1.609151  -1.208519  -1.036193
H    -0.988539  1.409237  0.842493
H    -0.618452  1.154701  -0.900808
H    0.308390  0.300083  0.341925
N    -2.410105  -0.876387  1.047050
C    -3.321681  -0.030007  1.845352
C    -3.989944  0.973865  0.875558
O    -3.930717  0.802365  -0.381743
H    -2.741812  -1.835129  0.927829
H    -4.160216  -0.712270  2.072277
C    -2.840786  0.394247  3.259035
C    -1.613841  1.300937  3.453806
C    -1.354862  1.499524  4.962489
N    -0.155771  2.300131  5.211819
C    0.146431  2.915678  6.383414
N    -0.607288  2.730929  7.467368
N    1.205775  3.731613  6.425749
H    -3.716631  0.828216  3.770968
H    -2.666128  -0.553596  3.790496
H    -1.749250  2.283120  2.975396
H    -0.727632  0.827693  3.004875
H    -1.254762  0.510117  5.443928
H    -2.209216  2.012625  5.429856
H    0.599951  2.240707  4.534135
H    -0.468489  3.295733  8.300786
H    -1.218857  1.929198  7.568290
H    1.573418  4.076288  7.308666
H    1.649675  4.082427  5.583047
N    -4.688690  1.991912  1.370756
C    -5.559606  2.874707  0.596525
H    -4.584733  2.201893  2.362504
H    -5.860577  2.377434  -0.329221
H    -6.434250  3.127064  1.207353
H    -5.027310  3.805186  0.345280
Hg    -3.689052  -1.078842  -1.915273
