37
Energy: -574592.9657952  eV PBE+vdW (tier 2 basis)
C    0.148540  -0.814122  0.614025
C    -0.120988  -0.093620  1.887235
O    0.785115  0.292588  2.684651
H    0.800093  -1.674927  0.829198
H    0.707642  -0.157804  -0.069400
H    -0.751249  -1.184641  0.116283
N    -1.379107  0.227700  2.314453
C    -2.601642  0.497237  1.553240
C    -3.432248  -0.818837  1.253960
O    -4.384023  -0.710025  0.481352
H    -1.368080  0.610379  3.265245
H    -3.244387  1.052957  2.252609
C    -2.371629  1.365140  0.283033
C    -3.595235  1.829479  -0.522057
C    -4.589629  2.762026  0.204610
N    -5.466639  3.475472  -0.719629
C    -6.762785  3.194558  -1.003248
N    -7.498070  4.117751  -1.627196
N    -7.295264  2.019404  -0.656189
H    -1.721797  0.831685  -0.422733
H    -1.799495  2.241384  0.627259
H    -4.146096  0.963304  -0.921958
H    -3.187706  2.346784  -1.406262
H    -4.040081  3.535887  0.763978
H    -5.211880  2.222783  0.930949
H    -5.074416  4.292104  -1.183984
H    -8.412581  3.896937  -2.012213
H    -7.210277  5.090753  -1.678684
H    -6.719878  1.211428  -0.450385
H    -8.295370  1.858100  -0.732048
N    -3.101324  -1.950171  1.888202
C    -3.891741  -3.180960  1.792965
H    -2.406396  -1.884796  2.628572
H    -3.239815  -4.027878  2.033078
H    -4.289036  -3.279125  0.777234
H    -4.728635  -3.166957  2.506160
Hg    2.927038  -0.591288  3.081806
