37
Energy: -574593.1822801  eV PBE+vdW (tier 2 basis)
C    -1.243405  -1.998329  0.868513
C    -0.767173  -1.459851  2.170592
O    -0.328963  -2.169660  3.122211
H    -1.287038  -1.245761  0.075161
H    -2.243905  -2.439941  1.003779
H    -0.581296  -2.811903  0.543826
N    -0.826809  -0.125813  2.465347
C    -1.712279  0.873268  1.883969
C    -0.906243  1.915811  1.000849
O    -1.573056  2.837813  0.520027
H    -0.438595  0.097434  3.388417
H    -2.374338  0.375734  1.162041
C    -2.551010  1.577245  2.990603
C    -3.981596  2.038182  2.622247
C    -4.089562  3.394814  1.909901
N    -5.484719  3.767495  1.731577
C    -5.969097  5.027684  1.562669
N    -7.290626  5.215636  1.621116
N    -5.139218  6.048778  1.356098
H    -1.973344  2.409088  3.419687
H    -2.670487  0.840191  3.797100
H    -4.542976  2.101620  3.565744
H    -4.475619  1.259767  2.018880
H    -3.568414  3.345800  0.929804
H    -3.589021  4.181912  2.494583
H    -6.163895  3.013565  1.642424
H    -7.711207  6.105583  1.365833
H    -7.917800  4.515719  2.006544
H    -5.476987  7.007388  1.356886
H    -4.183845  5.908350  1.048177
N    0.394812  1.739939  0.804277
C    1.230007  2.654652  0.011479
H    0.851210  0.987562  1.313031
H    2.105462  2.100940  -0.341074
H    1.561619  3.503698  0.622930
H    0.655219  3.023749  -0.843769
Hg    0.767931  -4.247830  3.075124
