37
Energy: -574593.3485918  eV PBE+vdW (tier 2 basis)
C    -2.100245  1.550478  1.433269
C    -1.286300  0.653367  2.312024
O    -0.899413  -0.433782  1.750882
H    -2.633728  2.328662  1.990854
H    -2.818365  0.944899  0.862887
H    -1.429405  2.014750  0.692574
N    -1.023641  1.057169  3.568304
C    -0.535398  0.373580  4.808650
C    1.009419  0.244402  4.876688
O    1.679231  -0.714163  4.328696
H    -1.372047  1.997062  3.746530
H    -0.796996  1.095273  5.595507
C    -1.266074  -0.951469  5.143122
C    -2.780223  -0.802722  5.430573
C    -3.184305  -0.493529  6.891621
N    -3.247657  -1.656539  7.782852
C    -4.380749  -2.241200  8.243275
N    -4.330516  -2.970526  9.360666
N    -5.539687  -2.099512  7.592900
H    -0.744041  -1.402777  6.000768
H    -1.144306  -1.675653  4.322227
H    -3.276760  -1.731491  5.118635
H    -3.204391  -0.015706  4.789114
H    -4.171019  -0.012294  6.897952
H    -2.502035  0.235711  7.353855
H    -2.396061  -1.932227  8.260756
H    -3.573700  -2.878786  10.029916
H    -5.091937  -3.590042  9.621611
H    -6.414750  -2.384507  8.022187
H    -5.585832  -1.812525  6.623708
N    1.673801  1.121075  5.602506
C    3.131908  1.145372  5.787821
H    1.139101  1.812837  6.127069
H    3.444456  2.188380  5.903884
H    3.622107  0.689741  4.923003
H    3.401107  0.585047  6.693991
Hg    0.812451  -1.505355  2.515120
