37
Energy: -574593.5836847  eV PBE+vdW (tier 2 basis)
C    0.346679  -0.659979  -0.245675
C    0.175058  -0.194253  1.164839
O    1.014875  0.691975  1.549903
H    1.302129  -1.200286  -0.326343
H    0.426838  0.216134  -0.905869
H    -0.477608  -1.298138  -0.584183
N    -0.815615  -0.723005  1.908401
C    -1.409504  -0.234764  3.174200
C    -0.702172  -0.863272  4.406753
O    0.271332  -0.255059  4.992412
H    -1.340354  -1.457924  1.435574
H    -1.205820  0.846923  3.242983
C    -2.948537  -0.404971  3.124390
C    -3.686684  0.279276  4.293004
C    -5.204830  0.014077  4.375263
N    -6.009639  0.826621  3.458501
C    -7.267748  1.264073  3.711743
N    -7.814510  2.172692  2.897693
N    -7.950863  0.816484  4.768103
H    -3.208768  -1.477341  3.078388
H    -3.267735  0.017664  2.159369
H    -3.511726  1.365450  4.271331
H    -3.272821  -0.075906  5.248764
H    -5.522187  0.270602  5.394331
H    -5.413520  -1.059075  4.225592
H    -5.699760  0.928358  2.497514
H    -7.252474  2.743673  2.276511
H    -8.809855  2.372416  2.924316
H    -8.811059  1.271773  5.059163
H    -7.742424  -0.071674  5.208817
N    -1.096308  -2.024270  4.883902
C    -0.472626  -2.737678  6.009762
H    -1.932064  -2.443717  4.479498
H    -0.958744  -2.449654  6.951743
H    0.589881  -2.483430  6.062069
H    -0.602144  -3.812561  5.848648
Hg    1.403306  1.060764  3.661588
