37
Energy: -574592.9446558  eV PBE+vdW (tier 2 basis)
C    -0.139419  -2.092885  0.423475
C    -0.599093  -2.473954  1.786752
O    -0.100505  -3.415712  2.468761
H    -0.891169  -1.545134  -0.153305
H    0.142861  -2.993954  -0.136389
H    0.768620  -1.474444  0.510681
N    -1.573444  -1.771558  2.440628
C    -1.890355  -0.378093  2.256315
C    -0.824669  0.539463  3.038822
O    -0.378063  0.103348  4.088633
H    -1.750338  -2.145832  3.378744
H    -1.810975  -0.143590  1.186564
C    -3.280024  0.003148  2.830786
C    -4.455676  -0.642188  2.071162
C    -5.837130  -0.038988  2.385995
N    -6.353382  -0.368810  3.713322
C    -7.356790  0.299375  4.343443
N    -7.676427  -0.050751  5.593271
N    -7.995833  1.300700  3.738471
H    -3.358016  1.098842  2.776589
H    -3.303263  -0.246729  3.902394
H    -4.472543  -1.731928  2.230678
H    -4.320554  -0.503613  0.988247
H    -6.533056  -0.411616  1.612161
H    -5.802706  1.057164  2.294290
H    -6.167669  -1.306374  4.062351
H    -7.072930  -0.637627  6.159463
H    -8.525611  0.288467  6.036925
H    -8.645275  1.889609  4.252540
H    -8.004601  1.402069  2.729895
N    -0.504052  1.733567  2.502071
C    -0.873524  2.296533  1.208540
H    0.231746  2.219418  3.021567
H    -0.246106  1.901344  0.394276
H    -0.699866  3.378586  1.255745
H    -1.932158  2.133746  0.981762
Hg    0.920965  -5.384692  1.730742
