37
Energy: -574592.7353974  eV PBE+vdW (tier 2 basis)
C    0.459934  1.088868  1.746786
C    -0.236334  0.507555  2.923071
O    0.143724  0.686258  4.129251
H    0.041720  0.767332  0.789675
H    1.518474  0.787763  1.779970
H    0.436607  2.186368  1.813715
N    -1.364767  -0.233906  2.833820
C    -2.404449  -0.274775  1.783857
C    -1.908220  -1.179854  0.600330
O    -1.685739  -0.664030  -0.500576
H    -1.642190  -0.624647  3.739311
H    -3.244899  -0.793375  2.265871
C    -2.905982  1.108159  1.310351
C    -4.364396  1.119143  0.800590
C    -4.640614  0.770172  -0.676298
N    -4.326145  1.854354  -1.606906
C    -3.652642  1.755801  -2.784955
N    -3.884721  2.669357  -3.730833
N    -2.767788  0.775990  -2.971530
H    -2.219208  1.525804  0.562142
H    -2.869781  1.769498  2.187453
H    -4.781359  2.116784  1.002357
H    -4.980630  0.438208  1.407105
H    -5.724478  0.576759  -0.768681
H    -4.134884  -0.140749  -1.009585
H    -4.842643  2.722690  -1.468183
H    -4.717929  3.251192  -3.722421
H    -3.298657  2.736686  -4.558947
H    -2.387141  0.247398  -2.187628
H    -2.378390  0.596123  -3.892088
N    -1.739169  -2.502349  0.810186
C    -2.145840  -3.356292  1.920343
H    -1.435847  -2.999711  -0.031959
H    -1.281207  -3.951605  2.249499
H    -2.926649  -4.054871  1.587912
H    -2.520512  -2.779630  2.769212
Hg    2.259059  0.996574  4.959892
