37
Energy: -574593.3346387  eV PBE+vdW (tier 2 basis)
C    -0.551779  0.424356  0.242903
C    -0.479272  0.080852  1.697373
O    0.170582  -0.995762  1.957814
H    -1.311041  1.182570  0.019382
H    -0.761308  -0.487502  -0.333683
H    0.439138  0.778460  -0.083215
N    -1.067956  0.907831  2.579370
C    -1.483276  0.791364  4.013703
C    -0.329716  1.058192  5.012253
O    0.457242  0.119270  5.441074
H    -1.466659  1.726808  2.123760
H    -2.171773  1.636981  4.127917
C    -2.313659  -0.476552  4.337446
C    -3.032867  -0.364656  5.697058
C    -3.841615  -1.601925  6.141775
N    -5.169347  -1.704563  5.530416
C    -6.274830  -2.189078  6.147962
N    -7.468410  -2.015846  5.572038
N    -6.185968  -2.813478  7.325406
H    -1.692676  -1.387671  4.323856
H    -3.028384  -0.590956  3.508988
H    -3.694701  0.515097  5.705929
H    -2.285884  -0.199020  6.488207
H    -3.992727  -1.515417  7.225265
H    -3.260983  -2.522953  5.964518
H    -5.255651  -1.570705  4.528169
H    -7.621226  -1.316625  4.854124
H    -8.282900  -2.537878  5.880725
H    -7.020148  -3.011143  7.870353
H    -5.331449  -3.261263  7.634883
N    -0.141517  2.249646  5.544217
C    -0.903659  3.499337  5.456280
H    0.662239  2.284610  6.182553
H    -1.343943  3.725801  6.436408
H    -1.690240  3.448901  4.700397
H    -0.205543  4.305537  5.194266
Hg    0.990986  -1.318101  3.920823
