37
Energy: -574593.5429573  eV PBE+vdW (tier 2 basis)
C    1.581368  -2.637323  4.130074
C    0.930133  -1.315874  3.877880
O    1.577118  -0.533600  3.095764
H    1.815713  -3.108753  3.163492
H    0.951199  -3.313437  4.719258
H    2.542646  -2.471719  4.638566
N    -0.250101  -1.045648  4.468437
C    -1.267227  -0.023910  4.121543
C    -1.071500  1.273254  4.950791
O    -0.350862  2.244938  4.503872
H    -0.570554  -1.777806  5.101065
H    -1.094201  0.273384  3.073588
C    -2.676953  -0.663682  4.166375
C    -3.795542  0.229768  3.589564
C    -5.058965  -0.528922  3.125430
N    -5.955635  -1.007030  4.186178
C    -7.262219  -0.664701  4.323276
N    -8.100483  -1.516536  4.919264
N    -7.712912  0.516936  3.892992
H    -2.913685  -0.998411  5.191442
H    -2.600368  -1.580924  3.561499
H    -3.413794  0.739457  2.690794
H    -4.075985  1.022553  4.298585
H    -4.770520  -1.392449  2.506599
H    -5.637308  0.126291  2.463132
H    -5.703937  -1.881793  4.636471
H    -7.896072  -2.507196  4.996080
H    -9.020616  -1.220041  5.230882
H    -8.708956  0.702140  3.826121
H    -7.092908  1.285995  3.674606
N    -1.651081  1.410547  6.123267
C    -1.492108  2.568774  7.017487
H    -2.296132  0.680329  6.419951
H    -0.494556  2.998579  6.886947
H    -1.627975  2.227789  8.048374
H    -2.245811  3.332064  6.782211
Hg    1.176792  1.597953  3.087143
