37
Energy: -574593.5426363  eV PBE+vdW (tier 2 basis)
C    0.293133  0.523633  0.299758
C    0.205271  0.564724  1.791253
O    1.170780  1.172933  2.374283
H    0.431715  1.548551  -0.076872
H    -0.597790  0.084846  -0.164081
H    1.191625  -0.040595  0.009118
N    -0.844872  -0.019470  2.400101
C    -1.372372  0.180900  3.771418
C    -0.794660  -0.868208  4.758491
O    0.273578  -0.623167  5.438111
H    -1.475205  -0.501364  1.760261
H    -0.998229  1.154026  4.131393
C    -2.915714  0.299308  3.717896
C    -3.561691  0.751311  5.044882
C    -4.964137  1.384062  4.903050
N    -6.074260  0.454421  4.655463
C    -7.164993  0.304595  5.449744
N    -8.314363  -0.107086  4.908465
N    -7.097647  0.539820  6.763013
H    -3.359920  -0.642516  3.351185
H    -3.123877  1.051712  2.940993
H    -2.931952  1.533950  5.496782
H    -3.596843  -0.074293  5.770860
H    -4.957561  2.131388  4.094779
H    -5.189584  1.944357  5.818355
H    -6.212516  0.154138  3.695236
H    -8.503131  -0.019645  3.915583
H    -9.083177  -0.432435  5.487022
H    -7.940798  0.606501  7.324732
H    -6.217389  0.602929  7.257624
N    -1.394905  -2.025644  4.930191
C    -0.908423  -3.113540  5.794112
H    -2.289901  -2.167330  4.465148
H    0.184894  -3.093535  5.828244
H    -1.259316  -4.063752  5.379970
H    -1.301993  -2.990362  6.811950
Hg    1.588717  0.826097  4.474093
