37
Energy: -574593.4530567  eV PBE+vdW (tier 2 basis)
C    1.255601  -1.853117  2.191655
C    0.775605  -0.437730  2.117143
O    1.678219  0.445072  2.353928
H    0.440137  -2.577013  2.302722
H    1.961196  -1.955424  3.027443
H    1.827057  -2.073936  1.275047
N    -0.511935  -0.215767  1.800172
C    -1.437402  0.957074  1.919504
C    -1.332645  1.969911  0.749496
O    -0.463273  2.925723  0.692933
H    -1.005329  -1.080803  1.586677
H    -2.423484  0.486633  1.799315
C    -1.452385  1.640157  3.312235
C    -1.936932  0.697082  4.433289
C    -1.919574  1.275472  5.863387
N    -3.082334  2.105964  6.190325
C    -3.653759  2.193330  7.416188
N    -4.842411  2.792502  7.538285
N    -3.054990  1.672688  8.490718
H    -2.109490  2.518447  3.214626
H    -0.458397  2.036697  3.576656
H    -1.286364  -0.189003  4.461043
H    -2.949359  0.327915  4.207681
H    -0.982994  1.830871  6.041311
H    -1.929548  0.423862  6.555971
H    -3.400845  2.789221  5.511105
H    -5.456223  2.933517  6.743895
H    -5.204204  3.063926  8.447477
H    -3.558388  1.573890  9.367455
H    -2.054724  1.516238  8.527170
N    -2.241262  1.907804  -0.202542
C    -2.317587  2.791913  -1.373457
H    -2.995186  1.228268  -0.101060
H    -1.332877  3.219155  -1.580451
H    -3.032719  3.603306  -1.177600
H    -2.671450  2.201585  -2.225801
Hg    1.429258  2.449568  1.603058
