37
Energy: -574593.5582143  eV PBE+vdW (tier 2 basis)
C    -0.254185  -2.188592  1.374114
C    -1.670486  -1.839623  1.702726
O    -2.540714  -2.704298  1.335840
H    -0.143522  -2.239343  0.280816
H    -0.036194  -3.196352  1.758427
H    0.464619  -1.476301  1.795222
N    -1.924478  -0.679891  2.338768
C    -3.138435  -0.254862  3.073188
C    -4.115249  0.522127  2.149699
O    -5.072749  -0.084637  1.537410
H    -1.096837  -0.106872  2.498078
H    -3.684750  -1.167076  3.366575
C    -2.728085  0.452230  4.388809
C    -3.915625  0.746839  5.330134
C    -3.565643  0.919563  6.819162
N    -2.891984  2.188282  7.128752
C    -2.263568  2.439452  8.308048
N    -1.663304  3.619857  8.484090
N    -2.207808  1.511267  9.265892
H    -2.144796  1.363506  4.173179
H    -2.028193  -0.234851  4.888573
H    -4.618226  -0.100083  5.300040
H    -4.495028  1.616238  4.981695
H    -2.907512  0.098378  7.138409
H    -4.505432  0.837209  7.389553
H    -3.251355  3.015482  6.658938
H    -1.344604  3.919842  9.400387
H    -1.494709  4.256857  7.714032
H    -1.618473  1.643432  10.082739
H    -2.874549  0.750032  9.315976
N    -3.990213  1.821785  1.988264
C    -4.822542  2.650613  1.101183
H    -3.291152  2.301987  2.551865
H    -4.226488  3.507515  0.772646
H    -5.709514  3.007210  1.641919
H    -5.143531  2.057088  0.240007
Hg    -4.645686  -2.192009  1.137844
