37
Energy: -574593.7120203  eV PBE+vdW (tier 2 basis)
C    0.987326  -0.903678  -0.269524
C    0.676592  0.014277  0.868776
O    0.515386  1.243307  0.547228
H    1.957753  -0.619173  -0.702727
H    0.236604  -0.757752  -1.060690
H    0.999555  -1.958311  0.028727
N    0.591546  -0.496039  2.112195
C    -0.033153  0.075810  3.329298
C    1.009962  0.841350  4.186968
O    1.190851  2.108235  4.036260
H    0.809427  -1.490519  2.164913
H    -0.761286  0.837525  3.004143
C    -0.828719  -1.036530  4.052622
C    -1.751929  -0.549552  5.186855
C    -2.596167  -1.709165  5.752406
N    -3.502525  -1.241820  6.802731
C    -4.659398  -1.843808  7.167043
N    -5.488687  -1.206249  7.998367
N    -4.986854  -3.046074  6.683853
H    -0.140194  -1.818701  4.418409
H    -1.438670  -1.522843  3.275864
H    -2.428970  0.230730  4.807761
H    -1.160925  -0.096784  5.999078
H    -1.933537  -2.502713  6.138772
H    -3.207782  -2.143475  4.948181
H    -3.165902  -0.515055  7.427657
H    -6.252681  -1.692679  8.457610
H    -5.410033  -0.211023  8.176796
H    -5.917927  -3.425035  6.829226
H    -4.287537  -3.695551  6.344303
N    1.721767  0.207448  5.093848
C    2.779952  0.811685  5.918984
H    1.498643  -0.770345  5.272265
H    3.517817  0.037363  6.150988
H    2.353235  1.199808  6.853493
H    3.248424  1.633643  5.370033
Hg    0.698032  2.825693  2.028287
