37
Energy: -574593.1279451  eV PBE+vdW (tier 2 basis)
C    -0.112386  0.735379  0.562284
C    -0.425357  0.702429  2.015417
O    0.445936  0.739601  2.935314
H    0.659676  1.493955  0.372900
H    -0.979710  0.958521  -0.066353
H    0.315254  -0.233873  0.260155
N    -1.702800  0.569560  2.480714
C    -2.841277  -0.029948  1.798576
C    -3.977498  1.029723  1.475715
O    -4.942850  0.591983  0.842720
H    -1.755474  0.582389  3.505585
H    -2.520240  -0.387696  0.812206
C    -3.387460  -1.199960  2.668931
C    -4.691936  -1.905365  2.272924
C    -4.666115  -2.653660  0.918419
N    -5.899047  -3.385159  0.655852
C    -6.985562  -2.914021  -0.005962
N    -7.972433  -3.766833  -0.300834
N    -7.060189  -1.630193  -0.358220
H    -3.535837  -0.824342  3.694970
H    -2.568255  -1.934141  2.733550
H    -5.533050  -1.198304  2.279659
H    -4.902293  -2.628253  3.075673
H    -3.857009  -3.397709  0.913297
H    -4.489158  -1.965552  0.079875
H    -5.962222  -4.334454  1.018133
H    -8.853874  -3.446612  -0.693289
H    -7.861087  -4.772631  -0.209124
H    -7.806126  -1.299725  -0.962631
H    -6.411613  -0.932189  -0.006200
N    -3.841579  2.286229  1.892909
C    -4.816608  3.346976  1.612990
H    -2.961077  2.548187  2.328403
H    -4.614477  3.818104  0.641469
H    -4.735077  4.103368  2.400773
H    -5.824588  2.920585  1.604720
Hg    2.572943  1.702657  2.948463
