37
Energy: -574593.1755891  eV PBE+vdW (tier 2 basis)
C    -1.024196  -1.073068  0.262601
C    -0.087301  -0.517896  1.276604
O    1.118633  -0.197161  0.999588
H    -0.512716  -1.841416  -0.330281
H    -1.310677  -0.260030  -0.425243
H    -1.944487  -1.491449  0.678468
N    -0.409391  -0.330352  2.572328
C    -1.550444  -0.760576  3.343832
C    -2.075263  0.568528  4.074634
O    -1.242840  1.340641  4.518686
H    0.294220  0.194317  3.106933
H    -2.317888  -1.167086  2.675122
C    -1.235281  -1.739030  4.509935
C    -0.910474  -3.184254  4.096613
C    -0.718993  -4.052731  5.363567
N    -0.415658  -5.440121  5.021288
C    0.323421  -6.300550  5.766499
N    0.657292  -7.483020  5.239501
N    0.726522  -5.970501  6.994816
H    -0.418077  -1.300564  5.103599
H    -2.117846  -1.742531  5.169407
H    0.002481  -3.223609  3.484270
H    -1.734262  -3.600036  3.495026
H    -1.632168  -4.006178  5.980776
H    0.114801  -3.658446  5.961422
H    -0.947543  -5.858446  4.261538
H    1.022413  -8.235317  5.816910
H    0.582664  -7.668901  4.244858
H    1.397496  -6.547963  7.493505
H    0.249141  -5.264379  7.543351
N    -3.414152  0.709674  4.168947
C    -4.032636  1.939532  4.653170
H    -4.018406  0.018184  3.728881
H    -4.222238  2.647508  3.829713
H    -3.360869  2.415563  5.376755
H    -4.998839  1.680520  5.105120
Hg    1.896515  0.806697  -0.917621
