37
Energy: -574593.0256753  eV PBE+vdW (tier 2 basis)
C    0.010174  0.040295  -0.499093
C    0.309103  -0.370374  0.895847
O    1.443191  -0.827598  1.253867
H    0.704822  0.855849  -0.765580
H    -1.009784  0.390170  -0.653597
H    0.205667  -0.802592  -1.175414
N    -0.579098  -0.324252  1.930040
C    -2.032198  -0.438757  1.948472
C    -2.479258  -1.818238  1.297722
O    -2.204958  -2.003770  0.116196
H    -0.127026  -0.563387  2.817193
H    -2.272218  -0.489701  3.020204
C    -2.822334  0.744837  1.319828
C    -4.233325  0.845673  1.934557
C    -5.031454  2.108504  1.562972
N    -5.640977  2.055947  0.233481
C    -6.190176  3.122569  -0.405894
N    -6.689012  2.949838  -1.634632
N    -6.209403  4.325864  0.167385
H    -2.879517  0.635128  0.229516
H    -2.256734  1.662765  1.535533
H    -4.147680  0.868714  3.031085
H    -4.830382  -0.050693  1.700679
H    -4.387658  2.999996  1.616004
H    -5.821387  2.226782  2.326407
H    -5.953085  1.143630  -0.091790
H    -6.515921  2.107409  -2.172508
H    -7.258810  3.663601  -2.080252
H    -6.507095  5.146637  -0.352443
H    -6.101865  4.446856  1.168018
N    -3.135030  -2.677044  2.092255
C    -3.523897  -4.020757  1.660178
H    -3.230228  -2.455386  3.080952
H    -2.730366  -4.748895  1.885948
H    -3.701918  -4.015136  0.579712
H    -4.428639  -4.312653  2.205670
Hg    3.488822  -0.295630  0.368988
