37
Energy: -574592.7827804  eV PBE+vdW (tier 2 basis)
C    0.430532  -0.075709  -0.032839
C    0.612540  0.113534  1.430140
O    1.819347  0.202484  1.849418
H    0.494218  -1.149062  -0.276386
H    1.278151  0.399739  -0.547359
H    -0.507313  0.345238  -0.403159
N    -0.394673  0.270895  2.328093
C    -1.595203  -0.560148  2.538351
C    -1.078867  -1.865281  3.231530
O    0.123303  -2.246169  3.059474
H    -0.049174  0.665831  3.205623
H    -2.196589  -0.001869  3.271907
C    -2.465436  -0.857466  1.296455
C    -3.130939  0.374934  0.633248
C    -4.548715  0.683848  1.166238
N    -5.154910  1.864400  0.549161
C    -6.228743  1.901479  -0.278390
N    -6.880644  3.057572  -0.431362
N    -6.635783  0.809749  -0.931153
H    -3.240725  -1.573754  1.609472
H    -1.870267  -1.404521  0.555212
H    -3.195257  0.191096  -0.448277
H    -2.496885  1.266385  0.752867
H    -4.525669  0.867337  2.252292
H    -5.220475  -0.170874  1.012212
H    -4.804657  2.770398  0.850732
H    -6.785080  3.821514  0.230649
H    -7.557090  3.188990  -1.178565
H    -7.526450  0.797778  -1.419665
H    -6.025114  0.018393  -1.090205
N    -1.926597  -2.584664  3.957474
C    -1.600390  -3.799971  4.701510
H    -2.905972  -2.297911  3.976391
H    -0.516823  -3.917298  4.765934
H    -2.027787  -4.672535  4.183445
H    -2.050654  -3.737203  5.700268
Hg    2.195643  -1.236055  3.538848
