37
Energy: -574593.4201937  eV PBE+vdW (tier 2 basis)
C    0.162175  -0.642685  -0.170778
C    -0.273858  -0.752960  1.256348
O    0.657501  -0.629361  2.121723
H    0.839567  -1.478587  -0.400595
H    0.745943  0.280136  -0.299460
H    -0.681724  -0.642700  -0.870758
N    -1.576609  -0.971087  1.521384
C    -2.276608  -0.884000  2.814687
C    -2.157105  -2.193386  3.643692
O    -1.370716  -2.207260  4.669131
H    -2.163661  -1.070147  0.695193
H    -1.734842  -0.143720  3.426785
C    -3.717473  -0.334953  2.654235
C    -3.739818  1.180824  2.368731
C    -5.119064  1.785859  2.055185
N    -5.972476  1.930947  3.241810
C    -7.293202  2.246379  3.193597
N    -7.980747  2.334339  4.336025
N    -7.910123  2.429318  2.024043
H    -4.264756  -0.560163  3.581716
H    -4.238416  -0.877900  1.851871
H    -3.112300  1.402985  1.492843
H    -3.280192  1.730328  3.206502
H    -5.650232  1.157526  1.324693
H    -4.948035  2.770012  1.587944
H    -5.504080  2.185697  4.107822
H    -8.914043  2.733856  4.362822
H    -7.604783  2.001009  5.216464
H    -8.919870  2.531905  1.979919
H    -7.401618  2.661690  1.179070
N    -2.834098  -3.299644  3.404176
C    -3.887658  -3.588573  2.426754
H    -2.618726  -4.058368  4.059480
H    -3.866483  -4.666097  2.229741
H    -3.709870  -3.061431  1.485644
H    -4.875488  -3.330021  2.830642
Hg    0.520493  -1.161768  4.253920
