37
Energy: -574593.1391637  eV PBE+vdW (tier 2 basis)
C    -0.348323  0.706002  -0.486234
C    0.040826  -0.086095  0.709702
O    1.193341  -0.586635  0.895293
H    0.450102  1.421593  -0.727102
H    -1.282542  1.260511  -0.357465
H    -0.442299  0.031275  -1.352268
N    -0.847664  -0.398757  1.693234
C    -2.302823  -0.461782  1.592610
C    -3.005942  0.790038  2.258700
O    -4.165070  1.004275  1.893709
H    -0.423177  -0.932468  2.460522
H    -2.584252  -0.381234  0.536074
C    -2.810514  -1.797299  2.198878
C    -4.326017  -1.992232  2.375325
C    -5.137686  -2.039617  1.056539
N    -6.559970  -2.266970  1.276845
C    -7.516316  -1.312303  1.396335
N    -8.796962  -1.695997  1.442297
N    -7.183392  -0.023142  1.461763
H    -2.357837  -1.919221  3.196407
H    -2.398319  -2.604630  1.573463
H    -4.743755  -1.223154  3.038492
H    -4.457776  -2.949539  2.899160
H    -4.781326  -2.866585  0.426256
H    -5.025658  -1.112837  0.476662
H    -6.867433  -3.233871  1.362519
H    -9.545119  -1.034225  1.631586
H    -9.083515  -2.645873  1.222852
H    -6.221726  0.286134  1.577537
H    -7.895776  0.699235  1.422222
N    -2.338544  1.517244  3.157233
C    -2.931608  2.634476  3.897404
H    -1.409505  1.207302  3.430870
H    -2.130403  3.326655  4.178250
H    -3.426888  2.280673  4.812799
H    -3.666031  3.139821  3.261597
Hg    3.259296  0.136632  0.122114
