37
Energy: -574593.0215579  eV PBE+vdW (tier 2 basis)
C    0.435763  -1.588060  0.961100
C    -0.018709  -0.633008  2.013786
O    0.438169  -0.632643  3.209752
H    1.500042  -1.397928  0.741315
H    -0.121382  -1.493375  0.022876
H    0.340227  -2.619016  1.329362
N    -0.979858  0.256160  1.713879
C    -1.562835  1.249550  2.622071
C    -3.045648  0.814930  2.893591
O    -3.913240  1.116690  2.064592
H    -1.414067  0.162625  0.793959
H    -0.988602  1.195560  3.558683
C    -1.475088  2.655540  1.995384
C    -1.948410  3.814293  2.903074
C    -3.416618  4.275286  2.774502
N    -3.718031  4.949859  1.515531
C    -4.720912  4.654755  0.643902
N    -5.117753  5.602042  -0.210532
N    -5.273964  3.442375  0.639504
H    -2.009380  2.663373  1.033882
H    -0.415618  2.818392  1.754147
H    -1.297544  4.679652  2.712139
H    -1.787065  3.575814  3.965180
H    -3.599067  5.009086  3.580115
H    -4.136880  3.465313  2.922144
H    -3.225676  5.826582  1.344919
H    -5.757631  5.394818  -0.973250
H    -4.894572  6.583247  -0.067023
H    -6.119066  3.260404  0.105937
H    -4.836911  2.648165  1.108127
N    -3.285037  0.104529  4.007228
C    -4.610136  -0.355676  4.411569
H    -2.516937  -0.045040  4.658209
H    -4.509306  -1.330499  4.904135
H    -5.252473  -0.430824  3.528522
H    -5.065318  0.343419  5.130739
Hg    2.504532  -1.496440  3.751249
