37
Energy: -574593.2044129  eV PBE+vdW (tier 2 basis)
C    0.872449  0.719686  0.396811
C    0.373713  -0.436412  1.206008
O    1.245095  -1.356423  1.408769
H    1.593890  1.288859  1.003649
H    0.068134  1.381270  0.054884
H    1.427743  0.338403  -0.471834
N    -0.896963  -0.406757  1.645665
C    -1.831663  -1.431354  2.209555
C    -1.604078  -1.681810  3.723269
O    -0.800166  -2.596363  4.165850
H    -1.365059  0.463378  1.399557
H    -2.805661  -0.932823  2.135608
C    -1.928368  -2.728294  1.370199
C    -3.142703  -3.619917  1.722286
C    -4.453087  -3.333995  0.952095
N    -4.507307  -3.886446  -0.405770
C    -4.899350  -5.141046  -0.739492
N    -4.879139  -5.509087  -2.022253
N    -5.264444  -6.019295  0.200830
H    -1.010419  -3.329956  1.467049
H    -1.954481  -2.427670  0.312526
H    -3.364662  -3.556123  2.799030
H    -2.861701  -4.668216  1.554921
H    -4.636734  -2.256016  0.848496
H    -5.305497  -3.702817  1.541269
H    -4.489979  -3.221399  -1.171512
H    -5.304088  -6.377974  -2.331097
H    -4.483465  -4.920617  -2.746830
H    -5.512877  -6.971143  -0.051452
H    -5.544944  -5.721655  1.126946
N    -2.279188  -1.017581  4.641611
C    -3.367957  -0.040693  4.547809
H    -2.016736  -1.273774  5.600754
H    -3.570590  0.250579  3.514904
H    -3.077834  0.850561  5.120609
H    -4.274909  -0.462672  5.000354
Hg    1.029030  -2.773410  3.019923
