37
Energy: -574592.9575100  eV PBE+vdW (tier 2 basis)
C    0.104209  0.704061  0.231949
C    -0.065222  0.312990  1.659420
O    0.904681  0.012548  2.430233
H    0.750197  -0.018118  -0.284520
H    0.603207  1.687791  0.193196
H    -0.844179  0.791182  -0.309249
N    -1.313014  0.227266  2.176359
C    -1.643894  -0.056224  3.562718
C    -2.007176  -1.582533  3.771983
O    -3.016589  -1.884143  4.399804
H    -2.081903  0.309116  1.510863
H    -0.715704  0.089502  4.138364
C    -2.715432  0.896863  4.134115
C    -4.075234  1.104966  3.437387
C    -5.182539  0.024403  3.565157
N    -5.593766  -0.285416  4.928359
C    -6.730596  0.117850  5.552823
N    -7.085782  -0.497753  6.686412
N    -7.475496  1.104888  5.056948
H    -2.230661  1.883305  4.176268
H    -2.861654  0.597193  5.181395
H    -3.958040  1.293269  2.357895
H    -4.475419  2.048274  3.837295
H    -4.859826  -0.925591  3.119013
H    -6.060959  0.353314  2.994500
H    -5.008542  -0.954983  5.425783
H    -7.852275  -0.153034  7.258996
H    -6.686169  -1.390051  6.960642
H    -8.393172  1.314749  5.440055
H    -7.142973  1.721602  4.325657
N    -1.142100  -2.494658  3.268114
C    -1.247342  -3.917723  3.556391
H    -0.263521  -2.163690  2.873556
H    -0.714393  -4.178987  4.486798
H    -0.789768  -4.478177  2.732290
H    -2.303644  -4.181016  3.684839
Hg    3.063280  0.959997  2.240393
