37
Energy: -574593.4516197  eV PBE+vdW (tier 2 basis)
C    -0.657510  -0.282862  -0.486905
C    -0.832580  -0.352838  0.997283
O    -0.516506  -1.484246  1.516857
H    0.417365  -0.329638  -0.719610
H    -1.098751  0.618505  -0.927693
H    -1.114731  -1.172770  -0.943417
N    -1.281135  0.738551  1.641339
C    -1.877659  0.987305  2.993645
C    -0.816973  1.154445  4.108810
O    -0.367897  0.154243  4.801679
H    -1.407693  1.527284  1.009656
H    -2.334725  1.975969  2.868699
C    -3.037925  0.027786  3.353898
C    -3.945109  0.567427  4.477687
C    -5.213329  -0.291002  4.650831
N    -6.095276  0.282534  5.669374
C    -7.050638  -0.390099  6.353108
N    -7.653141  0.207361  7.384667
N    -7.368319  -1.646955  6.025305
H    -2.673336  -0.978205  3.620118
H    -3.623325  -0.102063  2.431477
H    -4.246495  1.597864  4.226156
H    -3.403531  0.610532  5.434508
H    -4.940458  -1.307104  4.971135
H    -5.738559  -0.368741  3.683399
H    -6.136616  1.295642  5.735299
H    -8.508019  -0.165543  7.786226
H    -7.271564  1.040312  7.819435
H    -7.970228  -2.200285  6.627976
H    -7.218988  -2.007934  5.090556
N    -0.374691  2.345023  4.463701
C    -0.747952  3.698485  4.041472
H    0.330126  2.309122  5.209438
H    -1.418869  3.689945  3.179737
H    0.170943  4.236776  3.773557
H    -1.225567  4.223312  4.879354
Hg    -0.051341  -1.625138  3.612239
