37
Energy: -574593.6053510  eV PBE+vdW (tier 2 basis)
C    -0.119967  -0.501781  -0.229680
C    0.089302  0.296899  1.017451
O    0.270916  1.550859  0.834125
H    0.821512  -0.517489  -0.800050
H    -0.860745  0.007037  -0.863199
H    -0.453467  -1.525626  -0.025365
N    0.076797  -0.337676  2.204826
C    -0.060485  0.217630  3.570898
C    1.329509  0.520257  4.196958
O    1.849618  1.696691  4.117012
H    -0.032641  -1.348540  2.132758
H    -0.558716  1.197793  3.484173
C    -0.990903  -0.693642  4.407934
C    -1.373477  -0.103720  5.778990
C    -2.254533  -1.003867  6.665243
N    -3.654797  -1.056034  6.225400
C    -4.562251  -1.958411  6.682521
N    -5.804621  -1.933852  6.192377
N    -4.214023  -2.885352  7.578434
H    -0.530526  -1.689723  4.533082
H    -1.893939  -0.860485  3.801785
H    -1.866403  0.873108  5.646718
H    -0.469639  0.104567  6.370340
H    -2.192141  -0.616030  7.695217
H    -1.859491  -2.030603  6.670089
H    -4.054734  -0.182142  5.892179
H    -6.556633  -2.456175  6.631561
H    -6.047212  -1.393621  5.369678
H    -4.847809  -3.643896  7.813015
H    -3.417432  -2.764641  8.192819
N    1.993962  -0.419267  4.834618
C    3.334198  -0.264568  5.421601
H    1.527384  -1.312989  4.981748
H    3.844673  -1.231649  5.371681
H    3.250211  0.048445  6.471222
H    3.893448  0.492978  4.865177
Hg    1.212059  2.808516  2.344663
