37
Energy: -574593.4613103  eV PBE+vdW (tier 2 basis)
C    -1.144125  -3.004720  -0.047238
C    -0.735792  -2.086922  1.061622
O    0.415190  -1.547530  0.923290
H    -1.102974  -2.455286  -0.999469
H    -2.153206  -3.409891  0.094659
H    -0.415650  -3.824730  -0.121885
N    -1.580774  -1.898628  2.092585
C    -1.527765  -0.863467  3.141170
C    -0.601388  -1.269246  4.320534
O    0.538454  -0.674211  4.445574
H    -2.452092  -2.421660  2.020650
H    -1.026475  0.017077  2.706303
C    -2.958315  -0.399626  3.510225
C    -3.016010  0.785920  4.493536
C    -4.474745  1.227525  4.743998
N    -4.575685  2.319094  5.717258
C    -5.312765  3.451114  5.599842
N    -5.616345  3.958956  4.401014
N    -5.727565  4.070616  6.707255
H    -3.544365  -1.244457  3.898992
H    -3.429230  -0.109496  2.557974
H    -2.439268  1.637806  4.103179
H    -2.555471  0.509901  5.455748
H    -5.068271  0.375858  5.114374
H    -4.949740  1.545121  3.807853
H    -4.274672  2.104471  6.664410
H    -6.296288  4.707793  4.312652
H    -5.085134  3.731164  3.570510
H    -6.072865  5.025606  6.680869
H    -5.768829  3.599261  7.604854
N    -0.904219  -2.169843  5.235999
C    -2.125543  -2.952176  5.449995
H    -0.161003  -2.311759  5.927719
H    -2.832017  -2.409225  6.091822
H    -1.837578  -3.876132  5.963692
H    -2.598949  -3.218769  4.501690
Hg    1.518465  -0.463512  2.479742
