37
Energy: -574593.1032994  eV PBE+vdW (tier 2 basis)
C    0.455180  -0.916334  0.886085
C    -0.267439  0.200597  1.550365
O    0.313104  1.255744  1.959436
H    0.806380  -0.569269  -0.099516
H    -0.146550  -1.816462  0.735608
H    1.343418  -1.176308  1.477004
N    -1.598949  0.180462  1.821967
C    -2.527088  -0.941158  1.907504
C    -3.821774  -0.429761  1.126444
O    -4.703792  0.106348  1.783009
H    -1.929982  1.053546  2.248060
H    -2.102936  -1.805579  1.383798
C    -2.884425  -1.288907  3.369010
C    -3.842565  -2.484789  3.524609
C    -4.279095  -2.651663  4.991322
N    -5.199612  -3.778586  5.142637
C    -5.513684  -4.395088  6.308699
N    -6.248308  -5.513015  6.265858
N    -5.086736  -3.908794  7.473964
H    -3.324753  -0.394133  3.833148
H    -1.936787  -1.498468  3.887972
H    -3.357692  -3.411332  3.182282
H    -4.740956  -2.327617  2.908460
H    -4.768346  -1.721676  5.334020
H    -3.406218  -2.831238  5.638189
H    -5.760441  -4.036540  4.333872
H    -6.645747  -5.918176  7.109170
H    -6.387047  -6.032984  5.405118
H    -5.205894  -4.434802  8.334883
H    -4.775177  -2.949728  7.573259
N    -3.883304  -0.585200  -0.216143
C    -3.040748  -1.375942  -1.103936
H    -4.781536  -0.282927  -0.603500
H    -3.178978  -0.991149  -2.122200
H    -3.334208  -2.436928  -1.108609
H    -1.983040  -1.280908  -0.843625
Hg    2.136628  2.356247  1.055593
