37
Energy: -574593.3314675  eV PBE+vdW (tier 2 basis)
C    1.361712  -0.196678  0.405045
C    0.596578  0.470547  1.500049
O    0.866717  1.642576  1.937213
H    1.268816  0.399074  -0.517056
H    1.008340  -1.211394  0.194191
H    2.425228  -0.244318  0.680093
N    -0.409545  -0.193378  2.085346
C    -1.142128  0.258441  3.269482
C    -1.000247  -0.879675  4.318822
O    -1.080076  -2.040265  3.906496
H    -0.499154  -1.191582  1.876280
H    -0.664196  1.181789  3.622888
C    -2.651384  0.544352  3.004956
C    -3.505414  -0.618253  2.473736
C    -4.993413  -0.225151  2.393390
N    -5.813275  -1.323838  1.885956
C    -7.146239  -1.477207  2.083603
N    -7.720903  -2.629162  1.718932
N    -7.868954  -0.507511  2.645195
H    -2.680293  1.393099  2.304485
H    -3.066274  0.916398  3.954128
H    -3.408384  -1.500278  3.126181
H    -3.154716  -0.919941  1.473818
H    -5.107625  0.658683  1.739572
H    -5.369495  0.048301  3.390972
H    -5.382504  -1.964769  1.223754
H    -8.731959  -2.727608  1.681672
H    -7.176995  -3.463966  1.524228
H    -8.833011  -0.669423  2.922235
H    -7.553136  0.455349  2.662803
N    -0.834920  -0.547382  5.615328
C    -0.640210  -1.530303  6.670161
H    -0.691772  0.434015  5.850816
H    -1.089290  -2.482631  6.367573
H    -1.084211  -1.145970  7.597356
H    0.434754  -1.698053  6.856748
Hg    2.249188  3.126335  0.846260
