37
Energy: -574592.9491452  eV PBE+vdW (tier 2 basis)
C    0.848710  0.410247  -0.639568
C    0.596996  0.369081  0.824123
O    1.210367  -0.397145  1.634594
H    0.385709  1.265097  -1.140952
H    0.490683  -0.524183  -1.099559
H    1.933294  0.455140  -0.816869
N    -0.369865  1.112875  1.423906
C    -1.554764  1.684376  0.808774
C    -1.504502  3.271568  0.663934
O    -2.042597  3.669765  -0.377006
H    -0.371476  1.023271  2.444694
H    -1.590960  1.346849  -0.230889
C    -2.846987  1.267906  1.564020
C    -4.159395  1.944185  1.130805
C    -4.638824  1.587876  -0.299208
N    -5.892948  2.241342  -0.651697
C    -6.030670  3.391461  -1.357755
N    -7.258273  3.758745  -1.741914
N    -4.966781  4.134859  -1.662755
H    -2.715371  1.469947  2.638174
H    -2.930300  0.173909  1.465557
H    -4.089087  3.036227  1.235864
H    -4.929721  1.623597  1.846318
H    -4.814452  0.504977  -0.373807
H    -3.892603  1.849100  -1.061153
H    -6.752251  1.796984  -0.333931
H    -7.432783  4.660700  -2.177292
H    -8.052812  3.128014  -1.682881
H    -5.048527  4.920413  -2.300954
H    -4.049297  3.967842  -1.257729
N    -0.994540  4.069336  1.598756
C    -0.410756  3.753097  2.905831
H    -1.042588  5.059872  1.354791
H    -0.386436  4.681240  3.486744
H    0.620065  3.389331  2.814559
H    -1.032670  3.045703  3.467867
Hg    3.369723  -1.204405  1.504837
