37
Energy: -574593.3481426  eV PBE+vdW (tier 2 basis)
C    -0.570332  0.407580  -0.127763
C    -0.313694  -0.069418  1.267149
O    0.918381  -0.179663  1.586337
H    -0.181603  -0.339524  -0.835548
H    -0.002898  1.332771  -0.303084
H    -1.634261  0.586842  -0.322430
N    -1.365409  -0.344083  2.062721
C    -1.367692  -0.604557  3.510996
C    -1.035751  -2.084829  3.856018
O    0.125851  -2.358576  4.353746
H    -2.274192  -0.216927  1.621789
H    -0.517472  -0.048243  3.939936
C    -2.626189  -0.040827  4.218925
C    -2.603450  1.496333  4.364244
C    -3.569414  2.067745  5.426603
N    -4.988757  2.129951  5.054431
C    -5.732104  3.262554  4.974065
N    -7.052336  3.190988  5.164495
N    -5.165877  4.438143  4.688119
H    -2.649807  -0.498366  5.220664
H    -3.537119  -0.376869  3.702751
H    -2.783608  1.984307  3.394879
H    -1.596660  1.805285  4.687149
H    -3.244524  3.082801  5.685469
H    -3.488639  1.486595  6.357989
H    -5.530891  1.279041  5.169042
H    -7.664387  3.960558  4.909612
H    -7.482808  2.418136  5.661103
H    -5.678598  5.306592  4.805935
H    -4.239416  4.509099  4.287796
N    -1.870555  -3.096862  3.723808
C    -3.281442  -3.134973  3.331435
H    -1.468048  -3.995930  4.009776
H    -3.930740  -3.040304  4.212072
H    -3.468150  -4.110851  2.869035
H    -3.510464  -2.354975  2.600839
Hg    1.716053  -1.225546  3.352894
