37
Energy: -574593.4595743  eV PBE+vdW (tier 2 basis)
C    -1.469461  0.444524  0.608732
C    -0.850458  0.012566  1.899705
O    -0.271860  -1.134750  1.855452
H    -0.663970  0.728975  -0.087464
H    -2.172385  1.276825  0.727596
H    -1.985101  -0.411721  0.151136
N    -0.929452  0.838377  2.958311
C    -0.773140  0.672064  4.441955
C    0.693106  0.795767  4.938208
O    1.543233  -0.179124  4.929683
H    -1.370634  1.723902  2.715395
H    -1.282566  1.565912  4.828431
C    -1.536950  -0.542857  5.027179
C    -1.669047  -0.461428  6.561572
C    -2.383739  -1.647252  7.243984
N    -3.846572  -1.570461  7.202079
C    -4.675658  -2.011842  8.179595
N    -5.968907  -1.677904  8.134680
N    -4.212230  -2.753257  9.189467
H    -1.056416  -1.496978  4.751260
H    -2.520445  -0.553684  4.534343
H    -2.174253  0.473022  6.851124
H    -0.664096  -0.420809  7.008472
H    -2.091985  -1.634399  8.301877
H    -2.032299  -2.602464  6.818601
H    -4.297390  -1.331445  6.324956
H    -6.303125  -0.899886  7.577309
H    -6.655541  -2.152433  8.712997
H    -4.786042  -2.926785  10.009501
H    -3.364744  -3.302663  9.110388
N    1.070759  1.939994  5.469095
C    2.410026  2.243450  5.992781
H    0.367836  2.671468  5.575251
H    3.146971  1.579997  5.532847
H    2.421568  2.102794  7.082595
H    2.637022  3.290823  5.765755
Hg    1.236946  -1.569317  3.314157
