37
Energy: -574592.9397725  eV PBE+vdW (tier 2 basis)
C    0.439853  0.677672  0.389694
C    0.124288  0.108174  1.725476
O    0.957240  -0.511953  2.456170
H    -0.322519  1.365858  0.012510
H    0.584687  -0.141390  -0.332451
H    1.395548  1.218815  0.445983
N    -1.128125  0.148919  2.260711
C    -2.379657  0.329461  1.557854
C    -2.982285  1.808411  1.769493
O    -3.416278  2.274502  0.717249
H    -1.170959  -0.206008  3.221075
H    -2.174937  0.309427  0.484419
C    -3.436292  -0.741037  1.938444
C    -4.866647  -0.551597  1.394403
C    -5.034604  -0.749939  -0.131113
N    -6.412503  -0.539972  -0.575351
C    -7.407664  -1.455312  -0.673412
N    -8.648529  -1.025597  -0.923209
N    -7.165586  -2.758419  -0.512350
H    -3.509640  -0.798466  3.034637
H    -3.026477  -1.709818  1.609597
H    -5.259586  0.437150  1.671233
H    -5.499755  -1.283859  1.915184
H    -4.689633  -1.748883  -0.433469
H    -4.428317  -0.028541  -0.694634
H    -6.653075  0.407275  -0.856473
H    -9.396836  -1.671393  -1.159926
H    -8.899322  -0.042663  -0.882940
H    -6.230566  -3.139974  -0.584877
H    -7.924787  -3.433041  -0.530287
N    -3.039826  2.399883  2.960797
C    -2.609995  1.925868  4.278921
H    -3.456021  3.332245  2.927763
H    -3.113225  2.543271  5.030647
H    -1.528055  2.042423  4.419947
H    -2.921431  0.890534  4.461700
Hg    3.251580  -0.170441  2.642596
