37
Energy: -574593.1803338  eV PBE+vdW (tier 2 basis)
C    0.380111  0.210091  0.927608
C    -0.176572  0.155291  2.302930
O    0.437445  0.588153  3.329222
H    -0.259678  -0.256353  0.173717
H    1.349270  -0.313818  0.926514
H    0.586031  1.255174  0.655082
N    -1.410560  -0.335935  2.601142
C    -2.615773  -0.476146  1.772568
C    -2.437088  -1.782122  0.887699
O    -2.140037  -1.681035  -0.293669
H    -1.560171  -0.407517  3.612173
H    -3.422774  -0.666387  2.494430
C    -2.993256  0.750971  0.916265
C    -4.441886  0.691381  0.397583
C    -4.815749  1.976126  -0.381260
N    -6.232785  2.037001  -0.737108
C    -6.777434  2.101053  -1.976925
N    -8.034505  2.537800  -2.100859
N    -6.083703  1.734170  -3.056966
H    -2.294292  0.837656  0.073479
H    -2.864865  1.638928  1.553507
H    -5.135076  0.581397  1.246055
H    -4.587926  -0.181297  -0.255266
H    -4.214534  2.082397  -1.292659
H    -4.600155  2.861027  0.238686
H    -6.884796  2.173039  0.032546
H    -8.546912  2.435601  -2.972496
H    -8.496799  3.062914  -1.364823
H    -5.254636  1.157146  -2.993425
H    -6.431834  1.928001  -3.991087
N    -2.616875  -2.957826  1.535418
C    -2.601022  -4.241383  0.848293
H    -2.978365  -2.940150  2.487881
H    -2.301718  -5.015695  1.565589
H    -1.910665  -4.186673  -0.001487
H    -3.601544  -4.504344  0.465769
Hg    2.718078  0.559981  3.785530
