37
Energy: -574592.8666436  eV PBE+vdW (tier 2 basis)
C    0.499364  0.940413  -0.134930
C    0.416355  0.795629  1.340516
O    1.503048  0.862986  2.014706
H    0.798348  1.965057  -0.403531
H    -0.429580  0.652868  -0.637986
H    1.314486  0.290823  -0.494227
N    -0.743342  0.552649  1.997054
C    -2.005473  1.286704  1.833247
C    -1.802458  2.593917  2.647279
O    -1.094095  2.570698  3.720046
H    -0.602604  0.230714  2.957101
H    -2.137511  1.517864  0.768277
C    -3.172434  0.391633  2.337230
C    -4.591149  0.911859  2.043797
C    -5.712150  -0.137189  2.156354
N    -6.045263  -0.513442  3.534993
C    -6.845595  -1.560812  3.866459
N    -7.067153  -1.819129  5.160521
N    -7.380824  -2.337545  2.925412
H    -3.035790  0.208589  3.414601
H    -3.028072  -0.575561  1.832736
H    -4.645789  1.262891  1.002981
H    -4.837913  1.783241  2.670973
H    -5.422584  -1.048989  1.612261
H    -6.606176  0.277449  1.659162
H    -5.961977  0.211609  4.243474
H    -6.523712  -1.383217  5.897472
H    -7.773852  -2.488061  5.453444
H    -7.453689  -2.043254  1.958535
H    -7.868300  -3.194900  3.169982
N    -2.361101  3.744871  2.299319
C    -3.297187  4.068609  1.225736
H    -2.108198  4.524289  2.916417
H    -2.942111  4.978850  0.724028
H    -4.291923  4.279908  1.642386
H    -3.366893  3.257893  0.497383
Hg    1.179204  2.057095  3.898375
