37
Energy: -574592.6854515  eV PBE+vdW (tier 2 basis)
C    -0.367147  -0.334173  -0.361908
C    -0.242532  -0.020076  1.083230
O    0.881631  -0.020225  1.686673
H    -1.392464  -0.381452  -0.721809
H    0.127236  -1.289830  -0.576507
H    0.166545  0.460682  -0.914109
N    -1.264133  0.331542  1.918679
C    -2.655937  -0.114309  2.017160
C    -2.770446  -1.668619  1.836671
O    -2.117587  -2.206938  0.945182
H    -0.889490  0.651067  2.815975
H    -2.909536  0.113727  3.059775
C    -3.745677  0.620187  1.163953
C    -3.842091  0.380671  -0.350638
C    -5.229590  0.651657  -0.960734
N    -5.607301  2.069624  -0.968155
C    -6.852791  2.530591  -1.252999
N    -7.091641  3.844031  -1.162541
N    -7.830123  1.689424  -1.590895
H    -3.625588  1.689383  1.390672
H    -4.694795  0.316816  1.633072
H    -3.634917  -0.674898  -0.585360
H    -3.088501  0.971250  -0.893002
H    -5.998989  0.096449  -0.402503
H    -5.221661  0.262375  -1.993666
H    -4.857911  2.752647  -1.045047
H    -7.953405  4.250826  -1.515713
H    -6.448936  4.477519  -0.699156
H    -8.790153  2.011307  -1.676300
H    -7.641321  0.753459  -1.930936
N    -3.599039  -2.353516  2.654209
C    -4.266363  -1.916019  3.875703
H    -3.565442  -3.363602  2.491921
H    -5.034015  -2.659618  4.121134
H    -4.754554  -0.944071  3.747576
H    -3.567505  -1.874762  4.727011
Hg    2.944287  0.319308  0.764533
