37
Energy: -574593.7195525  eV PBE+vdW (tier 2 basis)
C    2.261106  1.417995  2.590736
C    1.145141  1.554350  1.603908
O    1.304592  0.913731  0.508444
H    3.142270  1.948956  2.198335
H    2.546235  0.359579  2.670690
H    2.001999  1.806957  3.581912
N    0.086957  2.322893  1.925072
C    -1.248313  2.408838  1.294307
C    -1.292546  3.505385  0.192279
O    -1.042303  3.217474  -1.039793
H    0.179363  2.807808  2.816566
H    -1.428691  1.459504  0.762605
C    -2.355204  2.554994  2.364570
C    -2.598921  1.290362  3.213895
C    -3.763640  1.498234  4.201910
N    -4.018272  0.285650  4.981879
C    -5.192465  -0.034243  5.575626
N    -5.349462  -1.259536  6.085198
N    -6.194077  0.848788  5.629916
H    -3.283401  2.811855  1.832290
H    -2.122427  3.408843  3.025090
H    -1.688305  1.023760  3.773455
H    -2.836006  0.441375  2.555127
H    -4.680792  1.738757  3.644496
H    -3.540737  2.347614  4.870536
H    -3.217279  -0.277412  5.253315
H    -6.117666  -1.475867  6.713255
H    -4.732726  -2.026280  5.839460
H    -7.121566  0.561346  5.928004
H    -6.030863  1.847031  5.574857
N    -1.616491  4.744553  0.490615
C    -1.675616  5.861196  -0.466143
H    -1.924435  4.940872  1.441768
H    -0.955931  5.693800  -1.272439
H    -1.441132  6.785411  0.071080
H    -2.685759  5.933776  -0.891732
Hg    0.234365  1.470649  -1.316089
