37
Energy: -574593.5850932  eV PBE+vdW (tier 2 basis)
C    1.071124  -0.281729  0.276703
C    0.294015  -0.670380  1.495422
O    0.314655  -1.925803  1.763576
H    2.144951  -0.330253  0.519350
H    0.819759  0.719327  -0.091598
H    0.899976  -1.023613  -0.515297
N    -0.324654  0.297948  2.193118
C    -1.397740  0.316712  3.237724
C    -0.888837  0.068034  4.682064
O    -0.690702  -1.103456  5.192194
H    -0.124711  1.224311  1.820587
H    -1.713833  1.369193  3.228881
C    -2.659664  -0.516813  2.901447
C    -3.470911  0.043975  1.715261
C    -4.804143  -0.706165  1.525661
N    -5.566632  -0.145297  0.408623
C    -6.915180  -0.147325  0.290109
N    -7.483288  0.585591  -0.671538
N    -7.676459  -0.847987  1.137005
H    -3.282397  -0.516453  3.809653
H    -2.406566  -1.572065  2.709215
H    -2.878194  -0.022132  0.789326
H    -3.687241  1.109721  1.886290
H    -5.414342  -0.604174  2.434435
H    -4.616357  -1.781024  1.362771
H    -5.050665  0.119317  -0.425748
H    -8.454129  0.448622  -0.935918
H    -6.979327  1.321261  -1.154650
H    -8.684050  -0.720878  1.151112
H    -7.320210  -1.657855  1.630143
N    -0.738633  1.112669  5.470532
C    -0.300503  1.069100  6.872401
H    -1.007203  2.027964  5.109596
H    -1.178192  1.046196  7.533610
H    0.279778  1.974878  7.077855
H    0.304983  0.174997  7.043864
Hg    -0.061473  -2.601416  3.779220
