37
Energy: -574593.3898508  eV PBE+vdW (tier 2 basis)
C    -0.158576  1.026268  0.411185
C    -0.085916  0.672208  1.863177
O    0.983804  1.037433  2.458981
H    -1.111304  0.732079  -0.045148
H    0.676588  0.545547  -0.118031
H    -0.021352  2.112090  0.300663
N    -1.119831  0.015380  2.423255
C    -1.388240  -0.209775  3.853608
C    -0.625083  -1.446004  4.407801
O    0.380224  -1.250458  5.194379
H    -1.880927  -0.196501  1.780308
H    -0.945959  0.635662  4.406237
C    -2.910694  -0.156505  4.143492
C    -3.252336  -0.295444  5.640309
C    -4.756443  -0.368938  5.977379
N    -5.435773  0.929872  5.986780
C    -6.486060  1.249714  6.782686
N    -6.880694  2.525381  6.853396
N    -7.109862  0.315973  7.504339
H    -3.435941  -0.929130  3.564178
H    -3.250753  0.813937  3.749734
H    -2.792066  0.517573  6.221872
H    -2.819269  -1.229729  6.029706
H    -4.842380  -0.784121  6.990044
H    -5.266455  -1.065617  5.290129
H    -5.242870  1.585344  5.236212
H    -7.773349  2.778443  7.266621
H    -6.280016  3.289648  6.565275
H    -7.771575  0.577310  8.229541
H    -7.079381  -0.666241  7.257605
N    -0.944913  -2.701172  4.155735
C    -2.066861  -3.277677  3.409658
H    -0.315899  -3.377756  4.600796
H    -2.926958  -3.451863  4.070140
H    -1.736992  -4.245687  3.015935
H    -2.353646  -2.642688  2.567802
Hg    1.648758  0.397441  4.456216
