37
Energy: -574593.0380727  eV PBE+vdW (tier 2 basis)
C    -0.695021  1.854967  0.019468
C    -0.299206  0.911335  1.098193
O    0.896836  0.610523  1.387479
H    -1.727384  2.208365  0.101896
H    -0.559303  1.362274  -0.956924
H    -0.024773  2.725084  0.028409
N    -1.222915  0.226296  1.832192
C    -2.611392  -0.039556  1.490484
C    -3.588403  1.033400  2.161831
O    -4.618697  1.248472  1.532149
H    -0.803490  -0.360676  2.561454
H    -2.757129  0.141994  0.420216
C    -3.008332  -1.487797  1.870719
C    -4.512124  -1.813948  1.991325
C    -5.374831  -1.830229  0.720617
N    -5.323918  -3.119199  0.028475
C    -6.101366  -3.471871  -1.028370
N    -5.984132  -4.704974  -1.532464
N    -6.951480  -2.597841  -1.564914
H    -2.560083  -1.719248  2.849906
H    -2.522459  -2.154571  1.141095
H    -4.986308  -1.114962  2.692280
H    -4.592463  -2.791525  2.490967
H    -5.089893  -1.023816  0.021613
H    -6.416710  -1.624460  1.023202
H    -4.833553  -3.877174  0.496510
H    -6.601038  -5.040059  -2.267419
H    -5.283650  -5.360695  -1.202450
H    -7.510311  -2.839042  -2.378259
H    -7.165241  -1.712121  -1.122533
N    -3.246605  1.594658  3.325623
C    -4.134223  2.496507  4.068256
H    -2.403286  1.267961  3.790825
H    -3.513686  3.177100  4.661892
H    -4.789402  1.934400  4.748833
H    -4.751483  3.057299  3.358272
Hg    2.838343  1.913557  1.215604
