37
Energy: -574592.6050420  eV PBE+vdW (tier 2 basis)
C    -0.958260  -0.572373  -0.738408
C    -0.740905  -0.009189  0.621489
O    0.341800  0.633333  0.822682
H    -0.386891  0.028947  -1.458427
H    -2.013508  -0.590012  -1.023224
H    -0.542133  -1.592021  -0.787444
N    -1.652424  -0.071438  1.635948
C    -2.339841  -1.267079  2.149829
C    -1.207593  -2.140754  2.788997
O    -0.024061  -2.039397  2.325999
H    -1.404403  0.578475  2.386353
H    -2.970159  -0.894670  2.971622
C    -3.238810  -2.080224  1.187646
C    -4.688778  -1.578250  1.010406
C    -4.938106  -0.441737  0.002952
N    -6.383068  -0.256272  -0.155026
C    -7.015972  0.826259  -0.667143
N    -8.344517  0.910621  -0.547762
N    -6.325854  1.804765  -1.259371
H    -3.315045  -3.089440  1.615380
H    -2.741895  -2.236770  0.222805
H    -5.108318  -1.290084  1.986941
H    -5.267815  -2.453268  0.676101
H    -4.486856  -0.702253  -0.971858
H    -4.499346  0.510143  0.340296
H    -6.969440  -1.067563  0.028575
H    -8.882079  1.593898  -1.074675
H    -8.867495  0.317896  0.089649
H    -6.784546  2.669487  -1.531892
H    -5.411172  1.639087  -1.661221
N    -1.460467  -2.986861  3.779289
C    -2.726731  -3.375529  4.391282
H    -0.626008  -3.461503  4.140124
H    -2.598625  -3.391308  5.481566
H    -2.999150  -4.392644  4.068868
H    -3.528998  -2.681585  4.127139
Hg    1.588458  -0.318032  2.477625
