37
Energy: -574593.4576090  eV PBE+vdW (tier 2 basis)
C    0.197470  1.932883  1.301196
C    0.084703  0.448141  1.450236
O    0.996266  -0.216898  0.837204
H    1.064139  2.280614  1.885099
H    -0.706658  2.464129  1.620577
H    0.411991  2.173791  0.250407
N    -0.917925  -0.045579  2.197607
C    -1.551578  -1.395711  2.338429
C    -0.779879  -2.335534  3.296467
O    0.151087  -3.139767  2.885679
H    -1.476556  0.693747  2.620343
H    -2.493704  -1.161896  2.848209
C    -1.948633  -2.040151  0.988109
C    -2.970957  -3.184975  1.131666
C    -3.497033  -3.652121  -0.240289
N    -4.460690  -4.743940  -0.091968
C    -5.475685  -5.024514  -0.942916
N    -6.397225  -5.920954  -0.579563
N    -5.577945  -4.397682  -2.119303
H    -1.068394  -2.395306  0.426992
H    -2.377787  -1.228360  0.382113
H    -3.825058  -2.848563  1.739391
H    -2.512785  -4.037946  1.657529
H    -2.655953  -3.965523  -0.882005
H    -4.007978  -2.816128  -0.738858
H    -4.254874  -5.459412  0.599543
H    -7.043244  -6.317309  -1.255376
H    -6.506594  -6.218878  0.383616
H    -6.420040  -4.487058  -2.680167
H    -4.772323  -3.994464  -2.582292
N    -1.091283  -2.420576  4.575193
C    -2.160194  -1.808421  5.370318
H    -0.493070  -3.074107  5.094196
H    -1.700139  -1.310271  6.234434
H    -2.832493  -2.593579  5.740156
H    -2.730403  -1.074499  4.796932
Hg    1.445421  -2.247179  1.396097
