37
Energy: -574592.8467492  eV PBE+vdW (tier 2 basis)
C    0.048890  0.334900  0.102685
C    -0.109585  -0.721439  1.135043
O    0.779795  -1.612812  1.342689
H    0.256262  -0.132570  -0.868828
H    0.927032  0.943462  0.384146
H    -0.806823  0.999933  -0.002321
N    -1.185579  -0.864217  1.961438
C    -2.598824  -0.552045  1.742421
C    -3.106902  -1.302419  0.442019
O    -2.537146  -1.057628  -0.616466
H    -1.022115  -1.600719  2.653363
H    -3.102054  -1.000191  2.611332
C    -2.948841  0.959696  1.653443
C    -4.453946  1.265854  1.840595
C    -4.952767  1.505293  3.288623
N    -4.762697  2.867317  3.792922
C    -5.713432  3.831680  3.872188
N    -5.496200  4.887227  4.663861
N    -6.847683  3.737808  3.175853
H    -2.646045  1.340843  0.671602
H    -2.338724  1.487941  2.400554
H    -5.062300  0.454536  1.412773
H    -4.692724  2.151347  1.235262
H    -4.454899  0.830974  4.000939
H    -6.023577  1.272641  3.353751
H    -3.871782  3.093529  4.225146
H    -6.093621  5.708459  4.624451
H    -4.803423  4.869168  5.405637
H    -6.950189  3.110107  2.388360
H    -7.625993  4.364551  3.358602
N    -4.140866  -2.151627  0.580409
C    -4.671058  -2.942431  -0.528807
H    -4.474533  -2.370255  1.516713
H    -4.164815  -3.919245  -0.586919
H    -4.507347  -2.404567  -1.468534
H    -5.739129  -3.118275  -0.355593
Hg    3.019511  -1.404589  0.949894
