37
Energy: -574593.2190640  eV PBE+vdW (tier 2 basis)
C    0.058327  1.112952  0.600945
C    0.011559  -0.244828  1.228957
O    1.023344  -0.987230  0.967170
H    0.393541  1.017620  -0.441341
H    0.822474  1.712987  1.119924
H    -0.906342  1.632569  0.630516
N    -1.048075  -0.554337  1.998797
C    -1.604252  -1.831256  2.542990
C    -0.885914  -2.315100  3.825730
O    0.149569  -3.094245  3.798496
H    -1.681173  0.234828  2.109311
H    -2.612177  -1.539264  2.861890
C    -1.773408  -2.960221  1.494169
C    -2.751931  -2.623169  0.340382
C    -4.230162  -3.021980  0.529598
N    -4.500563  -4.412263  0.150128
C    -5.631165  -4.861352  -0.444084
N    -5.638253  -6.079035  -0.994883
N    -6.726081  -4.097297  -0.499232
H    -2.094859  -3.858241  2.044006
H    -0.800737  -3.224590  1.053501
H    -2.384390  -3.089194  -0.583798
H    -2.726009  -1.542814  0.137972
H    -4.836782  -2.383666  -0.125980
H    -4.564665  -2.835865  1.565279
H    -3.823475  -5.124753  0.403207
H    -6.507905  -6.533959  -1.255581
H    -4.781649  -6.566814  -1.232404
H    -7.507539  -4.354528  -1.094836
H    -6.888807  -3.341125  0.154393
N    -1.353262  -2.031035  5.026396
C    -2.571150  -1.348070  5.471219
H    -0.781922  -2.422882  5.784360
H    -2.288546  -0.627029  6.249448
H    -3.262871  -2.079210  5.910929
H    -3.061623  -0.812774  4.655127
Hg    1.570876  -2.661832  2.226296
