37
Energy: -574593.5843102  eV PBE+vdW (tier 2 basis)
C    1.277635  1.668047  0.931949
C    0.953370  0.422039  1.695697
O    1.975753  -0.273262  2.040302
H    1.713918  2.400116  1.630119
H    0.405109  2.105430  0.433748
H    2.056548  1.446574  0.189559
N    -0.337091  0.154764  1.960831
C    -1.084599  -1.059801  2.416682
C    -1.054489  -1.288324  3.950620
O    -0.101399  -1.896940  4.576607
H    -0.954371  0.900520  1.645367
H    -2.126588  -0.790684  2.193866
C    -0.789523  -2.352687  1.614845
C    -1.325596  -2.312179  0.168876
C    -1.147498  -3.663568  -0.550081
N    -1.705207  -3.612736  -1.903162
C    -2.182813  -4.669103  -2.602048
N    -2.853833  -4.447391  -3.735902
N    -2.013175  -5.917935  -2.156396
H    -1.268498  -3.178224  2.163874
H    0.288549  -2.580526  1.603175
H    -0.810858  -1.523047  -0.401431
H    -2.396674  -2.058112  0.181087
H    -1.681208  -4.448504  0.005054
H    -0.079361  -3.937975  -0.583350
H    -1.579390  -2.754156  -2.431589
H    -3.041311  -5.197929  -4.393856
H    -3.228880  -3.534205  -3.968300
H    -2.504610  -6.692957  -2.591520
H    -1.256939  -6.162868  -1.528672
N    -2.110670  -0.922438  4.648588
C    -2.275070  -1.086387  6.099462
H    -2.914828  -0.552542  4.141817
H    -1.294845  -1.110975  6.583096
H    -2.806828  -2.025466  6.307733
H    -2.870374  -0.246710  6.473472
Hg    1.856644  -1.636856  3.712883
