37
Energy: -574592.9548521  eV PBE+vdW (tier 2 basis)
C    0.215999  0.365306  0.674691
C    -0.403863  -0.222596  1.893003
O    0.216299  -1.044989  2.657065
H    0.746147  -0.416586  0.116619
H    0.961596  1.114680  0.989832
H    -0.491776  0.863300  0.006692
N    -1.666384  0.024723  2.281766
C    -2.751778  0.689297  1.582911
C    -3.533332  1.440656  2.721058
O    -3.654240  0.867014  3.802137
H    -1.925411  -0.349056  3.204388
H    -2.333600  1.392910  0.856194
C    -3.765109  -0.250812  0.844966
C    -4.384249  -1.368366  1.699990
C    -5.737592  -1.916233  1.219571
N    -5.656652  -2.728961  0.000391
C    -6.734197  -3.147693  -0.713036
N    -6.532725  -3.853784  -1.831951
N    -7.971090  -2.841007  -0.323407
H    -3.230130  -0.655593  -0.028008
H    -4.551140  0.404857  0.439330
H    -4.581357  -0.994522  2.718543
H    -3.671077  -2.197009  1.835259
H    -6.434630  -1.085225  1.030691
H    -6.158807  -2.523051  2.040224
H    -4.798965  -3.254177  -0.150817
H    -7.299700  -4.318019  -2.310537
H    -5.619573  -3.921787  -2.268272
H    -8.771085  -3.040104  -0.917347
H    -8.180388  -2.547412  0.623758
N    -4.061834  2.660149  2.473203
C    -3.900473  3.529698  1.318021
H    -4.463878  3.089050  3.312548
H    -4.781060  4.183100  1.261237
H    -3.824524  2.956547  0.388623
H    -3.017945  4.181404  1.426813
Hg    2.425686  -1.014552  3.194719
