37
Energy: -574592.6823121  eV PBE+vdW (tier 2 basis)
C    -0.574585  -0.200803  -0.175746
C    0.044063  0.007955  1.162114
O    1.277278  0.296776  1.322827
H    -1.666259  -0.247590  -0.160179
H    -0.204357  -1.158160  -0.578839
H    -0.250975  0.592219  -0.861781
N    -0.630659  -0.096919  2.328954
C    -2.065450  0.036777  2.669717
C    -2.957416  -0.992734  1.912991
O    -3.979777  -0.647836  1.321649
H    -0.003145  -0.031423  3.137443
H    -2.093256  -0.294015  3.721871
C    -2.610784  1.485812  2.712120
C    -2.660808  2.366644  1.448479
C    -3.969311  2.383516  0.628253
N    -5.097785  2.963627  1.349453
C    -6.342224  2.430949  1.485499
N    -7.351991  3.243330  1.807370
N    -6.533741  1.122299  1.318720
H    -1.985318  2.000088  3.456100
H    -3.604377  1.420905  3.179800
H    -1.850686  2.128965  0.745054
H    -2.446724  3.398817  1.762693
H    -4.247129  1.391400  0.264758
H    -3.796566  3.011743  -0.264005
H    -4.993200  3.930843  1.654756
H    -8.265478  2.878651  2.065245
H    -7.284013  4.252394  1.708184
H    -5.753349  0.468438  1.296962
H    -7.471662  0.735144  1.274104
N    -2.573111  -2.290860  2.015810
C    -3.366873  -3.401143  1.514545
H    -1.806256  -2.516703  2.648466
H    -3.917088  -3.087390  0.621040
H    -4.096347  -3.736553  2.272608
H    -2.700483  -4.245537  1.300083
Hg    3.092497  -0.242274  0.015530
