37
Energy: -574592.7662116  eV PBE+vdW (tier 2 basis)
C    0.219008  -0.318310  -0.001395
C    0.200790  -0.280739  1.482945
O    1.327448  -0.152048  2.075620
H    -0.719938  0.023575  -0.443788
H    0.473750  -1.330610  -0.352634
H    1.039205  0.332422  -0.341355
N    -0.922468  -0.277022  2.253031
C    -2.061009  -1.214834  2.274529
C    -1.547750  -2.365363  3.193483
O    -0.349244  -2.778292  3.016879
H    -0.724507  0.094209  3.186099
H    -2.871846  -0.672621  2.782022
C    -2.560617  -1.687703  0.891800
C    -3.917539  -2.421123  0.911065
C    -4.397115  -2.706212  -0.526183
N    -5.689576  -3.393342  -0.537990
C    -6.576363  -3.390067  -1.564059
N    -7.790672  -3.915392  -1.366578
N    -6.257616  -2.855481  -2.743825
H    -1.800079  -2.324049  0.417713
H    -2.664882  -0.782715  0.276448
H    -4.676326  -1.807300  1.419164
H    -3.833507  -3.372153  1.460823
H    -3.642316  -3.310594  -1.059598
H    -4.515316  -1.757220  -1.069908
H    -5.871913  -4.065816  0.202425
H    -8.419086  -4.100466  -2.143634
H    -8.155813  -4.092935  -0.436491
H    -6.965373  -2.713352  -3.458899
H    -5.295316  -2.731781  -3.035349
N    -2.298614  -2.909736  4.140782
C    -3.693462  -2.679279  4.507949
H    -1.805815  -3.615246  4.698407
H    -3.746767  -2.488889  5.588210
H    -4.284501  -3.580907  4.294302
H    -4.114993  -1.830110  3.965894
Hg    1.659018  -1.743083  3.645285
