37
Energy: -574593.5831363  eV PBE+vdW (tier 2 basis)
C    0.339320  -0.822350  -0.232651
C    0.181774  -0.279010  1.151646
O    1.029424  0.621794  1.481002
H    -0.492574  -1.471207  -0.529857
H    1.289617  -1.374806  -0.289501
H    0.422065  0.015320  -0.940633
N    -0.805521  -0.761028  1.930418
C    -1.380572  -0.206222  3.177016
C    -0.656201  -0.772673  4.429444
O    0.321797  -0.134071  4.973208
H    -1.339426  -1.516018  1.501575
H    -1.174020  0.877025  3.187062
C    -2.920455  -0.375171  3.158497
C    -3.639679  0.368138  4.302630
C    -5.157545  0.114322  4.418551
N    -5.971667  0.887501  3.476231
C    -7.227195  1.335460  3.723650
N    -7.782218  2.210048  2.878439
N    -7.899528  0.931725  4.804284
H    -3.183104  -1.447836  3.170325
H    -3.253408  -0.000615  2.178366
H    -3.460722  1.451213  4.226303
H    -3.213838  0.057467  5.268566
H    -5.459697  0.419091  5.428973
H    -5.372592  -0.963642  4.321435
H    -5.669947  0.951373  2.509417
H    -7.226661  2.754699  2.228437
H    -8.777251  2.411140  2.907057
H    -8.757115  1.398329  5.084955
H    -7.685579  0.062998  5.279716
N    -1.038862  -1.911847  4.965287
C    -0.395085  -2.570092  6.113128
H    -1.878460  -2.352804  4.592971
H    -0.528788  -3.651312  6.007599
H    -0.862589  -2.235088  7.048957
H    0.668566  -2.315728  6.132716
Hg    1.440737  1.112877  3.564781
