37
Energy: -574593.4167441  eV PBE+vdW (tier 2 basis)
C    1.382245  0.994288  0.401389
C    0.831105  -0.186675  1.135624
O    1.618538  -1.201120  1.177304
H    2.255651  1.379147  0.948660
H    0.644508  1.792391  0.259666
H    1.750513  0.662314  -0.580556
N    -0.395527  -0.089866  1.677515
C    -1.405194  -1.082720  2.171175
C    -1.154965  -1.531971  3.631788
O    -0.410447  -2.551458  3.932001
H    -0.791441  0.840639  1.557294
H    -2.325469  -0.487360  2.196959
C    -1.676901  -2.246131  1.187263
C    -3.016929  -2.963287  1.445334
C    -3.279302  -4.074529  0.405312
N    -4.511312  -4.822682  0.668958
C    -5.528638  -5.047576  -0.196747
N    -6.300272  -6.123256  -0.025998
N    -5.775194  -4.207399  -1.207992
H    -0.857739  -2.985064  1.190058
H    -1.672400  -1.805571  0.179243
H    -3.842022  -2.234950  1.416253
H    -3.024136  -3.409620  2.452339
H    -2.440443  -4.788691  0.397858
H    -3.332669  -3.657309  -0.608128
H    -4.502743  -5.428640  1.484957
H    -7.200176  -6.207507  -0.489184
H    -6.001875  -6.916549  0.531586
H    -6.426593  -4.460378  -1.944427
H    -5.455458  -3.247686  -1.197825
N    -1.755674  -0.940853  4.645579
C    -2.771488  0.114872  4.704930
H    -1.493748  -1.334381  5.557034
H    -2.437699  0.865294  5.433613
H    -3.721601  -0.310158  5.054699
H    -2.915865  0.600010  3.737230
Hg    1.344357  -2.709567  2.681233
