37
Energy: -574592.9416293  eV PBE+vdW (tier 2 basis)
C    -1.927291  -1.665034  0.913317
C    -0.637949  -1.104205  1.403235
O    0.282771  -1.836151  1.920012
H    -2.314574  -2.388446  1.642399
H    -1.738161  -2.204088  -0.030917
H    -2.698489  -0.915535  0.717387
N    -0.349065  0.207136  1.381823
C    -1.235364  1.327336  1.093918
C    -0.297517  2.482057  0.625861
O    0.778336  2.645523  1.212925
H    0.599382  0.468308  1.675712
H    -1.912612  1.022092  0.286620
C    -2.115752  1.834443  2.292465
C    -1.547169  2.870013  3.274189
C    -0.450801  2.374442  4.249490
N    -0.008919  3.422333  5.162295
C    1.080406  4.215119  5.010352
N    1.427676  5.020309  6.020415
N    1.792280  4.187932  3.882418
H    -2.474401  0.940502  2.826623
H    -3.007776  2.285297  1.835321
H    -2.397777  3.222264  3.876660
H    -1.187000  3.757460  2.732919
H    0.431031  1.988016  3.724549
H    -0.845478  1.557030  4.870257
H    -0.595675  3.606834  5.973771
H    2.163143  5.714906  5.920229
H    1.017135  4.931972  6.945702
H    2.678201  4.679611  3.818081
H    1.465191  3.721299  3.040167
N    -0.753719  3.252382  -0.377424
C    0.032925  4.293386  -1.026273
H    -1.645240  3.011356  -0.808957
H    0.478958  3.918891  -1.961986
H    0.835295  4.615386  -0.356615
H    -0.633719  5.127532  -1.283118
Hg    0.726129  -3.984912  1.365986
