37
Energy: -574593.3802398  eV PBE+vdW (tier 2 basis)
C    1.301976  0.137657  0.023788
C    0.709430  0.138732  1.397592
O    1.350770  -0.029469  2.432973
H    0.629391  -0.263445  -0.743596
H    2.244550  -0.418876  0.038353
H    1.535613  1.182810  -0.244203
N    -0.677345  0.361979  1.475453
C    -1.480658  0.222198  2.645591
C    -1.210635  1.438519  3.686988
O    -2.280581  2.074051  3.893479
H    -1.165072  0.544398  0.598017
H    -2.524496  0.361418  2.339632
C    -1.373290  -1.114576  3.455583
C    -1.967707  -2.301724  2.681503
C    -1.938347  -3.589600  3.549601
N    -2.462163  -4.725541  2.799185
C    -2.004009  -6.004133  2.834959
N    -1.123052  -6.389542  3.759934
N    -2.446825  -6.867509  1.916396
H    -1.921922  -0.966853  4.397375
H    -0.319834  -1.289132  3.711657
H    -1.403657  -2.482545  1.755376
H    -3.010392  -2.087608  2.399772
H    -2.535116  -3.434759  4.462907
H    -0.906501  -3.818168  3.848030
H    -3.335018  -4.583329  2.294810
H    -0.674432  -7.299599  3.700130
H    -1.031787  -5.903640  4.645052
H    -2.908391  -6.560251  1.065938
H    -2.314316  -7.869820  2.024484
N    -0.006113  1.606208  4.170445
C    0.421979  2.650468  5.107404
H    0.705241  0.963957  3.771087
H    1.487970  2.495739  5.306813
H    -0.113582  2.567879  6.062579
H    0.305626  3.651617  4.669703
Hg    -2.758920  3.955067  5.164868
