37
Energy: -574593.0492817  eV PBE+vdW (tier 2 basis)
C    -0.399119  -0.687319  0.035969
C    -0.357235  0.009451  1.355311
O    0.724133  0.184032  2.031765
H    0.223077  -0.136192  -0.687089
H    -1.411948  -0.761288  -0.373541
H    0.009122  -1.702808  0.146188
N    -1.488666  0.460945  1.895490
C    -1.597853  1.070289  3.228711
C    -2.850759  0.438793  3.880863
O    -3.832690  0.268714  3.130907
H    -2.373936  0.211034  1.447986
H    -0.686691  0.811213  3.782286
C    -1.748388  2.615032  3.182156
C    -3.010123  3.212606  2.527224
C    -4.158525  3.501284  3.542561
N    -5.363595  4.009283  2.908917
C    -6.452832  3.285156  2.539912
N    -7.540503  3.943306  2.127445
N    -6.430576  1.953550  2.591935
H    -0.869961  2.981541  2.630285
H    -1.629251  2.992453  4.209019
H    -3.376856  2.582591  1.704575
H    -2.738432  4.174254  2.071155
H    -3.822728  4.269141  4.253000
H    -4.423373  2.612637  4.129171
H    -5.402204  5.010694  2.725970
H    -8.353903  3.454019  1.763205
H    -7.637855  4.948497  2.240873
H    -7.276374  1.415453  2.428977
H    -5.578482  1.424363  2.769368
N    -2.871187  0.158404  5.189945
C    -1.775334  0.200074  6.158046
H    -3.735355  -0.289218  5.504678
H    -2.207871  0.353566  7.153990
H    -1.087942  1.025024  5.949509
H    -1.226943  -0.753892  6.172698
Hg    2.798371  -0.195078  1.193647
