37
Energy: -574592.9645274  eV PBE+vdW (tier 2 basis)
C    -0.794504  0.734052  -0.472166
C    -0.311923  -0.003304  0.724925
O    0.747562  -0.703487  0.753762
H    -1.594643  1.447755  -0.255600
H    -1.143086  0.012951  -1.228332
H    0.045004  1.284279  -0.921048
N    -1.011073  -0.034130  1.895031
C    -2.442392  0.175384  2.085570
C    -2.757869  1.533170  2.837484
O    -3.958902  1.772699  2.995527
H    -0.530145  -0.558013  2.634571
H    -2.899921  0.321174  1.097972
C    -3.118831  -1.019687  2.822556
C    -4.341603  -1.632089  2.106562
C    -5.691158  -0.899705  2.220019
N    -6.336046  -1.064192  3.523087
C    -7.027110  -0.120324  4.221537
N    -7.969271  -0.522807  5.077127
N    -6.746015  1.172360  4.057961
H    -3.373912  -0.725579  3.849687
H    -2.371835  -1.820715  2.915805
H    -4.463852  -2.660779  2.478255
H    -4.131760  -1.746655  1.032682
H    -6.370067  -1.340048  1.466203
H    -5.615844  0.166988  1.986608
H    -6.485277  -2.026801  3.825931
H    -8.393239  0.120931  5.740412
H    -8.378501  -1.451762  5.029180
H    -5.864083  1.473760  3.645915
H    -7.351660  1.889083  4.447300
N    -1.759462  2.321109  3.224414
C    -1.949955  3.579177  3.957282
H    -0.809806  1.981661  3.097499
H    -1.088025  4.225171  3.761069
H    -2.017675  3.394509  5.037735
H    -2.867329  4.065536  3.610975
Hg    2.684579  -0.501847  -0.506934
