37
Energy: -574593.5406688  eV PBE+vdW (tier 2 basis)
C    -1.728444  2.055379  0.430964
C    -1.902032  0.740131  1.119222
O    -2.471943  -0.167787  0.417037
H    -1.136089  2.765538  1.019195
H    -2.720588  2.476960  0.210929
H    -1.237777  1.888094  -0.539831
N    -1.465144  0.603032  2.386153
C    -1.173149  -0.630428  3.156086
C    -2.393578  -1.064022  4.011054
O    -3.267647  -1.892390  3.549293
H    -1.092549  1.462446  2.788001
H    -1.023528  -1.446551  2.429369
C    0.170602  -0.463732  3.908017
C    0.701458  -1.763969  4.549230
C    2.223653  -1.787234  4.812461
N    2.697846  -1.002454  5.960643
C    3.376084  -1.502711  7.025120
N    3.193171  -2.763982  7.425605
N    4.220537  -0.711521  7.691431
H    0.097296  0.352160  4.648047
H    0.888587  -0.116218  3.148624
H    0.511612  -2.602045  3.860095
H    0.159213  -1.998505  5.477014
H    2.763863  -1.442802  3.917286
H    2.536697  -2.827518  4.962124
H    2.836213  -0.008104  5.807279
H    3.820891  -3.193976  8.097923
H    2.394479  -3.313587  7.136098
H    4.613162  0.126584  7.276043
H    4.579364  -0.972914  8.604971
N    -2.551805  -0.602066  5.232059
C    -3.696069  -0.897768  6.109399
H    -1.804729  -0.029513  5.621196
H    -4.591332  -1.060026  5.502049
H    -3.841314  -0.047186  6.782325
H    -3.493833  -1.801221  6.699965
Hg    -3.390179  -1.885094  1.371525
