37
Energy: -574593.7198581  eV PBE+vdW (tier 2 basis)
C    -1.259415  1.699885  -0.109436
C    -0.956196  0.383998  0.534088
O    0.207692  -0.086916  0.290283
H    -2.172931  2.163164  0.280085
H    -1.351404  1.545225  -1.195741
H    -0.407766  2.379146  0.036622
N    -1.902256  -0.197520  1.295777
C    -1.789820  -1.315395  2.258208
C    -2.059685  -2.687319  1.577428
O    -1.092698  -3.385859  1.087126
H    -2.790667  0.301368  1.310217
H    -0.740500  -1.362770  2.594541
C    -2.663641  -1.056048  3.507777
C    -2.152747  0.072921  4.426872
C    -3.043215  0.220382  5.676331
N    -2.536233  1.266184  6.566875
C    -2.784553  1.354615  7.895056
N    -2.101806  2.241207  8.625448
N    -3.678597  0.550839  8.478468
H    -2.692719  -1.995938  4.079264
H    -3.701498  -0.842657  3.196499
H    -2.128170  1.029364  3.880973
H    -1.122499  -0.146275  4.745451
H    -3.050362  -0.725579  6.237506
H    -4.080840  0.442057  5.372304
H    -2.114019  2.085712  6.139865
H    -1.250021  2.674287  8.285562
H    -2.393697  2.486591  9.566697
H    -3.750079  0.504878  9.490619
H    -4.432120  0.119969  7.956324
N    -3.278115  -3.178218  1.514464
C    -3.647245  -4.455288  0.882814
H    -4.019321  -2.679248  2.003992
H    -2.965222  -4.666992  0.054337
H    -4.676554  -4.373146  0.520207
H    -3.584267  -5.267382  1.619964
Hg    0.651191  -2.219242  0.491135
