37
Energy: -574593.4617444  eV PBE+vdW (tier 2 basis)
C    -1.396218  -3.103244  -0.101001
C    -0.928802  -2.147173  0.950892
O    0.215362  -1.619200  0.734323
H    -1.424319  -2.581073  -1.069106
H    -2.389334  -3.513786  0.117974
H    -0.664773  -3.917669  -0.199879
N    -1.720229  -1.915197  2.015219
C    -1.613024  -0.839588  3.017871
C    -0.627810  -1.201656  4.163234
O    0.517730  -0.606439  4.205848
H    -2.595323  -2.436929  2.007565
H    -1.134115  0.022056  2.523943
C    -3.022748  -0.357329  3.440340
C    -3.029703  0.872165  4.369506
C    -4.473480  1.325504  4.677044
N    -4.519792  2.463807  5.599443
C    -5.296118  3.570638  5.493600
N    -5.724817  4.006716  4.305005
N    -5.621723  4.239414  6.602430
H    -3.587191  -1.182189  3.897754
H    -3.543114  -0.109915  2.501877
H    -2.477123  1.705159  3.909524
H    -2.517119  0.640475  5.317142
H    -5.044832  0.492766  5.119224
H    -4.997313  1.597285  3.752680
H    -4.128924  2.306637  6.524885
H    -6.428479  4.736178  4.243508
H    -5.271948  3.742397  3.439626
H    -5.996589  5.182626  6.559688
H    -5.563415  3.817512  7.523348
N    -0.884522  -2.064576  5.128136
C    -2.094580  -2.832919  5.436134
H    -0.106345  -2.181710  5.785248
H    -1.782130  -3.737200  5.970273
H    -2.617224  -3.134934  4.525031
H    -2.765463  -2.262390  6.092092
Hg    1.397548  -0.472216  2.185582
