37
Energy: -574592.8260463  eV PBE+vdW (tier 2 basis)
C    0.568762  0.982906  0.607681
C    0.088805  0.101849  1.702349
O    0.886064  -0.546787  2.455959
H    1.155056  1.796389  1.073046
H    -0.217208  1.436184  0.005998
H    1.238830  0.414213  -0.050221
N    -1.221013  -0.119473  2.028804
C    -2.409987  -0.149508  1.185682
C    -2.195199  -1.227974  0.027576
O    -1.232493  -1.043593  -0.710639
H    -1.295506  -0.680200  2.881974
H    -3.193010  -0.534696  1.852264
C    -2.832922  1.209026  0.571308
C    -4.276425  1.273927  0.014922
C    -5.343486  1.695764  1.041329
N    -6.625655  1.916587  0.370145
C    -7.591789  2.793122  0.739858
N    -8.574496  3.069300  -0.123613
N    -7.558300  3.380506  1.937558
H    -2.161357  1.456985  -0.257520
H    -2.682952  1.979801  1.341337
H    -4.556707  0.318121  -0.455897
H    -4.274913  2.016784  -0.794687
H    -5.044354  2.639894  1.520191
H    -5.459288  0.939173  1.838634
H    -6.838126  1.333470  -0.435810
H    -9.412443  3.564486  0.169403
H    -8.498798  2.854304  -1.113017
H    -8.192103  4.142491  2.161179
H    -7.036797  2.987966  2.712250
N    -3.055016  -2.250807  -0.079378
C    -4.125709  -2.659768  0.830566
H    -2.806796  -2.909549  -0.820889
H    -3.730988  -3.053386  1.778052
H    -4.681847  -3.467933  0.343950
H    -4.826981  -1.840185  1.024861
Hg    3.013993  0.082360  3.002457
