37
Energy: -574593.4151572  eV PBE+vdW (tier 2 basis)
C    2.508458  -0.150589  1.918707
C    1.206270  -0.396597  2.610939
O    0.853447  0.509551  3.442773
H    2.483584  0.848482  1.457834
H    2.728257  -0.900179  1.149928
H    3.313446  -0.128510  2.668134
N    0.517001  -1.518362  2.320865
C    -0.903793  -1.844340  2.569065
C    -1.093604  -2.638648  3.893269
O    -1.236166  -2.021841  5.017910
H    1.007751  -2.150742  1.692031
H    -1.425565  -0.891730  2.760185
C    -1.601054  -2.422050  1.301463
C    -0.892258  -3.524010  0.486272
C    -1.779633  -4.200928  -0.580725
N    -2.100051  -3.322968  -1.711782
C    -3.113820  -3.548477  -2.589333
N    -3.352153  -2.648740  -3.546475
N    -3.888911  -4.630382  -2.478401
H    -1.795246  -1.562898  0.644179
H    -2.593976  -2.769067  1.626618
H    -0.526400  -4.348626  1.118874
H    0.009013  -3.128571  -0.011305
H    -2.726284  -4.520322  -0.121291
H    -1.252689  -5.103711  -0.930178
H    -1.336946  -2.761529  -2.081547
H    -3.958677  -2.861569  -4.332737
H    -2.946054  -1.720200  -3.524267
H    -3.570017  -5.473541  -2.015633
H    -4.733535  -4.720258  -3.035995
N    -1.152145  -3.951633  3.908243
C    -1.335668  -4.770930  5.119577
H    -1.130489  -4.438519  3.016003
H    -0.996658  -5.787168  4.899930
H    -2.396380  -4.789048  5.403000
H    -0.750036  -4.348175  5.942182
Hg    -0.563613  0.045959  5.026628
