37
Energy: -574592.9845145  eV PBE+vdW (tier 2 basis)
C    1.259943  -0.028662  2.122269
C    0.440493  0.579564  3.200660
O    1.048396  1.163144  4.163917
H    1.790592  0.752926  1.557549
H    0.669824  -0.668933  1.458025
H    2.047384  -0.638687  2.595068
N    -0.913006  0.504397  3.230033
C    -1.806451  0.840517  2.116609
C    -2.106027  2.355844  2.282224
O    -1.966243  2.930756  3.422305
H    -1.303664  0.770182  4.135725
H    -1.242568  0.703916  1.183411
C    -3.054678  -0.078413  2.038207
C    -4.005156  -0.116236  3.249690
C    -5.124901  -1.146606  3.002830
N    -6.059536  -1.219007  4.126925
C    -7.299195  -1.767154  4.080413
N    -8.107690  -1.623366  5.136679
N    -7.717335  -2.419077  2.994479
H    -2.663456  -1.087670  1.841224
H    -3.619469  0.206333  1.138832
H    -4.453837  0.871872  3.433971
H    -3.455927  -0.406444  4.160303
H    -4.672462  -2.138218  2.822574
H    -5.696458  -0.871530  2.103144
H    -5.702127  -1.003636  5.054027
H    -7.925932  -0.940402  5.864994
H    -8.967930  -2.158092  5.220678
H    -8.687556  -2.706095  2.900931
H    -7.070839  -2.800169  2.313531
N    -2.551283  3.086769  1.269492
C    -2.936456  2.692824  -0.083712
H    -2.683210  4.076668  1.502627
H    -4.032257  2.673330  -0.176734
H    -2.523114  1.717057  -0.351575
H    -2.553435  3.449818  -0.780897
Hg    -0.026823  3.060105  4.749598
