37
Energy: -574593.7197672  eV PBE+vdW (tier 2 basis)
C    -1.239138  -0.208545  -0.270820
C    -1.049709  -0.779430  1.098675
O    -0.329815  -1.835093  1.154434
H    -1.691014  0.789726  -0.256815
H    -1.870063  -0.897696  -0.853389
H    -0.267668  -0.168438  -0.783641
N    -1.636775  -0.165266  2.143533
C    -1.396375  -0.325605  3.594591
C    -2.332007  -1.401935  4.214489
O    -1.957867  -2.632813  4.305183
H    -2.229334  0.622211  1.884633
H    -0.375719  -0.723524  3.722100
C    -1.452468  1.040644  4.317022
C    -0.275637  1.986182  3.998619
C    -0.375977  3.292824  4.810395
N    0.757573  4.177032  4.533729
C    1.230833  5.133004  5.367830
N    2.388414  5.733347  5.076009
N    0.569234  5.456875  6.482845
H    -1.460146  0.831124  5.397298
H    -2.407877  1.543832  4.085640
H    -0.256199  2.224567  2.923355
H    0.675986  1.488268  4.238153
H    -0.366450  3.059560  5.885103
H    -1.327597  3.803557  4.583051
H    1.109463  4.207495  3.581090
H    3.039469  5.345596  4.401973
H    2.675227  6.585135  5.548725
H    0.998779  6.053126  7.184007
H    -0.426577  5.298459  6.579568
N    -3.514593  -1.072971  4.686538
C    -4.484606  -2.009992  5.276509
H    -3.756759  -0.083893  4.719264
H    -4.365647  -2.997564  4.821710
H    -5.491175  -1.621704  5.092116
H    -4.316417  -2.087125  6.359391
Hg    -0.465372  -3.230972  2.832087
