37
Energy: -574593.4520177  eV PBE+vdW (tier 2 basis)
C    -1.361873  -0.780680  -0.522924
C    -1.462865  -0.780732  0.970035
O    -1.243979  -1.921629  1.516995
H    -0.305302  -0.909419  -0.804922
H    -1.763190  0.132109  -0.978427
H    -1.899490  -1.653713  -0.919540
N    -1.752388  0.375416  1.591457
C    -2.232787  0.732743  2.964483
C    -1.091422  0.803037  4.007837
O    -0.737050  -0.218328  4.723991
H    -1.831465  1.150962  0.936137
H    -2.576608  1.765374  2.831661
C    -3.473982  -0.071925  3.419709
C    -4.240118  0.589054  4.582845
C    -5.595877  -0.099802  4.832701
N    -6.335597  0.573143  5.902293
C    -7.345141  0.029233  6.621768
N    -7.810354  0.685231  7.688322
N    -7.852299  -1.163314  6.292685
H    -3.216570  -1.110344  3.686092
H    -4.126983  -0.145520  2.537195
H    -4.420815  1.648109  4.334891
H    -3.645565  0.566936  5.508359
H    -5.437635  -1.145541  5.134893
H    -6.182620  -0.100901  3.897917
H    -6.223703  1.579373  5.988371
H    -8.688055  0.424697  8.127312
H    -7.298834  1.450694  8.113522
H    -8.501066  -1.637687  6.913703
H    -7.787574  -1.528279  5.350015
N    -0.470609  1.936062  4.273010
C    -0.680603  3.307881  3.801566
H    0.274112  1.834554  4.972608
H    -1.478308  3.371022  3.058401
H    0.257518  3.665578  3.355290
H    -0.923090  3.949663  4.658304
Hg    -0.690816  -2.067057  3.594447
