37
Energy: -574593.5812146  eV PBE+vdW (tier 2 basis)
C    0.689663  -1.878901  2.546427
C    0.382234  -0.436128  2.293528
O    1.363634  0.364130  2.505231
H    1.327712  -2.247293  1.727051
H    -0.208493  -2.501758  2.625385
H    1.285239  -1.967704  3.465362
N    -0.849506  -0.112446  1.863424
C    -1.633736  1.161503  1.786876
C    -1.338169  2.022800  0.531104
O    -0.354189  2.856362  0.435420
H    -1.424408  -0.936450  1.698194
H    -2.659191  0.794779  1.639757
C    -1.656543  1.999479  3.089562
C    -2.427809  1.323800  4.241851
C    -2.621015  2.272031  5.440677
N    -3.425065  1.631105  6.483517
C    -3.451188  1.987907  7.789080
N    -4.091514  1.206484  8.663061
N    -2.820013  3.089030  8.209706
H    -2.136376  2.957537  2.835088
H    -0.637438  2.250773  3.424290
H    -1.910371  0.413758  4.578736
H    -3.418544  1.014676  3.869443
H    -3.103071  3.204386  5.099667
H    -1.645595  2.534523  5.876060
H    -4.167719  1.006385  6.182297
H    -4.360228  0.255168  8.436586
H    -4.317301  1.533404  9.597525
H    -2.712818  3.274317  9.202534
H    -2.628848  3.865006  7.587269
N    -2.198754  1.974463  -0.465225
C    -2.105200  2.743056  -1.714322
H    -3.038835  1.408752  -0.345413
H    -2.518591  2.131886  -2.523677
H    -1.061075  2.997004  -1.915876
H    -2.693672  3.666998  -1.624333
Hg    1.411794  2.288181  1.527137
