37
Energy: -574593.1464072  eV PBE+vdW (tier 2 basis)
C    0.298600  -0.566210  -0.242526
C    0.074354  -0.028182  1.124899
O    0.935055  -0.048210  2.055132
H    1.298310  -0.273889  -0.591808
H    -0.439465  -0.224750  -0.974623
H    0.287310  -1.667401  -0.203680
N    -1.130241  0.481329  1.513138
C    -2.434885  0.221029  0.923795
C    -2.891202  1.407314  -0.035895
O    -3.693685  1.086980  -0.907228
H    -1.122234  0.842955  2.473654
H    -2.350648  -0.630075  0.238914
C    -3.481545  -0.058485  2.033590
C    -4.968179  -0.150735  1.636779
C    -5.347827  -1.356676  0.749473
N    -6.762282  -1.359814  0.381505
C    -7.726746  -2.221810  0.789135
N    -8.869142  -2.274920  0.097525
N    -7.545432  -3.005000  1.854774
H    -3.405395  0.739177  2.790063
H    -3.164223  -0.986400  2.535383
H    -5.290741  0.774102  1.139363
H    -5.538666  -0.201628  2.575384
H    -5.105884  -2.311719  1.233895
H    -4.783758  -1.321985  -0.197394
H    -7.051966  -0.667075  -0.305840
H    -9.686401  -2.757896  0.461070
H    -8.946483  -1.902613  -0.844138
H    -8.201529  -3.749820  2.071335
H    -6.851253  -2.797344  2.561898
N    -2.405821  2.638793  0.161539
C    -2.857868  3.805976  -0.600663
H    -1.816790  2.800706  0.974643
H    -2.048276  4.544318  -0.611086
H    -3.743272  4.263803  -0.136136
H    -3.110046  3.493915  -1.620002
Hg    3.267976  0.054439  1.916143
