37
Energy: -574592.9076251  eV PBE+vdW (tier 2 basis)
C    -0.608934  2.177305  1.733236
C    -0.179865  1.248356  0.653940
O    0.925329  1.327336  0.040476
H    -0.271013  3.196288  1.503946
H    -0.116403  1.881640  2.674011
H    -1.692541  2.193658  1.886681
N    -0.936626  0.171546  0.288043
C    -1.862837  -0.548235  1.124246
C    -1.072352  -1.405670  2.235697
O    0.019830  -1.853611  1.924080
H    -0.484209  -0.381057  -0.447705
H    -2.491069  0.178317  1.658314
C    -2.694745  -1.573407  0.305511
C    -3.773161  -0.929102  -0.580707
C    -4.399437  -1.899355  -1.622494
N    -5.297268  -2.931685  -1.109364
C    -6.647034  -2.967540  -1.255458
N    -7.278287  -4.136709  -1.111345
N    -7.339619  -1.860096  -1.525292
H    -3.150697  -2.278534  1.014936
H    -1.989778  -2.167031  -0.298810
H    -3.336641  -0.108165  -1.169064
H    -4.566214  -0.483378  0.038503
H    -3.597118  -2.411046  -2.173507
H    -4.948949  -1.303374  -2.363361
H    -4.872165  -3.804272  -0.807708
H    -8.292007  -4.187370  -1.059832
H    -6.787147  -5.023619  -1.165753
H    -8.316831  -1.906416  -1.798232
H    -6.937452  -0.935407  -1.441254
N    -1.670663  -1.590668  3.428395
C    -2.896097  -0.993170  3.947363
H    -1.078390  -2.085160  4.100228
H    -2.733834  0.036384  4.302579
H    -3.214448  -1.588515  4.811764
H    -3.702523  -1.014860  3.206861
Hg    2.223220  3.197814  -0.427840
