37
Energy: -574593.0806738  eV PBE+vdW (tier 2 basis)
C    1.999977  -0.385680  0.886459
C    1.071036  -0.470565  2.041180
O    1.356571  -1.069200  3.128461
H    1.578268  0.131234  0.020191
H    2.257878  -1.411213  0.576495
H    2.937388  0.094455  1.201119
N    -0.162490  0.100051  2.069398
C    -0.747375  1.200851  1.290083
C    -1.156011  0.599509  -0.124267
O    -0.382354  0.690919  -1.066226
H    -0.699021  -0.186456  2.893487
H    -1.671181  1.454177  1.829174
C    0.104477  2.478502  1.141572
C    -0.712502  3.627793  0.517311
C    0.066332  4.916144  0.207045
N    0.278852  5.768722  1.382576
C    1.020350  6.906323  1.380713
N    1.133684  7.605070  2.516699
N    1.646386  7.309689  0.275840
H    0.979342  2.268935  0.512047
H    0.468297  2.749878  2.143641
H    -1.587124  3.870108  1.143167
H    -1.119794  3.297779  -0.448798
H    -0.508924  5.477961  -0.549706
H    1.046577  4.676899  -0.234069
H    -0.394024  5.682731  2.140577
H    1.560060  8.527321  2.531702
H    0.819090  7.238443  3.408542
H    2.286886  8.098024  0.294517
H    1.410327  6.947001  -0.640366
N    -2.366087  -0.004642  -0.179926
C    -2.939454  -0.491328  -1.426856
H    -2.984276  0.060944  0.627283
H    -3.631127  -1.310628  -1.193647
H    -2.130792  -0.816436  -2.092027
H    -3.513348  0.298340  -1.940818
Hg    2.610202  -3.002363  3.428893
