37
Energy: -574593.2204343  eV PBE+vdW (tier 2 basis)
C    -0.575486  2.229299  1.085715
C    -1.027112  1.433784  2.257547
O    -1.517476  1.980635  3.308107
H    -1.428663  2.825495  0.725906
H    -0.186172  1.623164  0.260988
H    0.193356  2.951964  1.395651
N    -0.976718  0.089278  2.208684
C    -1.462101  -0.844662  3.222088
C    -1.140155  -0.383961  4.654822
O    -0.022903  0.188884  4.910930
H    -0.687603  -0.322639  1.321295
H    -2.564770  -0.855170  3.147736
C    -1.001831  -2.298338  2.924983
C    0.501244  -2.621168  3.038101
C    0.760937  -4.076299  2.604120
N    2.173348  -4.438092  2.734698
C    2.660828  -5.703318  2.740416
N    3.954500  -5.894068  3.024775
N    1.865493  -6.743226  2.487813
H    -1.370681  -2.540516  1.914773
H    -1.572255  -2.952123  3.600277
H    0.849902  -2.481930  4.071860
H    1.092180  -1.940517  2.404234
H    0.431103  -4.215126  1.558878
H    0.174398  -4.764580  3.232472
H    2.861622  -3.693614  2.661321
H    4.524263  -5.170331  3.450705
H    4.401798  -6.794558  2.876151
H    2.191478  -7.695317  2.627964
H    0.978707  -6.640171  2.008672
N    -2.008512  -0.650578  5.621099
C    -3.329233  -1.280390  5.538405
H    -1.700779  -0.364153  6.553583
H    -3.245757  -2.367198  5.405519
H    -3.911769  -0.854725  4.708554
H    -3.862452  -1.082201  6.472519
Hg    -0.117375  2.474226  4.998582
