37
Energy: -574593.3270556  eV PBE+vdW (tier 2 basis)
C    0.142418  0.772278  0.931256
C    -0.046229  -0.589505  1.524451
O    0.902733  -1.415559  1.275197
H    -0.778532  1.366788  0.922689
H    0.528161  0.673015  -0.092521
H    0.919776  1.298858  1.507656
N    -1.152504  -0.816913  2.253972
C    -1.826269  -2.046830  2.771198
C    -1.177114  -2.617230  4.054073
O    -0.232358  -3.505670  4.028281
H    -1.725721  0.019131  2.348886
H    -2.805729  -1.666836  3.086432
C    -2.112782  -3.135627  1.703935
C    -3.107853  -2.655868  0.627086
C    -3.392687  -3.642019  -0.523996
N    -4.373587  -4.681183  -0.197082
C    -5.246311  -5.228709  -1.077566
N    -6.241405  -5.993516  -0.616903
N    -5.134525  -4.996679  -2.388036
H    -2.502043  -4.009214  2.249620
H    -1.185106  -3.473584  1.215022
H    -2.708086  -1.749008  0.150370
H    -4.061549  -2.363606  1.093228
H    -2.452397  -4.095263  -0.881658
H    -3.809498  -3.057869  -1.354770
H    -4.309922  -5.147824  0.701699
H    -6.784312  -6.583204  -1.240441
H    -6.537960  -5.962524  0.352063
H    -5.883330  -5.251740  -3.025234
H    -4.258063  -4.719045  -2.813526
N    -1.626506  -2.296412  5.252285
C    -2.771893  -1.494457  5.691687
H    -1.108818  -2.753307  6.012630
H    -3.213942  -0.925040  4.870916
H    -2.419542  -0.795528  6.462143
H    -3.528399  -2.152550  6.140524
Hg    1.263886  -3.161754  2.506434
