37
Energy: -574593.0078469  eV PBE+vdW (tier 2 basis)
C    -0.253210  -0.958990  0.565043
C    -0.229184  -0.027299  1.724671
O    0.744579  0.019592  2.557189
H    0.494757  -0.619958  -0.171165
H    -1.218604  -1.015935  0.055425
H    0.038289  -1.964648  0.894458
N    -1.232782  0.815533  2.025189
C    -2.586950  0.879706  1.503688
C    -2.957697  2.401792  1.605007
O    -2.588872  3.011551  2.606656
H    -1.045493  1.477004  2.790913
H    -2.585864  0.535012  0.464491
C    -3.662521  0.062550  2.295701
C    -3.697621  0.283393  3.812486
C    -4.744887  -0.574892  4.555062
N    -6.089230  0.003851  4.536325
C    -7.226037  -0.662046  4.873961
N    -8.396865  -0.023534  4.781430
N    -7.180078  -1.936152  5.263391
H    -3.462028  -0.997677  2.069041
H    -4.638963  0.287644  1.838801
H    -3.846422  1.344768  4.068627
H    -2.724011  0.016566  4.248056
H    -4.402305  -0.675284  5.600236
H    -4.796338  -1.585240  4.122322
H    -6.147389  1.019090  4.584058
H    -9.248273  -0.418763  5.170975
H    -8.488837  0.866810  4.304118
H    -8.032991  -2.472931  5.394090
H    -6.327593  -2.361690  5.608567
N    -3.675217  2.973847  0.612152
C    -4.052132  2.438371  -0.688895
H    -3.769760  3.986752  0.731638
H    -4.922395  3.002453  -1.046912
H    -4.320686  1.378792  -0.625248
H    -3.246975  2.574188  -1.429036
Hg    2.950911  -0.283491  2.105469
