37
Energy: -574593.4773663  eV PBE+vdW (tier 2 basis)
C    -0.109227  0.096182  -0.158796
C    -0.073005  -0.324660  1.276873
O    1.072064  -0.251588  1.837822
H    0.484137  -0.617283  -0.750318
H    0.380743  1.074546  -0.262282
H    -1.129164  0.151202  -0.557054
N    -1.213645  -0.743434  1.857674
C    -1.477441  -0.999988  3.283285
C    -1.017720  -2.418295  3.727826
O    0.047691  -2.525631  4.451979
H    -2.022208  -0.759461  1.238919
H    -0.825686  -0.325152  3.862692
C    -2.932300  -0.645317  3.677751
C    -3.191536  0.868671  3.820083
C    -4.664708  1.152110  4.186186
N    -4.967393  2.584800  4.251293
C    -5.607983  3.240629  5.249715
N    -6.257320  4.372571  4.967398
N    -5.588645  2.780422  6.504891
H    -3.140699  -1.145931  4.635826
H    -3.632550  -1.082063  2.950122
H    -2.950444  1.385419  2.877710
H    -2.533092  1.295691  4.591430
H    -4.923335  0.693696  5.148671
H    -5.333102  0.693624  3.439393
H    -4.913827  3.094150  3.372959
H    -6.536702  4.612158  4.021793
H    -6.550691  5.010597  5.701415
H    -6.195881  3.180951  7.213220
H    -4.879191  2.136476  6.830058
N    -1.660816  -3.537808  3.458155
C    -2.948298  -3.775418  2.798341
H    -1.201255  -4.371344  3.840038
H    -3.117559  -3.059150  1.990024
H    -3.771201  -3.736082  3.524624
H    -2.915630  -4.782797  2.368695
Hg    1.643617  -1.187492  3.750590
