37
Energy: -574593.0610336  eV PBE+vdW (tier 2 basis)
C    -0.559965  0.799488  -0.607563
C    -0.425972  0.808234  0.882863
O    0.559715  1.235823  1.486019
H    -1.223285  1.633487  -0.896343
H    -1.005257  -0.126457  -0.992732
H    0.419944  0.970671  -1.062473
N    -1.511097  0.298148  1.605115
C    -1.592761  0.077377  3.017891
C    -1.532948  1.419323  3.869268
O    -2.558491  1.482171  4.616956
H    -2.301210  -0.037737  1.052681
H    -2.616033  -0.282861  3.194363
C    -0.699729  -1.064092  3.668185
C    0.823653  -0.980709  3.592206
C    1.539185  -2.145228  4.337216
N    1.622305  -3.380205  3.563294
C    1.775809  -4.628684  4.082804
N    1.738597  -5.676095  3.253830
N    1.936796  -4.809159  5.394330
H    -1.069502  -1.984486  3.191968
H    -1.029656  -1.104712  4.717522
H    1.189325  -0.063333  4.072097
H    1.188470  -0.944225  2.556981
H    1.033519  -2.365012  5.288112
H    2.557332  -1.788587  4.571078
H    1.867362  -3.285890  2.579480
H    2.037785  -6.600151  3.554224
H    1.396908  -5.598420  2.301469
H    2.291563  -4.074272  5.996027
H    1.913743  -5.742686  5.796090
N    -0.536823  2.260237  3.744104
C    -0.378049  3.543855  4.433021
H    0.137302  1.999707  2.996653
H    0.564483  3.988108  4.094801
H    -0.312948  3.404844  5.520476
H    -1.186180  4.240885  4.168445
Hg    -3.345328  3.099944  6.059428
