37
Energy: -574593.5844345  eV PBE+vdW (tier 2 basis)
C    -0.637488  0.046276  0.513648
C    -0.850385  -0.224944  1.970094
O    -1.175718  -1.435894  2.245499
H    -0.644875  1.114749  0.270268
H    -1.409149  -0.473886  -0.070125
H    0.326702  -0.396500  0.215827
N    -0.671028  0.784642  2.839490
C    -1.047095  1.016694  4.270341
C    -0.062115  0.399578  5.297445
O    -0.101891  -0.829853  5.695727
H    -0.337718  1.629789  2.379609
H    -0.915786  2.102938  4.373238
C    -2.528714  0.725084  4.617292
C    -3.518076  1.712238  3.964423
C    -4.962035  1.488728  4.454726
N    -5.875296  2.462216  3.853041
C    -7.025755  2.914957  4.404417
N    -7.651854  3.951283  3.839645
N    -7.520340  2.356943  5.514172
H    -2.610609  0.789270  5.713500
H    -2.808637  -0.307359  4.352579
H    -3.483520  1.610189  2.868278
H    -3.220347  2.744759  4.203626
H    -5.003250  1.617911  5.545732
H    -5.287546  0.460604  4.222351
H    -5.734743  2.693918  2.873786
H    -7.190074  4.558678  3.171511
H    -8.610053  4.184857  4.081433
H    -8.287115  2.796502  6.014623
H    -7.304515  1.402160  5.774401
N    0.811372  1.201555  5.871395
C    1.797503  0.805294  6.886259
H    0.767173  2.195741  5.648227
H    1.388832  0.987554  7.890129
H    2.695376  1.416819  6.747869
H    2.032980  -0.256962  6.778852
Hg    -0.804209  -2.231531  4.218672
