37
Energy: -574593.7122209  eV PBE+vdW (tier 2 basis)
C    1.028772  -0.760605  -0.260728
C    0.721895  0.105573  0.918819
O    0.552371  1.346605  0.652145
H    0.266520  -0.590105  -1.035827
H    1.055358  -1.826580  -0.006641
H    1.990863  -0.447963  -0.692989
N    0.647923  -0.459045  2.139180
C    0.031143  0.055700  3.384966
C    1.077355  0.789609  4.266239
O    1.247516  2.063376  4.170644
H    0.871056  -1.453780  2.146597
H    -0.704272  0.826559  3.100213
C    -0.752509  -1.091299  4.066550
C    -1.665751  -0.657865  5.229841
C    -2.497454  -1.844829  5.756177
N    -3.395128  -1.425307  6.833945
C    -4.544452  -2.048579  7.186246
N    -5.369983  -1.448676  8.048799
N    -4.868540  -3.233967  6.660694
H    -0.057223  -1.885636  4.390918
H    -1.368356  -1.545497  3.275111
H    -2.351370  0.133370  4.890954
H    -1.068413  -0.235798  6.053908
H    -1.826139  -2.649169  6.103267
H    -3.115185  -2.249922  4.941441
H    -3.054683  -0.723516  7.485150
H    -6.124486  -1.958222  8.498699
H    -5.296497  -0.460282  8.263954
H    -5.796484  -3.624000  6.796903
H    -4.167505  -3.865223  6.291482
N    1.802335  0.121330  5.137377
C    2.862354  0.697485  5.979627
H    1.589535  -0.865656  5.273279
H    3.322890  1.543919  5.461832
H    3.606174  -0.081070  6.175871
H    2.439581  1.045148  6.931753
Hg    0.732787  2.864919  2.199603
