37
Energy: -574592.7989256  eV PBE+vdW (tier 2 basis)
C    -1.020633  0.235478  -1.127502
C    -0.022403  -0.159223  -0.099455
O    1.203998  -0.211389  -0.462413
H    -0.524753  0.901975  -1.847411
H    -1.889641  0.742008  -0.700300
H    -1.337371  -0.652940  -1.696924
N    -0.313903  -0.388758  1.208951
C    -1.354303  -1.273422  1.753493
C    -0.893299  -2.722435  1.344936
O    -0.198800  -2.863934  0.294980
H    0.531007  -0.383534  1.785834
H    -1.249314  -1.183512  2.845331
C    -2.825526  -0.969539  1.386642
C    -3.282688  0.411275  1.900556
C    -4.713194  0.832878  1.520561
N    -5.742481  0.259607  2.394775
C    -7.079714  0.328402  2.157235
N    -7.918582  -0.237069  3.032231
N    -7.549697  0.919682  1.059194
H    -3.439472  -1.765091  1.836197
H    -2.977159  -1.059183  0.302269
H    -2.616672  1.188823  1.499394
H    -3.157852  0.474116  2.993865
H    -4.940184  0.541365  0.483590
H    -4.759951  1.934999  1.574028
H    -5.481368  0.114479  3.367637
H    -7.593728  -0.850836  3.771706
H    -8.922177  -0.085602  2.978643
H    -6.994280  1.573425  0.519911
H    -8.535909  0.867596  0.819472
N    -1.253582  -3.744161  2.112277
C    -0.840468  -5.134657  1.932738
H    -1.862606  -3.554568  2.909028
H    -0.269259  -5.234471  1.008033
H    -1.737806  -5.768303  1.885526
H    -0.243016  -5.456443  2.798200
Hg    2.077839  -2.273184  -0.185606
