37
Energy: -574593.0560373  eV PBE+vdW (tier 2 basis)
C    -1.144759  -1.214518  1.890889
C    -1.731654  -1.370210  3.249561
O    -1.740294  -2.489087  3.873495
H    -1.498663  -2.025754  1.241906
H    -0.049243  -1.309818  1.972161
H    -1.357677  -0.254152  1.414698
N    -2.329191  -0.373287  3.926661
C    -2.739166  0.950783  3.506975
C    -2.341853  1.887576  4.725665
O    -2.491542  1.452099  5.857661
H    -2.564441  -0.593255  4.903767
H    -2.199210  1.228867  2.593826
C    -4.274398  1.144829  3.312599
C    -4.865251  0.355100  2.131978
C    -6.247459  0.839210  1.647198
N    -7.356008  0.498763  2.543565
C    -8.651586  0.379405  2.158015
N    -9.546476  -0.089735  3.035585
N    -9.029523  0.705545  0.921800
H    -4.433287  2.223108  3.153510
H    -4.762551  0.896734  4.267671
H    -4.909575  -0.719902  2.362651
H    -4.208419  0.460266  1.254626
H    -6.449048  0.359735  0.679180
H    -6.216804  1.930113  1.478752
H    -7.196620  0.529821  3.546312
H    -10.544534  -0.031052  2.853660
H    -9.267582  -0.579660  3.878939
H    -9.957520  0.471435  0.580708
H    -8.473918  1.311432  0.329230
N    -1.885709  3.124055  4.420855
C    -1.326483  4.017237  5.425439
H    -1.759629  3.377975  3.442093
H    -0.234240  3.886939  5.516512
H    -1.785143  3.798080  6.396324
H    -1.511805  5.052101  5.107883
Hg    -0.106719  -4.085890  3.871501
