37
Energy: -574592.9263545  eV PBE+vdW (tier 2 basis)
C    0.456912  0.950196  0.854260
C    -0.347849  1.371749  2.030630
O    0.129130  1.959707  3.051321
H    -0.145645  0.676826  -0.016942
H    1.098850  0.100762  1.136343
H    1.128626  1.771189  0.564940
N    -1.676637  1.100393  2.143565
C    -2.421097  0.065669  1.449275
C    -3.385420  0.673148  0.327349
O    -3.396452  -0.005731  -0.700409
H    -2.105613  1.520261  2.973341
H    -1.710614  -0.533346  0.872397
C    -3.230051  -0.855268  2.407185
C    -3.476861  -2.303149  1.934626
C    -4.581286  -2.539464  0.885450
N    -4.887480  -3.968119  0.816599
C    -5.483600  -4.618622  -0.212652
N    -5.560047  -5.953714  -0.166782
N    -5.970657  -3.947176  -1.255964
H    -4.175248  -0.373920  2.698906
H    -2.631636  -0.931762  3.327549
H    -3.754287  -2.855278  2.846828
H    -2.536049  -2.750286  1.580868
H    -4.267363  -2.200201  -0.112026
H    -5.492076  -1.977644  1.164166
H    -4.752022  -4.509115  1.668497
H    -6.128181  -6.476049  -0.828425
H    -5.024257  -6.501712  0.499419
H    -6.308846  -4.434524  -2.080503
H    -6.152150  -2.951875  -1.214785
N    -4.125437  1.764689  0.527105
C    -4.260837  2.617917  1.709707
H    -4.675668  2.033283  -0.290106
H    -5.192922  3.183294  1.603092
H    -3.439025  3.341375  1.787713
H    -4.352614  2.027446  2.629660
Hg    1.937336  3.410310  3.168704
