37
Energy: -574593.0255385  eV PBE+vdW (tier 2 basis)
C    -1.469402  -1.577668  0.376715
C    -0.472887  -0.826780  1.186942
O    0.532090  -1.381344  1.739399
H    -0.949464  -2.059862  -0.466010
H    -2.279728  -0.965377  -0.027033
H    -1.904138  -2.378529  0.992237
N    -0.573406  0.501441  1.450691
C    -1.762266  1.357768  1.401889
C    -1.278795  2.776358  0.910797
O    -1.232531  3.708818  1.719523
H    0.205732  0.853855  2.015982
H    -2.460890  0.946017  0.662156
C    -2.448607  1.482879  2.775828
C    -3.771591  2.289546  2.723315
C    -4.015790  3.189914  3.935566
N    -3.122747  4.345434  3.946718
C    -3.180857  5.372321  4.831767
N    -2.334414  6.397927  4.671743
N    -4.057686  5.359919  5.832134
H    -1.732006  1.935894  3.475678
H    -2.646344  0.467799  3.145988
H    -4.620529  1.596443  2.665133
H    -3.834373  2.909157  1.816513
H    -3.895557  2.618753  4.875792
H    -5.061428  3.545589  3.910518
H    -2.398134  4.372392  3.221765
H    -2.316478  7.181181  5.319588
H    -1.718694  6.461985  3.868001
H    -4.145837  6.145697  6.470435
H    -4.673126  4.573545  6.004300
N    -0.923622  2.942877  -0.380782
C    -1.108573  2.068848  -1.530939
H    -0.669421  3.910395  -0.599393
H    -1.152821  1.018319  -1.236774
H    -2.019660  2.341049  -2.085592
H    -0.253737  2.206403  -2.207370
Hg    1.681423  -3.265005  1.078843
