37
Energy: -574593.3241542  eV PBE+vdW (tier 2 basis)
C    -0.066423  1.131656  0.546009
C    -0.182432  -0.150509  1.309134
O    0.857753  -0.900908  1.249493
H    -1.031918  1.626027  0.388857
H    0.410666  0.934967  -0.423962
H    0.611708  1.804420  1.094888
N    -1.322252  -0.392005  1.980560
C    -1.939192  -1.608296  2.597262
C    -1.387300  -1.946930  4.002557
O    -0.352531  -2.709331  4.189832
H    -1.971427  0.389934  1.919130
H    -2.975249  -1.289240  2.763008
C    -2.017327  -2.849448  1.670918
C    -2.904203  -2.622168  0.430865
C    -2.978035  -3.813994  -0.549459
N    -3.834518  -4.932437  -0.136954
C    -4.976355  -5.321085  -0.756921
N    -5.387658  -6.585884  -0.635490
N    -5.700190  -4.454501  -1.471585
H    -2.415217  -3.670874  2.287023
H    -1.015035  -3.171187  1.343731
H    -2.513641  -1.771594  -0.147900
H    -3.921603  -2.345782  0.749062
H    -1.971450  -4.214258  -0.743043
H    -3.338762  -3.451892  -1.520219
H    -3.419317  -5.635423  0.466197
H    -6.328078  -6.862632  -0.900964
H    -4.757931  -7.332617  -0.362165
H    -6.448636  -4.775990  -2.077686
H    -5.585744  -3.453044  -1.385979
N    -2.009739  -1.556042  5.097292
C    -3.280790  -0.856651  5.309302
H    -1.542110  -1.863047  5.958668
H    -4.026384  -1.560486  5.703333
H    -3.651946  -0.394128  4.391977
H    -3.112427  -0.072975  6.059410
Hg    1.225694  -2.394642  2.760821
