37
Energy: -574592.9763435  eV PBE+vdW (tier 2 basis)
C    -0.826174  -0.275622  -0.156712
C    -0.232904  -0.440650  1.196395
O    0.314154  -1.504218  1.614816
H    -1.812402  -0.767960  -0.182127
H    -0.199058  -0.785491  -0.899917
H    -0.943942  0.770605  -0.456569
N    -0.291760  0.549906  2.140072
C    -1.281725  1.612139  2.217882
C    -0.627369  3.057839  2.054328
O    -1.379009  4.001686  2.319298
H    0.178613  0.294742  3.014442
H    -1.929230  1.543809  1.332203
C    -2.182139  1.524098  3.468161
C    -1.571159  1.826236  4.858097
C    -1.759291  3.259811  5.403882
N    -3.147643  3.604496  5.692928
C    -3.827635  4.698088  5.251608
N    -4.917985  5.083173  5.918274
N    -3.415583  5.350720  4.163849
H    -2.585538  0.501288  3.474475
H    -3.044677  2.178720  3.280563
H    -0.488001  1.626581  4.888808
H    -2.002559  1.123652  5.584368
H    -1.333815  4.021690  4.745549
H    -1.204734  3.323260  6.357280
H    -3.604012  3.067388  6.429699
H    -5.541156  5.797290  5.550286
H    -5.114562  4.760164  6.861368
H    -3.835552  6.237891  3.901386
H    -2.732510  4.951842  3.521510
N    0.613376  3.159955  1.600785
C    1.288413  4.442709  1.338696
H    1.135572  2.301208  1.452147
H    0.561783  5.168040  0.960286
H    2.063692  4.274672  0.585217
H    1.752330  4.827632  2.255467
Hg    1.379342  -3.202853  0.420087
