37
Energy: -574592.9312966  eV PBE+vdW (tier 2 basis)
C    -0.136192  1.294722  2.820612
C    0.002482  -0.031222  2.163866
O    1.112481  -0.542071  1.809384
H    0.631534  1.393827  3.601177
H    -1.115572  1.456627  3.280376
H    0.056252  2.089900  2.082729
N    -1.069287  -0.795764  1.821871
C    -2.430193  -0.339446  1.597688
C    -3.469289  -0.853411  2.688395
O    -4.366999  -0.030163  2.908610
H    -0.804689  -1.703583  1.428587
H    -2.448961  0.746627  1.730737
C    -2.955031  -0.684788  0.177669
C    -4.278171  -0.003760  -0.227962
C    -5.560471  -0.846388  0.018863
N    -6.779143  -0.139582  -0.351273
C    -7.549920  0.622733  0.464795
N    -8.704496  1.099150  -0.013785
N    -7.164159  0.888318  1.712714
H    -3.009114  -1.776054  0.040765
H    -2.176736  -0.327607  -0.514293
H    -4.228238  0.197447  -1.307371
H    -4.367375  0.980250  0.255706
H    -5.650462  -1.163866  1.066109
H    -5.525973  -1.758317  -0.591914
H    -7.085051  -0.221515  -1.318723
H    -9.285496  1.733024  0.528340
H    -9.085180  0.796064  -0.905646
H    -7.784567  1.369848  2.356257
H    -6.249758  0.624244  2.070953
N    -3.407275  -2.061772  3.244284
C    -2.459785  -3.160918  3.036082
H    -4.136767  -2.223423  3.940317
H    -2.902570  -4.061421  3.475069
H    -1.504361  -2.979290  3.543851
H    -2.309158  -3.369456  1.969736
Hg    3.208672  -0.229756  2.735303
