37
Energy: -574593.5212789  eV PBE+vdW (tier 2 basis)
C    -0.010579  -1.845368  -0.632317
C    0.043076  -1.552023  0.834043
O    1.218440  -1.430170  1.320677
H    0.495968  -1.032796  -1.174795
H    -1.038333  -1.941377  -1.002743
H    0.552921  -2.765880  -0.838759
N    -1.113033  -1.436776  1.515380
C    -1.327946  -0.883843  2.864616
C    -1.097577  -1.943271  3.977904
O    -0.031067  -1.858898  4.700689
H    -1.947846  -1.574008  0.947831
H    -0.532953  -0.141077  3.044480
C    -2.660135  -0.095994  2.912488
C    -2.927583  0.634437  4.242568
C    -4.152451  1.563316  4.125453
N    -4.381545  2.295649  5.371958
C    -5.555302  2.856292  5.750068
N    -5.668409  3.349876  6.986762
N    -6.597251  2.891569  4.914374
H    -3.504062  -0.754670  2.663719
H    -2.591917  0.643191  2.098957
H    -2.045363  1.236338  4.514730
H    -3.093875  -0.081652  5.061660
H    -5.053402  0.970787  3.908371
H    -4.000266  2.266481  3.288351
H    -3.563757  2.584026  5.902164
H    -5.003656  3.123270  7.718632
H    -6.445032  3.950374  7.247250
H    -7.515986  3.172133  5.244644
H    -6.479062  2.844326  3.909301
N    -1.934451  -2.922332  4.265083
C    -3.257573  -3.245769  3.723183
H    -1.605603  -3.528926  5.023242
H    -4.046844  -2.716616  4.273596
H    -3.411961  -4.322514  3.854293
H    -3.316946  -3.018170  2.655788
Hg    1.726363  -1.359930  3.456360
