37
Energy: -574592.9246259  eV PBE+vdW (tier 2 basis)
C    0.034039  0.799524  0.615263
C    -0.128878  0.077641  1.904124
O    0.834594  -0.369331  2.601969
H    0.361443  0.090910  -0.161713
H    0.834515  1.545876  0.719358
H    -0.872160  1.312979  0.280490
N    -1.349656  -0.228019  2.422083
C    -2.608074  -0.317045  1.704616
C    -3.577646  0.909266  2.044012
O    -4.173632  1.326137  1.049985
H    -1.298139  -0.658986  3.349739
H    -2.400269  -0.185678  0.638775
C    -3.351672  -1.664293  1.934443
C    -4.253135  -2.164896  0.786749
C    -5.634983  -1.503128  0.615433
N    -6.451071  -2.311676  -0.289799
C    -7.527078  -1.893629  -1.000584
N    -8.069433  -2.731633  -1.891727
N    -8.027016  -0.669937  -0.829155
H    -3.906122  -1.642054  2.884292
H    -2.565827  -2.424429  2.059295
H    -4.414937  -3.233830  0.999183
H    -3.707813  -2.121695  -0.167710
H    -5.546850  -0.490476  0.196848
H    -6.138383  -1.422067  1.596632
H    -6.271892  -3.313944  -0.299625
H    -8.963284  -2.531722  -2.332687
H    -7.595434  -3.576836  -2.195134
H    -8.752404  -0.310502  -1.442795
H    -7.813129  -0.114023  -0.010240
N    -3.743718  1.374199  3.283064
C    -3.159112  0.931110  4.550708
H    -4.383465  2.168560  3.332886
H    -2.145668  1.327591  4.693977
H    -3.170329  -0.161817  4.644530
H    -3.786920  1.323620  5.357930
Hg    2.986745  0.477627  2.803118
