37
Energy: -574592.8949196  eV PBE+vdW (tier 2 basis)
C    0.693649  -0.333762  0.595206
C    0.392186  0.280305  1.913464
O    1.361590  0.783170  2.580025
H    1.014503  0.437040  -0.121797
H    -0.144839  -0.916954  0.201338
H    1.562890  -0.999749  0.722214
N    -0.849367  0.291263  2.457851
C    -2.087376  0.723069  1.793074
C    -2.005389  2.274658  1.785098
O    -1.469576  2.886824  2.780140
H    -0.847540  0.517646  3.455055
H    -2.091064  0.333245  0.767201
C    -3.293710  0.168202  2.600653
C    -4.688083  0.419635  2.000183
C    -5.869299  -0.037809  2.880568
N    -6.130939  -1.479166  2.831180
C    -7.327361  -2.059208  3.100264
N    -7.490830  -3.359674  2.828471
N    -8.331870  -1.347917  3.612127
H    -3.250326  0.598387  3.614658
H    -3.096698  -0.909428  2.708200
H    -4.781190  -0.040406  1.004791
H    -4.841609  1.499899  1.862757
H    -6.774891  0.469622  2.519716
H    -5.704635  0.284204  3.924158
H    -5.347242  -2.114627  2.715970
H    -6.867597  -3.861565  2.204706
H    -8.300179  -3.871750  3.168601
H    -9.270703  -1.733159  3.664118
H    -8.183340  -0.464290  4.085343
N    -2.498873  3.009944  0.798425
C    -3.272170  2.631649  -0.381581
H    -2.334155  4.015821  0.916106
H    -4.285891  3.050180  -0.311839
H    -3.329859  1.547031  -0.493159
H    -2.789041  3.067084  -1.267419
Hg    0.736085  2.737389  3.522317
