37
Energy: -574593.5589254  eV PBE+vdW (tier 2 basis)
C    0.577521  0.640540  0.755619
C    0.731834  1.037411  2.188894
O    1.220014  2.206322  2.377200
H    0.072556  1.452142  0.211320
H    0.010474  -0.289305  0.632966
H    1.577188  0.537717  0.306633
N    0.363837  0.167784  3.149402
C    0.080925  0.412707  4.582804
C    1.342427  0.186630  5.459407
O    2.123097  1.166355  5.762395
H    0.045924  -0.732001  2.791404
H    -0.157367  1.483943  4.694456
C    -1.192216  -0.364801  4.999961
C    -1.695627  -0.015419  6.417234
C    -3.189965  -0.273448  6.681691
N    -3.533676  -1.695958  6.815198
C    -4.808161  -2.168687  6.785710
N    -5.015286  -3.483531  6.898344
N    -5.841176  -1.342167  6.605857
H    -1.039431  -1.450714  4.879581
H    -1.961337  -0.091291  4.261596
H    -1.557989  1.062331  6.594149
H    -1.090380  -0.514910  7.189899
H    -3.785026  0.144198  5.856591
H    -3.460636  0.272660  7.600275
H    -2.885197  -2.266797  7.351772
H    -5.943340  -3.859952  7.065927
H    -4.260631  -4.155292  6.818241
H    -6.774357  -1.706992  6.438404
H    -5.780505  -0.353203  6.817601
N    1.625826  -1.010279  5.925589
C    2.812092  -1.350885  6.727077
H    0.951238  -1.754390  5.757294
H    2.585475  -1.244243  7.796527
H    3.635388  -0.679284  6.467130
H    3.084648  -2.389335  6.514364
Hg    2.102840  2.773139  4.281486
