37
Energy: -574592.9680236  eV PBE+vdW (tier 2 basis)
C    0.107522  0.529218  0.554423
C    -0.439530  0.342478  1.925061
O    0.015501  0.928343  2.952295
H    -0.314330  -0.154520  -0.186647
H    1.196306  0.371167  0.586272
H    -0.051134  1.569296  0.232864
N    -1.496795  -0.478024  2.204344
C    -2.631745  -0.883272  1.371677
C    -2.323035  -2.181808  0.516296
O    -3.158159  -2.497860  -0.330450
H    -1.647044  -0.568163  3.214213
H    -3.393146  -1.223554  2.089680
C    -3.226086  0.270964  0.514898
C    -4.506703  0.004927  -0.291199
C    -5.780472  -0.327612  0.517499
N    -7.001496  -0.128352  -0.257849
C    -7.774457  -1.080983  -0.835878
N    -9.002370  -0.751150  -1.242818
N    -7.318547  -2.327458  -0.987345
H    -2.477051  0.627005  -0.204103
H    -3.396623  1.100663  1.219243
H    -4.338417  -0.791523  -1.033431
H    -4.677951  0.919569  -0.882320
H    -5.858610  0.341643  1.389126
H    -5.773628  -1.355176  0.903716
H    -7.328431  0.830687  -0.355545
H    -9.552274  -1.373157  -1.829245
H    -9.465342  0.095745  -0.925950
H    -7.938146  -3.076216  -1.282802
H    -6.329140  -2.542528  -0.958612
N    -1.220129  -2.889145  0.789461
C    -0.919065  -4.176884  0.157431
H    -0.690979  -2.628816  1.618643
H    -1.422416  -5.000602  0.683937
H    0.163238  -4.338847  0.205015
H    -1.257941  -4.157812  -0.883667
Hg    2.185021  1.712222  3.409311
