37
Energy: -574593.4505431  eV PBE+vdW (tier 2 basis)
C    -2.225125  0.470959  0.100224
C    -1.862361  0.013110  1.479191
O    -1.618580  -1.241442  1.577877
H    -1.317059  0.453722  -0.522924
H    -2.665808  1.474384  0.083993
H    -2.924379  -0.247407  -0.348764
N    -1.814476  0.931213  2.459946
C    -1.751089  0.859078  3.950774
C    -0.335641  0.567635  4.503116
O    0.105398  -0.633210  4.713487
H    -1.992165  1.871776  2.113818
H    -1.968742  1.891385  4.250109
C    -2.839027  -0.020864  4.615777
C    -4.256572  0.576932  4.508536
C    -5.281131  -0.218082  5.339960
N    -6.598935  0.418996  5.286635
C    -7.778220  -0.187068  5.559316
N    -8.916959  0.462738  5.302155
N    -7.810523  -1.429969  6.050479
H    -2.559651  -0.120850  5.676162
H    -2.836760  -1.041848  4.203062
H    -4.588509  0.611783  3.460560
H    -4.230078  1.616274  4.875818
H    -4.930815  -0.292350  6.383953
H    -5.380226  -1.238935  4.942253
H    -6.625562  1.433477  5.234879
H    -9.804983  0.140985  5.675092
H    -8.943905  1.284955  4.709018
H    -8.688053  -1.937344  6.113899
H    -7.029232  -1.822384  6.561894
N    0.463167  1.543675  4.890804
C    0.262486  2.991404  5.003989
H    1.364365  1.207908  5.250893
H    1.149957  3.487413  4.589892
H    0.172147  3.268405  6.063241
H    -0.619372  3.326964  4.453672
Hg    -0.422578  -2.071418  3.189217
