37
Energy: -574592.7546498  eV PBE+vdW (tier 2 basis)
C    0.734737  -0.071037  -0.687520
C    0.423678  0.362107  0.702350
O    1.322399  0.697974  1.538899
H    0.840482  0.827868  -1.318545
H    -0.030592  -0.709470  -1.139296
H    1.691570  -0.606470  -0.692559
N    -0.835775  0.393588  1.219416
C    -2.074646  -0.213122  0.731333
C    -1.924589  -1.777684  0.520803
O    -1.980679  -2.220632  -0.627417
H    -0.852112  0.748380  2.177980
H    -2.776836  -0.106703  1.572133
C    -2.620336  0.516083  -0.516287
C    -3.901840  -0.017942  -1.183537
C    -5.216210  0.132951  -0.370474
N    -6.382233  0.307689  -1.231789
C    -7.350802  -0.598047  -1.524224
N    -7.156122  -1.900472  -1.298789
N    -8.504415  -0.159316  -2.030682
H    -1.850452  0.532434  -1.297583
H    -2.763098  1.565217  -0.214705
H    -3.777955  -1.065153  -1.500586
H    -3.998395  0.553632  -2.119710
H    -5.164073  1.036064  0.258272
H    -5.399407  -0.713153  0.303720
H    -6.510762  1.234339  -1.633937
H    -7.924105  -2.561345  -1.376978
H    -6.225888  -2.296478  -1.241035
H    -9.183725  -0.798810  -2.434888
H    -8.784186  0.815429  -1.968049
N    -1.754415  -2.554743  1.604991
C    -1.566196  -2.162631  2.998663
H    -1.602196  -3.540264  1.380856
H    -0.529533  -1.855886  3.201844
H    -1.781629  -3.036163  3.624848
H    -2.259639  -1.365514  3.291614
Hg    3.320277  1.763282  1.100094
