37
Energy: -574593.2904209  eV PBE+vdW (tier 2 basis)
C    0.414541  1.770339  0.661842
C    0.009588  0.503952  1.327202
O    0.722985  -0.546026  1.319628
H    0.627388  1.572074  -0.398133
H    1.352435  2.122522  1.119807
H    -0.321338  2.575400  0.733265
N    -1.182954  0.337830  1.963818
C    -2.428366  1.081643  1.832810
C    -2.840269  1.416392  3.340841
O    -3.626474  0.683596  3.917055
H    -1.265604  -0.579660  2.416986
H    -2.233569  2.019423  1.297240
C    -3.528370  0.255503  1.134377
C    -4.849027  1.015085  0.910326
C    -5.924353  0.083492  0.321906
N    -7.184577  0.797373  0.114552
C    -8.199437  0.394862  -0.688466
N    -8.174937  -0.805322  -1.268820
N    -9.220765  1.232717  -0.903202
H    -3.712724  -0.644428  1.740248
H    -3.117540  -0.074479  0.168351
H    -4.691826  1.863044  0.226950
H    -5.216274  1.417061  1.866741
H    -6.085203  -0.768519  1.006930
H    -5.595645  -0.320459  -0.648101
H    -7.383203  1.584511  0.727725
H    -8.860101  -1.057788  -1.975070
H    -7.587068  -1.555575  -0.925010
H    -9.161541  2.221067  -0.679858
H    -10.076418  0.919895  -1.353697
N    -2.242487  2.497513  3.893035
C    -2.596235  2.986417  5.220352
H    -1.694072  3.111754  3.294719
H    -3.451452  3.680868  5.180391
H    -1.736128  3.530147  5.629914
H    -2.872475  2.133856  5.852424
Hg    3.043957  -0.741308  1.368775
