37
Energy: -574592.9708806  eV PBE+vdW (tier 2 basis)
C    -0.099966  0.460047  -0.221970
C    -0.139259  0.276076  1.259009
O    0.852049  0.125004  1.969754
H    -1.053078  0.788384  -0.650864
H    0.174465  -0.508487  -0.672267
H    0.696759  1.164575  -0.491024
N    -1.416870  0.282294  1.863824
C    -1.599750  0.141163  3.274373
C    -2.738075  -0.954374  3.564776
O    -3.136896  -0.986708  4.758085
H    -2.146669  0.765935  1.335039
H    -0.684936  -0.325408  3.673850
C    -1.919919  1.455479  4.019832
C    -0.818389  2.533984  3.977230
C    0.409345  2.366823  4.883749
N    1.527786  1.687939  4.246299
C    2.803126  1.647984  4.717525
N    3.724890  1.036941  3.962829
N    3.124888  2.199573  5.883741
H    -2.160882  1.186778  5.060312
H    -2.837378  1.893434  3.598601
H    -1.310931  3.458533  4.317063
H    -0.499801  2.760323  2.948404
H    0.137114  1.854376  5.826878
H    0.748961  3.377795  5.176740
H    1.347989  1.185383  3.365060
H    3.503820  0.683345  3.036821
H    4.690102  0.941616  4.268804
H    2.435386  2.620568  6.495571
H    4.089353  2.239928  6.202964
N    -3.106076  -1.730422  2.563532
C    -4.071569  -2.830486  2.609787
H    -2.618386  -1.563293  1.683336
H    -3.767715  -3.594531  3.341352
H    -4.082060  -3.312261  1.625171
H    -5.084841  -2.457070  2.809300
Hg    -4.711304  -2.323121  5.875238
