37
Energy: -574593.4565049  eV PBE+vdW (tier 2 basis)
C    -2.413080  -0.355597  -0.008078
C    -1.969376  -0.476521  1.417130
O    -1.522268  -1.633480  1.740095
H    -3.024363  0.535436  -0.192345
H    -2.975326  -1.255487  -0.291772
H    -1.518437  -0.331080  -0.650372
N    -2.064652  0.608675  2.205068
C    -1.970062  0.836981  3.678153
C    -0.517899  0.882528  4.210142
O    0.111692  -0.170100  4.630046
H    -2.398437  1.424400  1.695819
H    -2.348292  1.860480  3.787520
C    -2.890633  -0.057526  4.545857
C    -4.388870  0.269605  4.383319
C    -5.261517  -0.532575  5.368002
N    -6.676209  -0.186433  5.216405
C    -7.620235  -0.276646  6.182530
N    -8.821618  0.267747  5.968771
N    -7.353049  -0.875746  7.347264
H    -2.588366  0.101618  5.592503
H    -2.722284  -1.126433  4.340122
H    -4.710719  0.056633  3.351625
H    -4.553997  1.343515  4.560380
H    -4.965135  -0.294676  6.399800
H    -5.110998  -1.614809  5.213673
H    -7.021910  -0.025277  4.274591
H    -9.615430  0.045070  6.561762
H    -8.981539  0.942635  5.228704
H    -8.000737  -0.803255  8.126194
H    -6.623509  -1.572882  7.434604
N    0.121349  2.026930  4.361078
C    -0.304760  3.419638  4.195622
H    1.070174  1.911870  4.736594
H    0.481491  3.948752  3.641470
H    -0.411899  3.890969  5.182074
H    -1.242532  3.497965  3.641065
Hg    -0.201568  -1.944926  3.435584
