37
Energy: -574593.1502532  eV PBE+vdW (tier 2 basis)
C    -0.334679  -1.112937  0.266805
C    -0.362280  -0.199264  1.446392
O    0.688800  0.142061  2.101993
H    -1.332181  -1.324306  -0.132493
H    0.140823  -2.063164  0.549538
H    0.262253  -0.649454  -0.535341
N    -1.532354  0.279338  1.878876
C    -1.703305  1.113018  3.073851
C    -2.797901  0.433021  3.944574
O    -3.828219  0.059301  3.356871
H    -2.384602  -0.101329  1.463576
H    -0.740546  1.115276  3.603679
C    -2.101501  2.574695  2.743074
C    -3.464814  2.850227  2.078141
C    -4.584664  3.211189  3.102726
N    -5.877252  3.429831  2.476074
C    -6.875316  2.518157  2.341011
N    -6.671702  1.239876  2.660164
N    -8.059471  2.936682  1.884126
H    -1.312157  2.945495  2.071322
H    -1.998521  3.160003  3.669173
H    -3.785627  2.015140  1.439379
H    -3.354676  3.714776  1.409418
H    -4.313555  4.145404  3.613301
H    -4.697792  2.441383  3.875983
H    -6.055467  4.357519  2.094926
H    -7.442646  0.578965  2.665189
H    -5.748404  0.870093  2.878280
H    -8.815854  2.286335  1.687715
H    -8.284158  3.923697  1.794259
N    -2.582294  0.336934  5.259374
C    -3.492771  -0.315967  6.199437
H    -1.671976  0.621493  5.616897
H    -4.499587  -0.343421  5.772955
H    -3.483955  0.241267  7.143885
H    -3.164544  -1.346594  6.400171
Hg    2.811347  -0.157243  1.324639
