37
Energy: -574593.0784532  eV PBE+vdW (tier 2 basis)
C    1.332394  -0.423884  1.464158
C    0.707322  0.374422  0.373920
O    1.360759  0.864048  -0.600847
H    2.217037  0.114517  1.835796
H    1.688747  -1.383242  1.059228
H    0.670149  -0.610552  2.314011
N    -0.629726  0.606409  0.311833
C    -1.697398  -0.215035  0.856277
C    -2.430207  -0.897153  -0.351848
O    -2.669146  -0.214693  -1.344674
H    -0.903157  1.179783  -0.495531
H    -1.258894  -0.971499  1.516634
C    -2.764973  0.601742  1.673234
C    -3.417517  1.781907  0.940196
C    -4.784962  2.232826  1.482132
N    -4.716971  2.901464  2.786130
C    -5.794100  3.172088  3.567423
N    -5.597810  3.738513  4.763979
N    -7.025351  2.858207  3.164972
H    -2.252361  0.927364  2.590302
H    -3.528196  -0.127510  1.983147
H    -3.610915  1.505898  -0.110393
H    -2.733567  2.644333  0.893463
H    -5.456754  1.365992  1.577585
H    -5.227143  2.917058  0.737288
H    -3.882299  3.447935  2.983994
H    -4.679313  3.788346  5.191446
H    -6.372259  4.109222  5.307587
H    -7.817036  2.935177  3.797133
H    -7.246169  2.688465  2.190526
N    -2.779005  -2.195775  -0.214668
C    -3.374171  -2.967850  -1.295380
H    -2.476131  -2.702590  0.615881
H    -2.600466  -3.488284  -1.885576
H    -3.918946  -2.291869  -1.964258
H    -4.031738  -3.730764  -0.859271
Hg    3.575924  1.527960  -0.656954
