37
Energy: -574593.0145238  eV PBE+vdW (tier 2 basis)
C    -0.804348  -1.823617  -0.685294
C    -0.495494  -1.041127  0.541414
O    0.608388  -1.141763  1.167030
H    -0.124194  -1.498731  -1.489342
H    -1.831331  -1.717045  -1.043915
H    -0.603382  -2.886965  -0.496410
N    -1.373408  -0.187695  1.129493
C    -2.826884  -0.103063  0.992015
C    -3.142328  1.450487  0.946724
O    -3.514656  1.994612  1.980576
H    -0.979204  0.284345  1.950351
H    -3.122273  -0.564216  0.041934
C    -3.577262  -0.758894  2.170630
C    -5.104539  -0.800203  1.962882
C    -5.904771  -1.307577  3.171058
N    -6.107626  -0.273896  4.190283
C    -6.960126  -0.372274  5.240296
N    -7.192966  0.714687  5.987503
N    -7.557058  -1.528576  5.522153
H    -3.312416  -0.215653  3.089663
H    -3.193685  -1.784589  2.276188
H    -5.338709  -1.479010  1.130253
H    -5.497072  0.185377  1.671507
H    -5.401577  -2.181497  3.622998
H    -6.894880  -1.645372  2.824105
H    -5.602853  0.603206  4.089784
H    -7.740874  0.662388  6.842123
H    -6.912490  1.643422  5.689863
H    -8.274246  -1.590353  6.239094
H    -7.284914  -2.400389  5.083800
N    -2.973732  2.129512  -0.213647
C    -2.788408  1.633497  -1.569251
H    -3.254551  3.111435  -0.135234
H    -2.249458  2.402734  -2.138244
H    -3.754224  1.467657  -2.071932
H    -2.198728  0.713926  -1.584778
Hg    2.707189  -1.627307  0.329564
