37
Energy: -574593.3540545  eV PBE+vdW (tier 2 basis)
C    -1.823230  1.277526  1.419334
C    -1.069319  0.393216  2.361775
O    -0.657285  -0.707484  1.845428
H    -2.513459  0.664264  0.822920
H    -1.108559  1.720217  0.707055
H    -2.381692  2.071017  1.928991
N    -0.877373  0.818761  3.624351
C    -0.497479  0.151523  4.911397
C    1.033731  -0.004079  5.109045
O    1.732107  -0.973540  4.616313
H    -1.223238  1.766685  3.760695
H    -0.810149  0.891332  5.661908
C    -1.274390  -1.155664  5.213101
C    -2.809249  -0.980832  5.338537
C    -3.371963  -0.685904  6.745693
N    -3.639796  -1.901444  7.520554
C    -4.684537  -2.084543  8.362437
N    -4.984547  -3.321432  8.769443
N    -5.423682  -1.048703  8.771690
H    -0.841320  -1.574433  6.134711
H    -1.076785  -1.908381  4.434320
H    -3.301614  -1.883319  4.952012
H    -3.143069  -0.172362  4.672557
H    -4.329932  -0.164350  6.622705
H    -2.704978  -0.010900  7.309976
H    -2.964193  -2.658237  7.486634
H    -4.657337  -4.144284  8.275437
H    -5.606011  -3.480350  9.556750
H    -6.307032  -1.200950  9.249514
H    -5.062962  -0.102355  8.785377
N    1.647420  0.855878  5.896238
C    3.081915  0.849005  6.216307
H    1.080639  1.556650  6.373004
H    3.249615  0.302511  7.154993
H    3.409895  1.886486  6.341315
H    3.638482  0.362842  5.410460
Hg    1.002374  -1.750365  2.742025
