37
Energy: -574593.3799047  eV PBE+vdW (tier 2 basis)
C    -2.121910  0.723610  1.391156
C    -1.218733  0.162431  2.442705
O    -0.831136  -1.045535  2.228774
H    -2.812682  -0.058603  1.048300
H    -1.508179  0.997373  0.517073
H    -2.688639  1.596772  1.733446
N    -0.877889  0.946483  3.479679
C    -0.318598  0.698918  4.849884
C    1.228939  0.606662  4.916573
O    1.911357  -0.460356  4.643269
H    -1.246260  1.890827  3.378684
H    -0.561826  1.638134  5.365976
C    -1.029505  -0.415068  5.662687
C    -2.515626  -0.085565  5.941911
C    -3.128883  -0.703241  7.216747
N    -3.622690  -2.074907  7.064525
C    -4.669743  -2.594280  7.752412
N    -5.162627  -3.782244  7.387321
N    -5.223198  -1.926020  8.767293
H    -0.478229  -0.488183  6.613479
H    -0.927243  -1.399482  5.178284
H    -3.146559  -0.329607  5.075373
H    -2.604049  1.002554  6.084666
H    -3.994394  -0.083158  7.484890
H    -2.408334  -0.638095  8.049639
H    -3.041826  -2.751482  6.580771
H    -4.985037  -4.177298  6.471107
H    -5.798977  -4.295439  7.989620
H    -6.113216  -2.220830  9.158346
H    -4.718406  -1.216714  9.285714
N    1.887197  1.651315  5.373564
C    3.344240  1.739966  5.542885
H    1.346997  2.453667  5.697684
H    3.651741  2.768003  5.322791
H    3.839754  1.035232  4.869961
H    3.609749  1.500264  6.582190
Hg    0.998423  -1.692103  3.150621
