37
Energy: -574593.4529691  eV PBE+vdW (tier 2 basis)
C    -1.366492  -1.650739  -0.333484
C    -1.364534  -1.188355  1.089534
O    -0.756396  -1.974322  1.902675
H    -1.610934  -2.722107  -0.363121
H    -0.347012  -1.551315  -0.737947
H    -2.074294  -1.097406  -0.961428
N    -1.968105  -0.023927  1.384241
C    -2.453684  0.612296  2.650756
C    -1.336866  1.346511  3.431904
O    -0.624157  0.762910  4.344682
H    -2.331886  0.437332  0.552388
H    -3.120130  1.398815  2.277554
C    -3.338752  -0.317377  3.515524
C    -4.199864  0.440732  4.545665
C    -5.252045  -0.480399  5.192976
N    -6.090240  0.264092  6.134970
C    -6.829174  -0.282158  7.129099
N    -7.400240  0.520572  8.031138
N    -6.962823  -1.608705  7.230002
H    -2.744906  -1.093226  4.026347
H    -3.988778  -0.857051  2.810712
H    -4.719493  1.269219  4.036373
H    -3.571393  0.883994  5.332458
H    -4.755387  -1.290458  5.747157
H    -5.871077  -0.938952  4.402597
H    -6.294630  1.234691  5.914792
H    -8.123336  0.181105  8.658010
H    -7.119318  1.488687  8.142045
H    -7.386195  -2.023382  8.054833
H    -6.858170  -2.217745  6.427328
N    -1.108847  2.633756  3.258056
C    -1.788607  3.653035  2.453158
H    -0.334280  2.988819  3.830875
H    -1.037182  4.147337  1.822627
H    -2.231278  4.405379  3.118940
H    -2.563625  3.223870  1.814619
Hg    -0.055874  -1.256527  3.807943
