37
Energy: -574593.5111393  eV PBE+vdW (tier 2 basis)
C    -1.003442  -0.264801  0.502893
C    -0.538329  -0.198334  1.921588
O    0.543804  0.457840  2.111342
H    -1.046422  0.756593  0.095169
H    -1.986886  -0.737258  0.401200
H    -0.255824  -0.807143  -0.094541
N    -1.264036  -0.812742  2.877095
C    -1.280629  -0.584053  4.337617
C    -0.420608  -1.627134  5.100523
O    0.866069  -1.609795  5.025086
H    -2.052077  -1.346015  2.515475
H    -0.749050  0.367202  4.519382
C    -2.721173  -0.321250  4.855487
C    -3.872321  -1.279008  4.474969
C    -5.181376  -0.820905  5.154208
N    -6.316320  -1.660120  4.768559
C    -7.616178  -1.275298  4.790444
N    -8.537568  -2.075268  4.247825
N    -7.973686  -0.100486  5.317540
H    -2.982807  0.685658  4.497926
H    -2.648079  -0.225394  5.950305
H    -3.663172  -2.323570  4.761489
H    -4.039161  -1.284679  3.386376
H    -5.403594  0.211019  4.846131
H    -5.048881  -0.822880  6.249626
H    -6.157388  -2.660329  4.687177
H    -8.289692  -2.833442  3.621592
H    -9.527907  -1.934540  4.423143
H    -8.915759  0.257503  5.189787
H    -7.409463  0.367946  6.016581
N    -0.972912  -2.534416  5.874525
C    -0.229260  -3.526203  6.670750
H    -1.987870  -2.573520  5.907446
H    -0.865618  -3.847019  7.500219
H    0.689407  -3.072539  7.055891
H    0.027735  -4.392293  6.046780
Hg    1.773470  -0.016328  3.845396
