37
Energy: -574592.7751253  eV PBE+vdW (tier 2 basis)
C    0.124959  0.093111  -0.467522
C    0.061792  0.065698  1.017198
O    1.053921  0.370250  1.760275
H    -0.841469  -0.035043  -0.959563
H    0.779045  -0.733035  -0.793903
H    0.592192  1.028378  -0.800770
N    -1.035389  -0.282818  1.729282
C    -2.475348  -0.324919  1.407841
C    -2.744082  -1.327111  0.233490
O    -3.097394  -0.912125  -0.866796
H    -0.824267  -0.365587  2.728948
H    -2.917979  -0.769662  2.310171
C    -3.220726  1.021983  1.228526
C    -2.821060  1.969237  0.092291
C    -3.703884  3.234671  0.024218
N    -5.003931  2.988569  -0.600411
C    -6.084803  3.808221  -0.510929
N    -7.230361  3.424231  -1.084588
N    -6.013779  4.960825  0.154093
H    -3.133257  1.544568  2.194289
H    -4.283056  0.747509  1.136394
H    -2.845914  1.462906  -0.883755
H    -1.791231  2.326959  0.235112
H    -3.153744  3.995204  -0.558178
H    -3.874093  3.643278  1.031662
H    -5.028233  2.304172  -1.353960
H    -8.015519  4.062770  -1.179835
H    -7.375718  2.476396  -1.416525
H    -5.128440  5.407094  0.364275
H    -6.847684  5.513757  0.332270
N    -2.604645  -2.660159  0.474514
C    -2.523172  -3.385244  1.734540
H    -2.882046  -3.223517  -0.335833
H    -3.524685  -3.687744  2.081139
H    -2.020080  -2.804907  2.511623
H    -1.949576  -4.306362  1.557567
Hg    3.312912  0.070822  1.350818
