37
Energy: -574592.7984080  eV PBE+vdW (tier 2 basis)
C    0.170815  0.576337  0.656042
C    0.047332  -0.590073  1.566465
O    1.061521  -1.238259  1.987024
H    0.752809  1.350312  1.188973
H    -0.775567  1.018042  0.348768
H    0.736484  0.283281  -0.238219
N    -1.125229  -1.097673  2.053969
C    -2.450015  -1.159695  1.446911
C    -2.341735  -1.926907  0.054216
O    -1.577896  -1.438615  -0.773305
H    -0.946284  -1.830222  2.746257
H    -3.024460  -1.791293  2.136954
C    -3.157783  0.204021  1.231578
C    -4.686477  0.131226  1.002543
C    -5.539286  0.236205  2.277642
N    -6.950526  0.399586  1.919664
C    -7.996015  0.432871  2.781067
N    -9.237725  0.475554  2.286087
N    -7.793853  0.399101  4.099424
H    -2.720756  0.695734  0.356218
H    -2.932200  0.838509  2.101057
H    -4.962823  -0.770058  0.434259
H    -4.942587  0.983128  0.355155
H    -5.438594  -0.656113  2.917531
H    -5.199686  1.108841  2.864446
H    -7.154747  0.656254  0.956687
H    -10.041406  0.650807  2.882989
H    -9.433491  0.306365  1.304494
H    -6.894685  0.620921  4.509254
H    -8.574087  0.319922  4.745229
N    -3.071820  -3.034585  -0.147610
C    -3.866351  -3.807765  0.806506
H    -2.891563  -3.473865  -1.053437
H    -3.232092  -4.351430  1.521764
H    -4.434323  -4.551439  0.237147
H    -4.582942  -3.175263  1.342354
Hg    3.162246  -0.391069  2.286448
