37
Energy: -574593.0231859  eV PBE+vdW (tier 2 basis)
C    -0.789726  0.655615  0.611207
C    -0.067867  0.028633  1.747262
O    1.193497  0.129367  1.901545
H    -1.860750  0.458645  0.595340
H    -0.350659  0.312904  -0.335056
H    -0.636411  1.747070  0.681628
N    -0.648213  -0.711595  2.736041
C    -1.817389  -1.587621  2.705710
C    -1.649002  -2.672478  1.565443
O    -1.506632  -2.274657  0.413180
H    0.028944  -0.943347  3.468288
H    -1.780335  -2.104973  3.674924
C    -3.193479  -0.870151  2.570335
C    -4.346259  -1.788925  3.023338
C    -5.763540  -1.216220  2.838966
N    -6.176327  -0.303637  3.907532
C    -7.297235  0.463596  3.873043
N    -7.557343  1.272383  4.905969
N    -8.111413  0.434437  2.817788
H    -3.355962  -0.572359  1.526632
H    -3.152143  0.044930  3.177778
H    -4.210071  -2.099019  4.072317
H    -4.324608  -2.717577  2.434696
H    -6.456631  -2.076185  2.804237
H    -5.846096  -0.687714  1.876996
H    -5.796731  -0.482487  4.834605
H    -8.454216  1.740893  4.998959
H    -6.871418  1.460550  5.629217
H    -8.882275  1.091109  2.734832
H    -8.101194  -0.328254  2.150677
N    -1.686540  -3.964366  1.936237
C    -1.468136  -5.063846  0.998509
H    -1.708219  -4.189676  2.928729
H    -2.026089  -5.939031  1.351674
H    -0.400974  -5.331651  0.949308
H    -1.800264  -4.758707  0.000357
Hg    2.531292  1.843484  1.183291
