37
Energy: -574593.2505046  eV PBE+vdW (tier 2 basis)
C    -0.075482  0.946502  -0.249587
C    0.183302  0.790488  1.215892
O    1.238403  1.083518  1.774757
H    -0.670819  1.864313  -0.397460
H    -0.641997  0.110780  -0.679007
H    0.877256  1.071042  -0.772813
N    -0.879242  0.274745  1.981209
C    -0.799081  -0.136637  3.345968
C    -0.702450  1.152316  4.325046
O    -1.695937  1.184026  5.101111
H    -1.750925  0.078821  1.487934
H    -1.763125  -0.594044  3.600225
C    0.343476  -1.136096  3.733415
C    0.157660  -2.480591  3.004481
C    1.308680  -3.485899  3.223024
N    1.157539  -4.322687  4.408408
C    2.146443  -5.082677  4.955900
N    3.360719  -5.120616  4.408049
N    1.882265  -5.770598  6.070272
H    0.318331  -1.271335  4.824159
H    1.310595  -0.683928  3.476843
H    0.112958  -2.298385  1.921722
H    -0.802978  -2.950106  3.268233
H    2.277752  -2.967162  3.279347
H    1.333759  -4.127741  2.321813
H    0.208866  -4.599040  4.654344
H    4.130955  -5.585564  4.881119
H    3.524331  -4.860907  3.441925
H    1.042409  -5.610973  6.616862
H    2.521965  -6.479248  6.419578
N    0.321660  1.960637  4.211845
C    0.559288  3.183498  4.985660
H    0.957359  1.733019  3.423775
H    1.523830  3.592725  4.665818
H    0.626483  2.964326  6.059395
H    -0.209415  3.942006  4.780867
Hg    -2.414997  2.761027  6.657001
