37
Energy: -574592.6290145  eV PBE+vdW (tier 2 basis)
C    -1.117261  -1.719449  0.410919
C    -2.352135  -1.056577  -0.081768
O    -2.641505  -1.222647  -1.319093
H    -0.978676  -1.609456  1.488792
H    -0.239918  -1.391246  -0.161009
H    -1.231659  -2.796618  0.194858
N    -3.243523  -0.405658  0.703115
C    -3.123663  0.703202  1.670196
C    -3.350076  1.989284  0.836130
O    -2.955266  2.058273  -0.385175
H    -4.174225  -0.411409  0.278306
H    -3.986192  0.570344  2.340152
C    -1.880204  0.765082  2.593573
C    -0.561208  1.363197  2.065641
C    0.525652  1.258062  3.153432
N    1.768130  1.923466  2.757164
C    2.764586  2.285291  3.602755
N    2.735869  1.924308  4.886558
N    3.770757  3.031863  3.133930
H    -2.198138  1.354587  3.466013
H    -1.728896  -0.250363  2.988392
H    -0.703169  2.422119  1.801332
H    -0.219243  0.851367  1.154082
H    0.718885  0.193816  3.377911
H    0.168634  1.732096  4.080741
H    1.981952  1.980371  1.765414
H    3.399166  2.311700  5.551703
H    2.173180  1.149264  5.216842
H    4.616954  3.179295  3.677131
H    3.708649  3.525908  2.249839
N    -3.913807  3.063328  1.370807
C    -4.323196  3.321064  2.750243
H    -4.032517  3.840160  0.712359
H    -3.559150  3.914994  3.272789
H    -5.250560  3.906803  2.727512
H    -4.499938  2.388258  3.294185
Hg    -3.478824  0.680478  -2.173658
