37
Energy: -574593.3471329  eV PBE+vdW (tier 2 basis)
C    -1.703765  1.020858  0.659031
C    -1.015006  0.338361  1.798307
O    -0.482689  -0.791055  1.496914
H    -0.938522  1.397096  -0.038462
H    -2.353266  1.842666  0.981023
H    -2.294798  0.281122  0.100392
N    -0.996482  0.949925  2.996220
C    -0.728966  0.498781  4.401900
C    0.780947  0.505430  4.770287
O    1.588898  -0.467880  4.513512
H    -1.419808  1.875436  2.957269
H    -1.175383  1.307954  4.997024
C    -1.461705  -0.807770  4.791655
C    -1.519318  -1.071742  6.315828
C    -2.714217  -0.458369  7.083991
N    -3.962885  -1.224586  7.012397
C    -4.498829  -1.958773  8.018152
N    -5.808127  -2.219537  8.010447
N    -3.733521  -2.425031  9.010021
H    -0.993004  -1.678854  4.304829
H    -2.470908  -0.756489  4.357518
H    -0.593097  -0.717401  6.794700
H    -1.524420  -2.158982  6.471136
H    -2.937114  0.561745  6.736495
H    -2.445831  -0.353661  8.143189
H    -4.589677  -1.033638  6.237641
H    -6.463641  -1.669373  7.465748
H    -6.207910  -2.932739  8.613064
H    -4.151560  -2.820742  9.846613
H    -2.729210  -2.512773  8.923578
N    1.250435  1.537852  5.441193
C    2.646921  1.721782  5.861756
H    0.590020  2.256460  5.736412
H    2.774343  1.367826  6.894150
H    2.879510  2.791155  5.818510
H    3.309529  1.156051  5.201286
Hg    1.097056  -1.578105  2.724271
