37
Energy: -574593.1259919  eV PBE+vdW (tier 2 basis)
C    0.693446  -0.324357  0.724032
C    0.098789  0.000771  2.046625
O    0.845070  -0.091634  3.079931
H    1.407021  0.460426  0.427842
H    -0.063430  -0.475051  -0.052243
H    1.292150  -1.242373  0.831846
N    -1.201724  0.353766  2.200887
C    -1.906031  1.376414  1.418402
C    -1.524527  2.735091  2.069794
O    -1.191417  2.794943  3.308424
H    -1.513041  0.326617  3.174488
H    -1.528025  1.344181  0.387273
C    -3.438862  1.159623  1.443504
C    -3.907144  -0.118082  0.721516
C    -5.439723  -0.260992  0.771499
N    -5.883773  -1.456420  0.051905
C    -7.087978  -2.061888  0.194541
N    -8.044523  -1.513757  0.945376
N    -7.295535  -3.234856  -0.414757
H    -3.912550  2.040052  0.985274
H    -3.770819  1.154340  2.494460
H    -3.446776  -1.007208  1.176723
H    -3.579652  -0.083007  -0.330336
H    -5.912061  0.637676  0.335997
H    -5.777677  -0.345159  1.815564
H    -5.319688  -1.766239  -0.735331
H    -8.044738  -0.528275  1.180197
H    -8.891742  -2.028418  1.167647
H    -8.225591  -3.638887  -0.482048
H    -6.532430  -3.790150  -0.787904
N    -1.599480  3.874241  1.396355
C    -2.137484  4.145285  0.066059
H    -1.306161  4.695255  1.936775
H    -3.116884  4.638943  0.150221
H    -2.233378  3.228609  -0.521301
H    -1.454413  4.835014  -0.447332
Hg    0.495599  1.674745  4.451239
