37
Energy: -574593.4774480  eV PBE+vdW (tier 2 basis)
C    0.427941  0.610746  0.291032
C    -0.128881  -0.063976  1.505203
O    0.652406  -0.100428  2.514962
H    0.846252  1.585773  0.577770
H    -0.322042  0.749021  -0.496556
H    1.265694  0.009382  -0.093173
N    -1.373603  -0.575086  1.448604
C    -2.207576  -1.084871  2.549760
C    -1.880912  -2.563086  2.908995
O    -1.228231  -2.806306  3.997993
H    -1.831673  -0.473814  0.544831
H    -1.922307  -0.530312  3.459152
C    -3.712054  -0.799432  2.319580
C    -4.119827  0.665079  2.581429
C    -5.624333  0.884214  2.309201
N    -6.032118  2.284072  2.457993
C    -7.066732  2.761273  3.191864
N    -7.625487  3.922696  2.843152
N    -7.524053  2.096824  4.258152
H    -4.275613  -1.464251  2.992226
H    -3.994955  -1.093483  1.297793
H    -3.536963  1.342635  1.937791
H    -3.890308  0.943012  3.621145
H    -6.237324  0.266554  2.977296
H    -5.871510  0.563857  1.284213
H    -5.662214  2.934202  1.769392
H    -8.236013  4.427439  3.479059
H    -7.515317  4.316127  1.914316
H    -8.394073  2.369239  4.705051
H    -6.963466  1.408217  4.743102
N    -2.259230  -3.611266  2.203456
C    -3.113760  -3.717447  1.016828
H    -1.949124  -4.502985  2.604059
H    -2.967979  -2.866560  0.346120
H    -4.170270  -3.803272  1.304192
H    -2.825585  -4.631567  0.485986
Hg    0.409244  -1.372221  4.299032
