37
Energy: -574593.7116313  eV PBE+vdW (tier 2 basis)
C    -4.171895  2.407147  5.103325
C    -3.334999  1.657593  4.116844
O    -3.256513  2.190820  2.955220
H    -4.117773  1.983003  6.112490
H    -5.213997  2.418748  4.750782
H    -3.838881  3.455558  5.130333
N    -2.742751  0.511619  4.503678
C    -1.614544  -0.226423  3.886444
C    -2.127092  -1.325242  2.917025
O    -2.273053  -1.084396  1.659556
H    -2.975092  0.228464  5.455049
H    -1.055950  0.484506  3.254945
C    -0.653956  -0.696579  5.004556
C    0.696030  -1.258226  4.516331
C    1.625518  -1.580173  5.703748
N    2.920374  -2.083657  5.242103
C    4.081035  -2.018552  5.936403
N    4.094774  -1.613366  7.209921
N    5.223575  -2.339272  5.322233
H    -1.164313  -1.423542  5.660916
H    -0.469941  0.187944  5.633545
H    1.192778  -0.523509  3.864962
H    0.541330  -2.168899  3.915712
H    1.141737  -2.314112  6.371081
H    1.807569  -0.664890  6.285540
H    2.927908  -2.684543  4.422974
H    4.973200  -1.413234  7.678844
H    3.276683  -1.682697  7.803257
H    5.292814  -2.395094  4.311961
H    6.077111  -2.503523  5.847363
N    -2.410647  -2.529470  3.364675
C    -2.958765  -3.629861  2.555984
H    -2.196655  -2.735179  4.339181
H    -3.575447  -4.258793  3.205637
H    -2.141457  -4.231455  2.136192
H    -3.559131  -3.220534  1.738443
Hg    -2.666582  1.022820  1.217746
