37
Energy: -574592.6992739  eV PBE+vdW (tier 2 basis)
C    -3.145305  1.433568  -0.096105
C    -2.351834  1.099624  1.121819
O    -1.147427  1.076157  1.226989
H    -4.195844  1.125671  -0.047122
H    -2.661027  0.992828  -0.977031
H    -3.118283  2.527000  -0.237758
N    -3.144384  0.797524  2.334288
C    -2.409118  0.798430  3.611065
C    -3.173021  -0.070371  4.651495
O    -3.543269  -1.256395  4.358014
H    -4.027368  1.325470  2.353417
H    -1.482956  0.237191  3.402801
C    -2.019421  2.232183  4.070776
C    -0.728394  2.281699  4.927580
C    0.607546  2.283025  4.165302
N    0.911196  3.569304  3.527316
C    1.656542  3.751588  2.401249
N    2.367010  4.872462  2.274973
N    1.654567  2.832432  1.432348
H    -2.855402  2.710851  4.603337
H    -1.873644  2.844919  3.171558
H    -0.679105  1.435656  5.629706
H    -0.782878  3.175961  5.567776
H    0.656596  1.487475  3.412749
H    1.409039  2.065589  4.893439
H    0.861491  4.382620  4.139845
H    2.607326  5.451446  3.074694
H    2.779625  5.142557  1.385614
H    2.327668  2.876914  0.672714
H    0.920127  2.135831  1.356229
N    -3.370375  0.372380  5.878572
C    -3.991720  -0.403509  6.959392
H    -2.997280  1.287420  6.123293
H    -4.701440  -1.121219  6.535684
H    -4.497327  0.294425  7.634884
H    -3.221183  -0.952752  7.520020
Hg    -4.008745  -1.613552  2.199237
