37
Energy: -574592.9578669  eV PBE+vdW (tier 2 basis)
C    1.209537  0.959893  0.876066
C    0.546370  0.811490  2.201844
O    1.177284  0.784178  3.309168
H    1.627609  1.978854  0.804025
H    0.526094  0.820845  0.031302
H    2.042898  0.250442  0.787664
N    -0.797024  0.655173  2.253643
C    -1.602999  0.588395  3.460935
C    -1.923252  -0.906518  3.868451
O    -3.068081  -1.216781  4.180095
H    -1.267499  0.513049  1.359640
H    -0.968790  0.967386  4.278496
C    -2.867740  1.470887  3.388408
C    -3.884231  1.343308  2.236125
C    -4.883781  0.155409  2.215948
N    -5.739992  0.044733  3.389682
C    -7.052856  0.380743  3.481934
N    -7.748384  -0.059134  4.536923
N    -7.638213  1.133627  2.551784
H    -2.496763  2.506117  3.366725
H    -3.371334  1.360090  4.359054
H    -3.389766  1.340685  1.251230
H    -4.467552  2.275783  2.246739
H    -4.355075  -0.803137  2.130393
H    -5.514185  0.242567  1.321392
H    -5.326926  -0.424699  4.194373
H    -7.407779  -0.810855  5.128432
H    -8.694912  0.264304  4.720416
H    -8.645257  1.270598  2.542913
H    -7.110202  1.642735  1.853478
N    -0.883770  -1.774604  3.892421
C    -0.998452  -3.118583  4.439739
H    0.055709  -1.410690  3.744894
H    -0.245194  -3.757734  3.963694
H    -2.013724  -3.492695  4.263633
H    -0.816510  -3.125359  5.528246
Hg    3.194783  1.959166  3.690973
