37
Energy: -574592.9944331  eV PBE+vdW (tier 2 basis)
C    -0.758941  -2.696684  0.584807
C    -0.392044  -1.899748  1.784124
O    0.718964  -1.974773  2.389694
H    -0.464153  -2.148135  -0.324850
H    -1.832519  -2.908320  0.525527
H    -0.204039  -3.643593  0.584701
N    -1.228094  -0.943604  2.300463
C    -2.242026  -0.228753  1.568665
C    -1.526199  0.896660  0.665289
O    -1.064839  0.470963  -0.388981
H    -0.860203  -0.505967  3.151402
H    -2.665140  -0.904072  0.816229
C    -3.383042  0.279587  2.499953
C    -4.615913  0.746645  1.708870
C    -5.945487  0.770223  2.518858
N    -6.171295  1.937142  3.369553
C    -7.059223  2.937817  3.132987
N    -7.451730  3.704878  4.154817
N    -7.525553  3.167758  1.904892
H    -3.017654  1.050698  3.197109
H    -3.651550  -0.588691  3.121071
H    -4.796877  0.040174  0.884148
H    -4.445380  1.727914  1.242953
H    -6.013413  -0.122411  3.156150
H    -6.781734  0.697753  1.811670
H    -5.801288  1.901843  4.315305
H    -7.999502  4.547265  4.002891
H    -7.335869  3.414194  5.120519
H    -8.308274  3.796415  1.750338
H    -7.117844  2.744496  1.081044
N    -1.450559  2.148062  1.113268
C    -0.710082  3.201487  0.399871
H    -1.818426  2.362811  2.034886
H    0.341609  3.217767  0.715310
H    -1.170381  4.167186  0.631136
H    -0.760113  3.006096  -0.676340
Hg    2.033055  -3.867195  2.648686
