37
Energy: -574593.3562344  eV PBE+vdW (tier 2 basis)
C    -0.037117  -0.082804  -0.092168
C    -0.266976  -0.397696  1.352580
O    0.573417  -1.229768  1.854216
H    -0.904979  0.384601  -0.571155
H    0.227256  -1.006191  -0.625987
H    0.837675  0.582859  -0.169475
N    -1.285232  0.210629  1.986167
C    -2.032922  -0.042643  3.261616
C    -1.339315  0.564587  4.513305
O    -0.413983  -0.035024  5.185128
H    -1.757956  0.883795  1.385501
H    -2.946848  0.551692  3.120596
C    -2.481783  -1.512392  3.444668
C    -3.548604  -1.699226  4.555269
C    -5.008461  -1.857616  4.094291
N    -5.278074  -3.207894  3.581903
C    -6.440271  -3.585464  2.990027
N    -6.564878  -4.836602  2.541031
N    -7.433783  -2.708482  2.816593
H    -1.617869  -2.161677  3.659783
H    -2.860345  -1.858747  2.472294
H    -3.527601  -0.851837  5.256620
H    -3.277302  -2.564373  5.177107
H    -5.252313  -1.132093  3.302540
H    -5.656326  -1.639146  4.959233
H    -4.752303  -3.963836  4.013316
H    -5.772050  -5.464677  2.472329
H    -7.466553  -5.211759  2.263022
H    -8.250940  -2.955442  2.266024
H    -7.519768  -1.878434  3.390784
N    -1.768087  1.729301  4.956046
C    -1.228151  2.456490  6.113456
H    -2.572013  2.150702  4.491253
H    -1.286862  3.529519  5.901663
H    -0.192651  2.153765  6.290387
H    -1.829112  2.233253  7.006027
Hg    0.864931  -1.295025  3.983334
