37
Energy: -574593.1125969  eV PBE+vdW (tier 2 basis)
C    -0.682346  -1.806366  2.775337
C    -0.243543  -0.464535  2.303353
O    0.731166  0.174041  2.842974
H    0.068149  -2.551144  2.460905
H    -1.650868  -2.125070  2.380954
H    -0.723221  -1.815857  3.871858
N    -0.843417  0.204495  1.307804
C    -2.092817  -0.077374  0.618266
C    -1.872603  0.516366  -0.813825
O    -1.212204  1.549346  -0.912945
H    -0.387734  1.076681  1.006000
H    -2.240511  -1.162202  0.582477
C    -3.373549  0.566609  1.240169
C    -3.412412  2.099009  1.333451
C    -4.794370  2.586126  1.817005
N    -4.854644  4.047360  1.842862
C    -5.734826  4.792572  2.555553
N    -5.569294  6.119588  2.595365
N    -6.736791  4.215676  3.220358
H    -3.491739  0.113442  2.237632
H    -4.223270  0.202584  0.641853
H    -3.204952  2.545450  0.347777
H    -2.637921  2.469035  2.021078
H    -5.001161  2.214803  2.832003
H    -5.577379  2.190488  1.145760
H    -4.302913  4.548326  1.150163
H    -4.702721  6.562829  2.307435
H    -6.293439  6.732569  2.959879
H    -7.312238  4.751714  3.863464
H    -7.067779  3.285680  2.991501
N    -2.426953  -0.100394  -1.884412
C    -3.096910  -1.386915  -1.976451
H    -2.143721  0.328505  -2.771019
H    -3.799656  -1.345550  -2.819568
H    -3.650055  -1.622528  -1.062177
H    -2.379035  -2.195994  -2.192672
Hg    2.617011  -0.732598  3.711574
