37
Energy: -574593.5205652  eV PBE+vdW (tier 2 basis)
C    -1.284708  -2.814826  -0.526138
C    -0.818631  -1.969522  0.617379
O    0.377722  -1.532074  0.516629
H    -0.624455  -3.688537  -0.620899
H    -1.186144  -2.238629  -1.458231
H    -2.325403  -3.140320  -0.409552
N    -1.665149  -1.736016  1.638503
C    -1.544486  -0.738325  2.716547
C    -0.682119  -1.254302  3.901714
O    0.504547  -0.771364  4.059662
H    -2.577578  -2.176990  1.534401
H    -0.958580  0.106292  2.317233
C    -2.937412  -0.159288  3.065938
C    -2.919063  0.974786  4.109004
C    -4.305164  1.638886  4.228052
N    -4.282591  2.738239  5.194441
C    -5.364390  3.247020  5.831479
N    -6.598464  2.852912  5.504489
N    -5.179602  4.130561  6.816861
H    -3.614986  -0.962027  3.389286
H    -3.341302  0.225102  2.116237
H    -2.180447  1.736584  3.811209
H    -2.612999  0.598410  5.096952
H    -5.046964  0.901709  4.569061
H    -4.622891  2.004323  3.236204
H    -3.434478  3.295537  5.249749
H    -7.394505  3.115359  6.078336
H    -6.812722  2.466398  4.592859
H    -5.948636  4.685515  7.180434
H    -4.275239  4.263367  7.256517
N    -1.085995  -2.142050  4.790676
C    -2.381661  -2.804748  4.966446
H    -0.373694  -2.367800  5.492373
H    -2.197007  -3.757348  5.475102
H    -2.854598  -3.015660  4.003865
H    -3.048006  -2.202241  5.598034
Hg    1.542800  -0.579933  2.117148
