37
Energy: -574592.9389826  eV PBE+vdW (tier 2 basis)
C    -1.064466  -2.210643  -0.447196
C    -0.788727  -1.595506  0.877839
O    0.019679  -2.061393  1.731765
H    -1.490087  -1.510487  -1.173488
H    -1.761769  -3.054902  -0.316498
H    -0.137565  -2.628763  -0.860834
N    -1.461184  -0.480465  1.313426
C    -2.778119  -0.052167  0.887788
C    -2.752325  1.398367  0.208939
O    -3.856413  1.928944  0.082561
H    -1.144506  -0.160798  2.234177
H    -3.092600  -0.693942  0.052524
C    -3.868037  -0.159120  1.979954
C    -3.819965  0.718816  3.244279
C    -4.290159  2.195091  3.150925
N    -5.642286  2.390446  2.639987
C    -6.745922  2.732651  3.353540
N    -6.769879  2.621214  4.681094
N    -7.818491  3.180527  2.691338
H    -3.852826  -1.210136  2.306013
H    -4.827163  -0.028368  1.458951
H    -2.812695  0.743087  3.690662
H    -4.444396  0.211092  3.994154
H    -3.626934  2.777148  2.496523
H    -4.216433  2.651243  4.146457
H    -5.740212  2.386969  1.625923
H    -7.535179  3.007226  5.226927
H    -6.070306  2.099891  5.194975
H    -7.761507  3.499653  1.729104
H    -8.711308  3.316248  3.158589
N    -1.595039  1.885854  -0.220690
C    -1.463465  3.159404  -0.948625
H    -0.754249  1.348639  -0.029556
H    -1.375239  3.996655  -0.244321
H    -2.337844  3.308494  -1.589396
H    -0.561145  3.110856  -1.565534
Hg    1.950427  -3.354066  1.409868
