37
Energy: -574593.0676524  eV PBE+vdW (tier 2 basis)
C    0.208816  -1.936403  1.679771
C    0.275200  -0.521786  2.131130
O    1.285654  0.010025  2.684842
H    0.113549  -2.594609  2.558460
H    1.153842  -2.205940  1.188254
H    -0.613364  -2.138541  0.986179
N    -0.794525  0.318386  2.045106
C    -2.186847  -0.060946  1.903982
C    -2.646785  0.093409  0.371769
O    -3.124748  -0.936899  -0.089852
H    -0.579517  1.280396  2.322667
H    -2.263412  -1.140692  2.060779
C    -3.142005  0.659275  2.882169
C    -4.593899  0.150269  2.777834
C    -5.487288  0.723694  3.890984
N    -6.843330  0.179772  3.793787
C    -7.947151  0.689562  4.391906
N    -9.142377  0.172311  4.084250
N    -7.850588  1.700816  5.255981
H    -3.102682  1.748186  2.733062
H    -2.751026  0.461470  3.893212
H    -4.596274  -0.949560  2.843909
H    -5.027094  0.411620  1.801068
H    -5.548642  1.820001  3.810099
H    -5.055574  0.482186  4.879070
H    -6.950717  -0.733106  3.357986
H    -9.973998  0.405104  4.620125
H    -9.277735  -0.427511  3.276540
H    -8.681104  2.171184  5.603755
H    -6.978067  1.933401  5.715280
N    -2.510785  1.238011  -0.316454
C    -2.211443  2.596160  0.131366
H    -2.891247  1.166291  -1.263734
H    -1.754039  3.131364  -0.710074
H    -1.495667  2.613306  0.956683
H    -3.124895  3.134172  0.420324
Hg    3.540737  -0.458611  2.324442
