37
Energy: -574593.5095424  eV PBE+vdW (tier 2 basis)
C    -1.607687  3.319804  3.539591
C    -1.941142  2.006219  2.909935
O    -2.559435  2.077511  1.791830
H    -2.541278  3.846183  3.787118
H    -1.084638  3.945031  2.800073
H    -0.981740  3.214813  4.432801
N    -1.581067  0.869306  3.538351
C    -1.410270  -0.493353  2.990625
C    -2.645111  -1.391634  3.267906
O    -3.767724  -1.180530  2.670828
H    -1.164849  1.020283  4.454894
H    -1.405867  -0.398198  1.889899
C    -0.008328  -1.069109  3.329975
C    0.516443  -1.035147  4.782927
C    1.903926  -1.709467  4.854525
N    2.478979  -1.629182  6.197717
C    3.802372  -1.688485  6.486353
N    4.698531  -1.972886  5.536818
N    4.205516  -1.427827  7.732588
H    0.698910  -0.510961  2.698760
H    0.011534  -2.098534  2.938652
H    -0.166591  -1.536938  5.488985
H    0.624144  0.000977  5.140361
H    2.588119  -1.197333  4.162550
H    1.820629  -2.760119  4.527838
H    1.852661  -1.754947  6.987733
H    5.692346  -1.859847  5.714287
H    4.450522  -2.489602  4.701494
H    3.604881  -0.965250  8.406148
H    5.144441  -1.658867  8.042968
N    -2.576104  -2.415821  4.088776
C    -3.684029  -3.346746  4.365322
H    -1.704889  -2.562009  4.591203
H    -3.259494  -4.287886  4.725605
H    -4.255248  -3.519199  3.447587
H    -4.347565  -2.924182  5.131211
Hg    -3.823898  0.411933  1.181764
