37
Energy: -574593.1471123  eV PBE+vdW (tier 2 basis)
C    0.936453  2.315701  0.306854
C    0.830749  1.060100  1.092527
O    1.772066  0.200847  1.147465
H    0.043421  2.938675  0.330902
H    1.172070  2.071504  -0.737655
H    1.779924  2.898167  0.717583
N    -0.258010  0.678744  1.818114
C    -1.676809  0.972270  1.634924
C    -2.145483  0.490901  0.200001
O    -1.609865  1.007418  -0.776041
H    -0.068948  -0.173810  2.352597
H    -2.171286  0.336129  2.382845
C    -2.089843  2.453520  1.872184
C    -3.556998  2.579246  2.326187
C    -3.939557  4.052420  2.592326
N    -5.311359  4.154660  3.088498
C    -6.162230  5.191362  2.888318
N    -7.443422  5.048047  3.243605
N    -5.738515  6.327789  2.331324
H    -1.930933  3.034525  0.954447
H    -1.424189  2.860488  2.646730
H    -3.704655  1.998299  3.250911
H    -4.238369  2.168398  1.566240
H    -3.867831  4.633286  1.662131
H    -3.242487  4.492460  3.325620
H    -5.608571  3.463557  3.773879
H    -7.849992  4.138089  3.435794
H    -8.068269  5.847270  3.304679
H    -6.400054  7.045170  2.048459
H    -4.762593  6.600098  2.350546
N    -3.107213  -0.444837  0.151891
C    -3.577265  -1.034162  -1.101934
H    -3.412625  -0.878277  1.020416
H    -2.991893  -1.931095  -1.356028
H    -3.467951  -0.301177  -1.908224
H    -4.625695  -1.328334  -0.977685
Hg    4.011148  0.622336  0.984454
