37
Energy: -574592.8784996  eV PBE+vdW (tier 2 basis)
C    -0.974910  -1.173208  1.012918
C    0.211180  -0.299032  0.800629
O    1.368304  -0.749821  0.485485
H    -1.220468  -1.694661  0.075517
H    -1.858520  -0.640234  1.373769
H    -0.721086  -1.943332  1.758359
N    0.148351  1.043714  0.873494
C    -1.047012  1.883924  0.726901
C    -0.637373  3.042514  -0.207632
O    0.514556  3.492974  -0.099217
H    1.031182  1.544392  0.707961
H    -1.842171  1.272175  0.290432
C    -1.562544  2.471579  2.091776
C    -1.012638  3.809972  2.595944
C    0.447243  3.797524  3.137415
N    0.889105  5.111444  3.574881
C    1.617900  5.999687  2.850583
N    1.888339  5.773137  1.565433
N    2.060195  7.103116  3.463110
H    -1.453913  1.686672  2.854005
H    -2.645829  2.610230  1.949965
H    -1.662948  4.122805  3.426432
H    -1.115252  4.589099  1.826717
H    1.159623  3.428725  2.391107
H    0.506209  3.129207  4.008456
H    0.587570  5.418286  4.497944
H    1.435494  5.035539  1.027794
H    2.528226  6.377452  1.059059
H    2.012486  7.216178  4.471815
H    2.523510  7.848538  2.950077
N    -1.535811  3.564758  -1.067024
C    -2.884865  3.127452  -1.389759
H    -1.149573  4.313146  -1.649692
H    -3.491012  4.012257  -1.625782
H    -3.347835  2.590434  -0.556603
H    -2.883505  2.484657  -2.286590
Hg    2.184495  -2.827006  0.895766
