37
Energy: -574592.9755215  eV PBE+vdW (tier 2 basis)
C    -0.352248  0.651737  0.962174
C    -0.060843  0.289202  2.380675
O    1.001235  -0.338078  2.748741
H    0.439089  1.319098  0.585752
H    -1.314562  1.160137  0.842405
H    -0.361548  -0.260917  0.347983
N    -0.940340  0.598619  3.333010
C    -0.821679  0.178807  4.739434
C    -2.239510  -0.261747  5.162688
O    -3.188134  0.404939  4.703818
H    -1.857084  0.957291  3.053412
H    -0.116596  -0.662081  4.756604
C    -0.299127  1.296553  5.694398
C    -1.300807  2.245540  6.376753
C    -1.948187  3.320054  5.458771
N    -2.876021  4.174079  6.183992
C    -4.229866  4.063141  6.203229
N    -4.937260  5.037511  6.783981
N    -4.833943  3.010428  5.651791
H    0.468678  1.866370  5.151484
H    0.230232  0.774110  6.505356
H    -0.749769  2.773013  7.168241
H    -2.090155  1.677836  6.891157
H    -2.480859  2.879370  4.609328
H    -1.161204  3.971379  5.049916
H    -2.472491  4.901573  6.772096
H    -4.519256  5.927752  7.040392
H    -5.941521  4.957600  6.922288
H    -4.326174  2.175577  5.367930
H    -5.844457  2.986154  5.553179
N    -2.422588  -1.274775  6.022229
C    -1.449188  -2.186061  6.609146
H    -3.407076  -1.478045  6.215350
H    -1.726500  -2.367945  7.656351
H    -0.438288  -1.771514  6.577899
H    -1.468948  -3.156591  6.087781
Hg    2.766375  -0.733366  1.375742
