37
Energy: -574593.4007589  eV PBE+vdW (tier 2 basis)
C    0.133803  -0.589602  -0.191950
C    -0.290679  -0.728108  1.236279
O    0.630610  -0.538868  2.100105
H    0.847790  -1.392723  -0.428478
H    0.674253  0.359303  -0.317826
H    -0.711987  -0.625533  -0.888614
N    -1.574440  -1.037504  1.503504
C    -2.273315  -1.003452  2.798856
C    -2.058017  -2.303356  3.623556
O    -1.270562  -2.263078  4.647467
H    -2.154997  -1.178939  0.678842
H    -1.784617  -0.227401  3.411042
C    -3.751648  -0.558855  2.644352
C    -3.886487  0.952996  2.362753
C    -5.299361  1.446190  1.990643
N    -6.184798  1.654485  3.140543
C    -7.195853  2.556020  3.184644
N    -7.788994  2.810510  4.356094
N    -7.587317  3.199548  2.082517
H    -4.270543  -0.836599  3.574483
H    -4.233389  -1.136094  1.841278
H    -3.247250  1.217330  1.507008
H    -3.511095  1.537744  3.216331
H    -5.763293  0.755942  1.265091
H    -5.185809  2.417947  1.491640
H    -6.153225  0.992959  3.909372
H    -8.665669  3.321303  4.402542
H    -7.352081  2.577096  5.240838
H    -8.216695  3.994794  2.141388
H    -7.407281  2.837726  1.153437
N    -2.653259  -3.455445  3.381902
C    -3.685884  -3.820300  2.408122
H    -2.379993  -4.198138  4.034240
H    -4.689069  -3.655467  2.823508
H    -3.573355  -4.889058  2.194334
H    -3.564202  -3.265920  1.473897
Hg    0.542705  -1.084453  4.234257
