37
Energy: -574593.5842906  eV PBE+vdW (tier 2 basis)
C    -0.405503  0.328711  0.661732
C    -0.797696  -0.063990  2.051944
O    -1.195438  -1.278641  2.171041
H    0.569336  -0.131591  0.433306
H    -0.343166  1.414081  0.523799
H    -1.123132  -0.096818  -0.052825
N    -0.686815  0.853074  3.028591
C    -1.217370  0.969409  4.423990
C    -0.381694  0.212428  5.489383
O    -0.517221  -1.044000  5.761637
H    -0.273606  1.720897  2.692439
H    -1.058292  2.033754  4.646737
C    -2.738869  0.718299  4.573460
C    -3.609751  1.805184  3.910266
C    -5.107379  1.607638  4.215618
N    -5.909843  2.669121  3.604455
C    -7.104489  3.118000  4.055919
N    -7.620445  4.231883  3.528599
N    -7.752110  2.476419  5.033699
H    -2.944635  0.687712  5.654770
H    -3.023705  -0.272008  4.182870
H    -3.454068  1.798728  2.819930
H    -3.303152  2.797194  4.276063
H    -5.268905  1.646665  5.302510
H    -5.440570  0.618243  3.858732
H    -5.639133  2.988935  2.678880
H    -7.057435  4.882998  2.992302
H    -8.592886  4.484342  3.676243
H    -8.560373  2.898289  5.481259
H    -7.600054  1.492346  5.219313
N    0.453280  0.913416  6.229215
C    1.300689  0.377005  7.303068
H    0.475180  1.924727  6.099081
H    2.234395  0.949112  7.320214
H    1.499867  -0.682894  7.123426
H    0.790217  0.492430  8.269560
Hg    -1.092232  -2.272097  4.086777
