37
Energy: -574593.5807887  eV PBE+vdW (tier 2 basis)
C    -1.103017  0.718439  0.651101
C    -0.452210  0.470170  1.973993
O    0.632682  1.117590  2.177204
H    -2.096912  0.263307  0.574390
H    -0.448107  0.331602  -0.144306
H    -1.182091  1.803387  0.488135
N    -1.031325  -0.391864  2.832846
C    -0.808372  -0.572817  4.285059
C    0.239506  -1.683988  4.572170
O    1.495894  -1.404184  4.663190
H    -1.849957  -0.866041  2.455257
H    -0.348290  0.355272  4.665015
C    -2.149399  -0.740347  5.039052
C    -3.015326  0.538812  5.026867
C    -4.124037  0.611818  6.091563
N    -5.280966  -0.246924  5.803484
C    -6.259712  -0.520163  6.706988
N    -7.270285  -1.316571  6.347498
N    -6.198665  -0.036592  7.949651
H    -1.896148  -0.993674  6.079631
H    -2.714278  -1.596693  4.633249
H    -3.448248  0.716126  4.029911
H    -2.368287  1.407112  5.224468
H    -4.440277  1.665642  6.163198
H    -3.715346  0.318647  7.069648
H    -5.580898  -0.286543  4.832547
H    -8.103870  -1.404702  6.920605
H    -7.246422  -1.863748  5.494716
H    -6.850408  -0.351800  8.662299
H    -5.642104  0.777011  8.183476
N    -0.133819  -2.930530  4.758153
C    0.777427  -4.057391  5.019809
H    -1.132394  -3.127034  4.796879
H    0.301578  -4.973681  4.657567
H    0.964087  -4.143839  6.098745
H    1.726374  -3.890460  4.501775
Hg    2.086626  0.428649  3.648167
