37
Energy: -574593.1958901  eV PBE+vdW (tier 2 basis)
C    0.428882  -2.141451  2.651387
C    -0.590903  -2.047915  3.728358
O    -0.422960  -2.762293  4.774981
H    1.371040  -1.678338  2.983470
H    0.087409  -1.699772  1.709818
H    0.663571  -3.205431  2.489909
N    -1.696762  -1.270269  3.625725
C    -1.716008  0.139682  3.224266
C    -1.399956  0.955758  4.516196
O    -1.613158  0.475647  5.681463
H    -2.408217  -1.485548  4.328231
H    -0.908369  0.302779  2.495924
C    -3.080053  0.548630  2.615251
C    -3.403060  -0.139252  1.275472
C    -4.772334  0.308489  0.730842
N    -5.072502  -0.339039  -0.547599
C    -5.970943  0.099543  -1.462831
N    -6.012663  -0.494901  -2.660735
N    -6.786328  1.118237  -1.186287
H    -3.073968  1.640189  2.477344
H    -3.869707  0.344523  3.356724
H    -3.402981  -1.232470  1.409919
H    -2.626206  0.099420  0.533172
H    -4.776525  1.397117  0.569014
H    -5.561753  0.074432  1.467211
H    -4.691341  -1.268447  -0.705223
H    -5.261697  -1.092226  -2.991459
H    -6.775072  -0.323063  -3.310396
H    -7.357278  1.540244  -1.912956
H    -6.994295  1.396782  -0.234692
N    -0.967175  2.202412  4.386888
C    -0.619242  3.106747  5.483713
H    -0.936212  2.600227  3.447158
H    -0.400266  2.529584  6.385378
H    -1.461948  3.784689  5.688543
H    0.246950  3.706360  5.180643
Hg    -0.949447  -1.557041  6.611817
