37
Energy: -574593.5755289  eV PBE+vdW (tier 2 basis)
C    -1.212468  1.732258  0.844484
C    -0.923099  0.731783  1.917463
O    -0.971858  -0.493702  1.530632
H    -2.098327  1.406606  0.279876
H    -0.373825  1.736401  0.130511
H    -1.379604  2.742666  1.234685
N    -0.630384  1.177772  3.151655
C    -0.638952  0.565695  4.523704
C    0.684710  -0.156771  4.890618
O    0.955804  -1.376755  4.560758
H    -0.583921  2.194879  3.186099
H    -0.673016  1.454143  5.169546
C    -1.921590  -0.242936  4.837731
C    -2.172644  -0.424566  6.348207
C    -3.568155  -1.016438  6.627910
N    -3.815999  -1.110496  8.068013
C    -4.722841  -1.924848  8.657519
N    -4.722640  -2.043941  9.987753
N    -5.588926  -2.629046  7.921016
H    -1.915070  -1.228381  4.341489
H    -2.755880  0.312766  4.384475
H    -2.099966  0.559383  6.840605
H    -1.406393  -1.072105  6.800208
H    -3.639934  -2.028797  6.204068
H    -4.335802  -0.389176  6.142867
H    -3.435955  -0.374683  8.656773
H    -3.939998  -1.736843  10.554836
H    -5.504186  -2.465742  10.479975
H    -6.162479  -3.349801  8.348957
H    -5.864470  -2.331884  6.992630
N    1.553597  0.489840  5.640264
C    2.858527  -0.024624  6.077849
H    1.291485  1.412719  5.986327
H    3.199737  -0.802027  5.389151
H    2.771999  -0.446108  7.088798
H    3.566462  0.810994  6.098457
Hg    0.076063  -1.967233  2.681088
