37
Energy: -574593.3608683  eV PBE+vdW (tier 2 basis)
C    1.844045  0.665862  0.487190
C    0.863909  -0.395854  0.876141
O    0.990487  -1.499905  0.234780
H    1.952320  0.675436  -0.606446
H    2.831738  0.394890  0.893714
H    1.557843  1.663756  0.838448
N    -0.027875  -0.118864  1.845299
C    -1.317644  -0.737509  2.292552
C    -1.129068  -1.918837  3.280495
O    -0.892391  -3.135065  2.917117
H    0.133590  0.797004  2.259732
H    -1.771028  0.066931  2.889005
C    -2.309614  -1.065079  1.149422
C    -2.748737  0.161393  0.308507
C    -4.078850  0.832879  0.690526
N    -5.238199  0.073677  0.204185
C    -6.530512  0.382478  0.484202
N    -7.502792  -0.404313  0.017085
N    -6.827992  1.434603  1.252662
H    -3.180820  -1.556274  1.608925
H    -1.879493  -1.817477  0.470226
H    -2.793338  -0.130760  -0.750762
H    -1.974128  0.940465  0.340741
H    -4.073554  1.845282  0.253045
H    -4.170854  0.944573  1.782452
H    -5.099404  -0.464205  -0.647534
H    -8.475955  -0.115040  0.042102
H    -7.310388  -1.312747  -0.390068
H    -7.782479  1.596255  1.560722
H    -6.188825  2.213131  1.361776
N    -1.297486  -1.683370  4.566180
C    -1.173788  -2.679767  5.639208
H    -1.591403  -0.748566  4.847450
H    -2.159644  -3.111324  5.861494
H    -0.792538  -2.174812  6.532919
H    -0.493179  -3.476684  5.327138
Hg    0.235600  -3.335935  1.084667
