37
Energy: -574593.4774809  eV PBE+vdW (tier 2 basis)
C    0.183614  0.243560  -0.095461
C    -0.254327  -0.223621  1.257270
O    0.607764  -0.080686  2.188549
H    1.002661  -0.403649  -0.443669
H    0.597900  1.258026  -0.011957
H    -0.631656  0.237711  -0.828350
N    -1.485983  -0.751039  1.392509
C    -2.213675  -1.077487  2.630140
C    -1.819046  -2.468528  3.204465
O    -1.073967  -2.514846  4.259594
H    -2.019650  -0.807979  0.527158
H    -1.871425  -0.372557  3.405961
C    -3.739184  -0.856420  2.481792
C    -4.166731  0.624637  2.538109
C    -5.693068  0.773113  2.360232
N    -6.124174  2.174136  2.335687
C    -7.160237  2.722352  3.016800
N    -7.751040  3.814409  2.525985
N    -7.586562  2.197526  4.170082
H    -4.229297  -1.411441  3.296402
H    -4.092574  -1.317050  1.547157
H    -3.655554  1.197306  1.748113
H    -3.864703  1.070704  3.497550
H    -6.230743  0.252828  3.162283
H    -6.011259  0.296773  1.418522
H    -5.783575  2.733134  1.557644
H    -7.661984  4.083318  1.551674
H    -8.361829  4.388090  3.100216
H    -8.455443  2.510384  4.592054
H    -7.002846  1.593030  4.733644
N    -2.225631  -3.626229  2.720635
C    -3.171042  -3.944228  1.646378
H    -1.860301  -4.432471  3.238491
H    -2.904370  -4.933015  1.257139
H    -3.101987  -3.220119  0.830246
H    -4.198221  -3.990554  2.032299
Hg    0.544148  -1.030119  4.177656
