37
Energy: -574593.4504219  eV PBE+vdW (tier 2 basis)
C    -1.482450  -0.314158  -0.784475
C    -1.546617  -0.501805  0.698851
O    -1.341298  -1.707301  1.090218
H    -1.864568  0.660712  -1.108852
H    -2.058313  -1.113163  -1.272952
H    -0.438044  -0.436819  -1.110918
N    -1.793922  0.571784  1.468881
C    -2.229548  0.763553  2.889334
C    -1.062522  0.673574  3.902425
O    -0.716717  -0.438787  4.471695
H    -1.871514  1.425102  0.918394
H    -2.548511  1.812549  2.897694
C    -3.480562  -0.062699  3.274632
C    -4.192604  0.457086  4.539582
C    -5.563689  -0.218467  4.737759
N    -6.251757  0.328505  5.909011
C    -7.257322  -0.276701  6.583869
N    -7.675484  0.250813  7.737655
N    -7.806962  -1.405105  6.122869
H    -3.245865  -1.133502  3.392513
H    -4.160481  -0.001029  2.411808
H    -4.344208  1.544955  4.442356
H    -3.574185  0.292522  5.434601
H    -5.432624  -1.299253  4.894474
H    -6.175156  -0.078131  3.829745
H    -6.112069  1.313446  6.115828
H    -8.549452  -0.039756  8.165335
H    -7.130057  0.941645  8.241375
H    -8.451054  -1.938340  6.699426
H    -7.782266  -1.646926  5.139477
N    -0.410268  1.750123  4.296608
C    -0.603558  3.175291  4.013359
H    0.343742  1.544748  4.962561
H    -1.351993  3.342135  3.235835
H    0.357547  3.589539  3.680321
H    -0.902979  3.692564  4.934439
Hg    -0.742671  -2.129701  3.116269
