37
Energy: -574592.9499476  eV PBE+vdW (tier 2 basis)
C    0.017172  2.012374  1.646599
C    -0.070288  0.560649  1.955631
O    1.010893  -0.118472  1.877473
H    -0.724034  2.605008  2.188814
H    -0.089637  2.166645  0.560769
H    1.027684  2.357769  1.906840
N    -1.196494  -0.068248  2.385046
C    -2.537087  -0.030872  1.780745
C    -2.385780  -0.792010  0.414218
O    -1.255419  -0.801659  -0.162353
H    -0.981628  -0.983351  2.788384
H    -3.158717  -0.652042  2.443404
C    -3.225026  1.344548  1.633675
C    -3.585339  1.991135  2.986210
C    -4.329150  3.327112  2.807711
N    -4.710965  3.893556  4.102318
C    -5.697767  4.799202  4.312254
N    -6.057189  5.078420  5.570342
N    -6.314339  5.388727  3.286954
H    -4.148811  1.173711  1.059691
H    -2.617365  2.016111  1.012491
H    -2.672194  2.152832  3.581238
H    -4.221165  1.304500  3.565726
H    -5.247115  3.173332  2.220253
H    -3.694461  4.042467  2.254491
H    -4.112302  3.692194  4.899460
H    -6.657520  5.869902  5.785892
H    -5.793059  4.484983  6.350521
H    -7.145286  5.954497  3.434562
H    -5.897773  5.436834  2.364637
N    -3.453604  -1.386819  -0.104196
C    -3.479014  -2.194605  -1.321488
H    -4.346790  -1.273617  0.377486
H    -3.863271  -3.196981  -1.085574
H    -2.477413  -2.250667  -1.751033
H    -4.165072  -1.729393  -2.045218
Hg    0.810845  -1.837641  0.422523
