37
Energy: -574593.0374385  eV PBE+vdW (tier 2 basis)
C    -0.619072  -0.606229  3.033128
C    -0.433315  0.387919  1.944904
O    0.541534  1.209513  2.044580
H    -0.506198  -0.086808  3.998109
H    0.189443  -1.353293  3.003962
H    -1.600801  -1.089245  2.996949
N    -1.271096  0.480101  0.882857
C    -1.708569  -0.637668  0.041106
C    -0.613769  -0.789013  -1.060688
O    0.180493  0.168875  -1.351787
H    -1.149330  1.344039  0.349695
H    -1.708903  -1.548568  0.657743
C    -3.124648  -0.414877  -0.550614
C    -4.222212  -0.375261  0.532379
C    -5.672589  -0.541433  0.038361
N    -6.269432  0.675503  -0.519519
C    -7.600816  0.933055  -0.564412
N    -8.011012  2.156968  -0.919715
N    -8.489710  -0.007893  -0.247080
H    -3.112080  0.501411  -1.162708
H    -3.328883  -1.241160  -1.248388
H    -4.143618  0.536744  1.141671
H    -4.060523  -1.216794  1.223349
H    -6.285777  -0.836118  0.901614
H    -5.727138  -1.362475  -0.698485
H    -5.675651  1.319935  -1.032308
H    -8.987454  2.344799  -1.129859
H    -7.389420  2.958504  -0.901940
H    -9.471337  0.222147  -0.121028
H    -8.256539  -0.994088  -0.244877
N    -0.557270  -1.923282  -1.745553
C    0.413763  -2.244867  -2.791881
H    -1.287624  -2.617253  -1.580088
H    1.293380  -1.604357  -2.691802
H    -0.037895  -2.080568  -3.782397
H    0.685346  -3.303346  -2.702627
Hg    1.538352  1.474726  0.036699
