37
Energy: -574593.3873105  eV PBE+vdW (tier 2 basis)
C    0.033039  -0.649875  -0.569181
C    -0.312318  -0.731330  0.884334
O    0.641830  -0.446469  1.686274
H    -0.840284  -0.784522  -1.218215
H    0.790557  -1.414584  -0.796985
H    0.497811  0.324813  -0.775832
N    -1.561582  -1.090659  1.235636
C    -2.199746  -1.019443  2.561814
C    -1.873693  -2.255948  3.446204
O    -1.044690  -2.113297  4.429426
H    -2.174826  -1.303967  0.450860
H    -1.729089  -0.183061  3.105256
C    -3.706529  -0.668149  2.457753
C    -3.955825  0.808666  2.088528
C    -5.427324  1.165755  1.779889
N    -6.320349  1.277308  2.939723
C    -6.935421  2.411669  3.357605
N    -8.067532  2.318191  4.060363
N    -6.417051  3.613703  3.091016
H    -4.162671  -0.901209  3.432022
H    -4.191126  -1.327000  1.721539
H    -3.386310  1.062535  1.180906
H    -3.576986  1.462310  2.889130
H    -5.862854  0.425933  1.091393
H    -5.453737  2.120003  1.239303
H    -6.735335  0.418202  3.286826
H    -8.445244  3.116800  4.561585
H    -8.644259  1.483735  4.042259
H    -6.957440  4.459868  3.242224
H    -5.456658  3.736185  2.797712
N    -2.412053  -3.450629  3.300256
C    -3.459550  -3.931786  2.395200
H    -2.069298  -4.136419  3.981583
H    -3.409041  -3.428308  1.426278
H    -4.452742  -3.800069  2.844734
H    -3.291941  -5.003352  2.239049
Hg    0.671265  -0.880597  3.839531
