37
Energy: -574593.5811156  eV PBE+vdW (tier 2 basis)
C    0.437356  -0.204991  -0.095873
C    0.199299  0.109891  1.346220
O    0.989075  0.986174  1.846615
H    -0.354688  -0.826077  -0.529868
H    1.410763  -0.710156  -0.191782
H    0.516833  0.735802  -0.660301
N    -0.790753  -0.529278  1.997493
C    -1.456812  -0.192290  3.278384
C    -0.774613  -0.910956  4.475674
O    0.151353  -0.327194  5.158873
H    -1.267361  -1.232614  1.434118
H    -1.306142  0.885041  3.460283
C    -2.982139  -0.421257  3.139635
C    -3.813085  0.108279  4.324427
C    -5.317934  -0.240863  4.268510
N    -6.119275  0.515134  3.298260
C    -7.136567  1.359250  3.604673
N    -8.105343  1.565620  2.709096
N    -7.171623  1.995482  4.779056
H    -3.185908  -1.494775  2.975586
H    -3.284275  0.086221  2.210706
H    -3.690903  1.199027  4.405438
H    -3.438881  -0.317042  5.268620
H    -5.752810  -0.083318  5.263109
H    -5.452653  -1.311964  4.054019
H    -6.130807  0.170337  2.343304
H    -8.286269  0.914107  1.952784
H    -8.758223  2.337608  2.806284
H    -8.009815  2.480432  5.084339
H    -6.354166  2.089038  5.367879
N    -1.141563  -2.124465  4.825073
C    -0.535986  -2.920395  5.904316
H    -1.944337  -2.532390  4.348113
H    -0.608359  -3.978323  5.632423
H    -1.077203  -2.749401  6.844863
H    0.510093  -2.628529  6.033663
Hg    1.274723  1.133836  3.993989
