37
Energy: -574593.1715186  eV PBE+vdW (tier 2 basis)
C    0.676429  0.441860  0.552696
C    0.049397  0.291542  1.890344
O    0.683406  0.503917  2.975123
H    0.026145  0.185532  -0.282446
H    1.580821  -0.178938  0.503251
H    0.982781  1.497465  0.444722
N    -1.241755  -0.090275  2.113560
C    -2.125246  -0.952724  1.337530
C    -1.451726  -2.379072  1.144952
O    -0.380590  -2.422731  0.548805
H    -1.480027  -0.027543  3.107279
H    -3.002231  -1.081961  1.987958
C    -2.586491  -0.383441  -0.033896
C    -3.925413  -0.992061  -0.491635
C    -4.360230  -0.420773  -1.858628
N    -5.653092  -0.962075  -2.269950
C    -6.573601  -0.335998  -3.045014
N    -7.794590  -0.869949  -3.151150
N    -6.274283  0.799648  -3.678602
H    -1.815577  -0.566792  -0.793521
H    -2.690501  0.704832  0.082727
H    -4.712729  -0.778539  0.247241
H    -3.833733  -2.087347  -0.570297
H    -3.593834  -0.656051  -2.617645
H    -4.452340  0.673497  -1.799452
H    -5.832603  -1.943932  -2.072821
H    -8.445996  -0.562262  -3.868119
H    -8.134637  -1.569414  -2.498908
H    -6.999357  1.345426  -4.135485
H    -5.317604  1.053821  -3.895809
N    -2.110082  -3.436744  1.642174
C    -1.560482  -4.793929  1.614730
H    -2.939446  -3.275102  2.208930
H    -2.393340  -5.505583  1.588930
H    -0.959379  -4.991476  2.514841
H    -0.922588  -4.905995  0.731511
Hg    2.418909  1.968464  3.277769
