37
Energy: -574592.8783911  eV PBE+vdW (tier 2 basis)
C    0.184887  -2.951186  -0.463731
C    0.252641  -1.554071  0.037762
O    0.605331  -0.561429  -0.678049
H    -0.059428  -3.684941  0.308457
H    1.159674  -3.218777  -0.899671
H    -0.556116  -3.010470  -1.274396
N    -0.101768  -1.199323  1.298398
C    -1.011417  -1.869786  2.249413
C    -0.270348  -3.071615  2.942305
O    -0.761088  -4.199856  2.930424
H    0.074837  -0.207042  1.484187
H    -1.175525  -1.109781  3.028451
C    -2.390703  -2.267574  1.667654
C    -3.566790  -2.160869  2.663576
C    -3.866192  -3.352286  3.595180
N    -4.565502  -4.453890  2.932134
C    -4.291386  -5.781755  3.036352
N    -5.274299  -6.657240  2.810629
N    -3.058224  -6.190249  3.337950
H    -2.331232  -3.270901  1.223526
H    -2.602892  -1.564318  0.850587
H    -4.475370  -1.939405  2.084135
H    -3.433146  -1.279290  3.308611
H    -4.536083  -2.984394  4.392872
H    -2.975783  -3.744761  4.095020
H    -5.473230  -4.223972  2.528210
H    -5.086987  -7.652005  2.715762
H    -6.253133  -6.385641  2.840208
H    -2.256742  -5.568191  3.246037
H    -2.876031  -7.160826  3.574373
N    0.898730  -2.774966  3.552340
C    1.665012  -3.734346  4.335018
H    1.172269  -1.795951  3.622835
H    2.719961  -3.435045  4.322301
H    1.532133  -4.737621  3.916331
H    1.330499  -3.743773  5.386073
Hg    2.097909  -0.470616  -2.436703
