37
Energy: -574592.7439245  eV PBE+vdW (tier 2 basis)
C    0.998414  0.911159  0.166965
C    0.063087  -0.152671  0.618214
O    -0.035330  -1.200232  -0.108138
H    1.825610  0.430804  -0.374263
H    1.396782  1.496089  0.999493
H    0.492397  1.568790  -0.556839
N    -0.626684  -0.114681  1.790057
C    -1.476529  0.975794  2.283769
C    -2.675924  1.032697  1.261353
O    -2.461069  0.681162  0.063743
H    -0.997163  -1.036605  2.034829
H    -1.875661  0.602556  3.238977
C    -0.832332  2.355140  2.559949
C    0.212587  2.291907  3.696774
C    0.515176  3.608941  4.431013
N    1.368954  4.540527  3.685806
C    1.597004  5.828934  4.057602
N    2.378738  6.593105  3.286377
N    1.031757  6.334046  5.153402
H    -1.656951  3.018088  2.864777
H    -0.427289  2.794770  1.639455
H    1.150368  1.833354  3.345402
H    -0.154805  1.611164  4.479313
H    1.006477  3.344032  5.384328
H    -0.423049  4.129017  4.678101
H    2.076782  4.132433  3.080053
H    2.702592  7.504493  3.598894
H    2.651523  6.312836  2.350332
H    1.096371  7.326075  5.364483
H    0.668154  5.744026  5.892872
N    -3.861314  1.440895  1.695880
C    -5.095482  1.459233  0.912469
H    -3.937724  1.750066  2.665765
H    -4.866137  1.298612  -0.142725
H    -5.583032  2.434389  1.047568
H    -5.783146  0.683860  1.282686
Hg    -2.140137  -1.502080  -0.884293
