37
Energy: -574593.3964368  eV PBE+vdW (tier 2 basis)
C    1.331366  -0.615916  0.602284
C    1.096301  -0.577447  2.077568
O    2.121422  -0.893829  2.789785
H    0.404700  -0.578744  0.018771
H    1.887503  -1.530881  0.351390
H    1.985049  0.227237  0.327649
N    -0.115687  -0.207987  2.529052
C    -0.873635  -0.392972  3.815297
C    -0.610355  0.706838  4.879439
O    0.402935  0.704917  5.687179
H    -0.730086  0.074926  1.766971
H    -1.909429  -0.227989  3.487734
C    -0.839440  -1.842448  4.368083
C    -1.977191  -2.099594  5.381658
C    -2.441861  -3.559584  5.532072
N    -1.530594  -4.399167  6.322119
C    -1.629770  -5.754124  6.387060
N    -0.765691  -6.433083  7.146423
N    -2.547461  -6.409188  5.672266
H    0.139312  -2.099315  4.805055
H    -0.957349  -2.500842  3.494837
H    -2.875269  -1.554178  5.051768
H    -1.727379  -1.681542  6.369486
H    -2.548811  -4.013452  4.536037
H    -3.440162  -3.538145  5.999447
H    -1.134979  -3.967044  7.153517
H    -0.908526  -7.415000  7.361713
H    0.059475  -5.997712  7.541573
H    -2.532429  -7.423201  5.612821
H    -3.384029  -5.955511  5.325133
N    -1.512640  1.653712  5.024792
C    -1.443284  2.768521  5.980128
H    -2.359356  1.597196  4.458610
H    -2.031689  2.525035  6.875631
H    -1.872557  3.655690  5.501784
H    -0.403550  2.948490  6.265156
Hg    2.133508  -0.199735  4.805521
