37
Energy: -574593.5270607  eV PBE+vdW (tier 2 basis)
C    0.154172  0.774987  0.251714
C    -0.249770  0.078245  1.513318
O    0.593804  0.146395  2.469092
H    0.475249  1.798653  0.489872
H    -0.652289  0.805497  -0.490187
H    1.030059  0.260027  -0.170457
N    -1.436774  -0.556701  1.549660
C    -2.134924  -1.122520  2.715287
C    -1.627343  -2.546676  3.081846
O    -0.886936  -2.688947  4.130910
H    -1.963113  -0.522462  0.678739
H    -1.850692  -0.516467  3.591214
C    -3.673712  -1.006166  2.587377
C    -4.216207  0.411860  2.859002
C    -5.755866  0.443092  2.805641
N    -6.265887  1.779509  3.118844
C    -7.487897  2.254066  2.778943
N    -7.758213  3.548111  2.975634
N    -8.404034  1.452597  2.228242
H    -4.113317  -1.709187  3.311617
H    -3.993945  -1.352492  1.593653
H    -3.814264  1.132191  2.130920
H    -3.883741  0.738571  3.857692
H    -6.164559  -0.299452  3.512858
H    -6.102323  0.175469  1.796484
H    -5.754070  2.326943  3.805259
H    -8.708749  3.902672  2.927716
H    -7.026976  4.229210  3.149303
H    -9.258233  1.836707  1.835146
H    -8.382641  0.447949  2.355987
N    -1.931364  -3.648089  2.422534
C    -2.841394  -3.877648  1.297119
H    -1.501949  -4.490100  2.820484
H    -2.482725  -4.762781  0.760124
H    -2.840653  -3.029556  0.607312
H    -3.859724  -4.080143  1.655216
Hg    0.612396  -1.087944  4.302301
