37
Energy: -574593.3390031  eV PBE+vdW (tier 2 basis)
C    -2.101301  1.420931  1.380677
C    -1.296657  0.578177  2.319961
O    -0.891346  -0.533502  1.824320
H    -1.420876  1.849698  0.627565
H    -2.649225  2.224056  1.886476
H    -2.805793  0.780500  0.831909
N    -1.060579  1.049974  3.557689
C    -0.585691  0.438838  4.840389
C    0.959201  0.328772  4.938453
O    1.644649  -0.653729  4.456939
H    -1.420260  1.994575  3.679397
H    -0.865288  1.200054  5.582551
C    -1.309571  -0.872916  5.235769
C    -2.828263  -0.723919  5.490674
C    -3.250664  -0.331088  6.925946
N    -3.278596  -1.436407  7.889272
C    -4.314939  -2.286727  8.095985
N    -4.182103  -3.266163  8.992884
N    -5.443965  -2.177822  7.387747
H    -0.801624  -1.272161  6.127104
H    -1.167613  -1.639780  4.457762
H    -3.315540  -1.673129  5.230830
H    -3.254536  0.017262  4.798267
H    -4.234811  0.158964  6.890074
H    -2.582873  0.428700  7.353864
H    -2.575583  -1.426077  8.620465
H    -3.297727  -3.466630  9.446515
H    -4.976054  -3.825920  9.288623
H    -6.198409  -2.845768  7.514635
H    -5.690664  -1.320482  6.908967
N    1.604277  1.253046  5.621679
C    3.058579  1.303580  5.829252
H    1.054876  1.969501  6.095444
H    3.313427  0.828839  6.787003
H    3.363913  2.355008  5.857519
H    3.566622  0.775739  5.017670
Hg    0.814006  -1.550992  2.674726
