37
Energy: -574593.5265283  eV PBE+vdW (tier 2 basis)
C    -1.849504  -1.008127  -0.545271
C    -1.164372  -0.864108  0.777704
O    0.063120  -0.518123  0.722399
H    -1.413896  -1.869282  -1.074414
H    -1.640838  -0.122262  -1.160877
H    -2.933107  -1.142385  -0.447256
N    -1.867536  -1.108913  1.900021
C    -1.483855  -0.843006  3.295862
C    -0.586701  -1.965601  3.891612
O    0.671394  -1.727831  4.062559
H    -2.830138  -1.401125  1.742466
H    -0.821610  0.038397  3.290025
C    -2.701966  -0.466271  4.174923
C    -3.198373  0.979394  3.968367
C    -4.382402  1.302886  4.900149
N    -4.834697  2.684175  4.722183
C    -5.504539  3.417186  5.642920
N    -5.957119  2.855391  6.767282
N    -5.685924  4.723357  5.424683
H    -2.397543  -0.599982  5.224270
H    -3.522071  -1.178881  4.002442
H    -3.505839  1.128097  2.920734
H    -2.380919  1.687641  4.171263
H    -4.070510  1.182489  5.948048
H    -5.211951  0.599895  4.710696
H    -4.802778  3.072858  3.783847
H    -6.315653  3.429005  7.524981
H    -6.136445  1.860793  6.834708
H    -6.346451  5.264040  5.975067
H    -5.148907  5.231599  4.730377
N    -1.020795  -3.148109  4.283706
C    -2.376710  -3.697624  4.370131
H    -0.277012  -3.750989  4.651115
H    -2.295233  -4.787067  4.286740
H    -3.005119  -3.333406  3.553134
H    -2.832435  -3.458694  5.340393
Hg    1.540434  -0.634416  2.362010
