37
Energy: -574593.4567576  eV PBE+vdW (tier 2 basis)
C    -1.427605  -0.390021  -0.406371
C    -1.466594  -0.525673  1.083187
O    -1.173770  -1.698338  1.516795
H    -0.381371  -0.464483  -0.741315
H    -1.869727  0.547854  -0.761881
H    -1.960839  -1.239048  -0.857767
N    -1.783264  0.555954  1.816023
C    -2.225310  0.768367  3.231418
C    -1.049474  0.803637  4.237514
O    -0.616917  -0.258585  4.842866
H    -1.922109  1.381301  1.235861
H    -2.622029  1.790143  3.203131
C    -3.408638  -0.134235  3.657222
C    -4.150310  0.379006  4.907644
C    -5.435549  -0.428061  5.178381
N    -6.131246  0.071621  6.365510
C    -7.461858  -0.020227  6.597892
N    -7.989759  0.655142  7.622650
N    -8.247853  -0.751805  5.801615
H    -3.093685  -1.179203  3.813813
H    -4.095257  -0.157251  2.797990
H    -4.421954  1.436995  4.770655
H    -3.491114  0.322887  5.788753
H    -5.192344  -1.497971  5.295857
H    -6.116810  -0.329140  4.321162
H    -5.562393  0.346478  7.161236
H    -8.924736  0.452274  7.963136
H    -7.492498  1.411308  8.080378
H    -9.258952  -0.690524  5.875803
H    -7.884632  -1.521614  5.252606
N    -0.477945  1.939288  4.588335
C    -0.778611  3.335365  4.257494
H    0.295540  1.814430  5.252017
H    0.135113  3.797078  3.859161
H    -1.066583  3.869981  5.172153
H    -1.575153  3.420233  3.515174
Hg    -0.536765  -1.996163  3.551898
