37
Energy: -574593.5151849  eV PBE+vdW (tier 2 basis)
C    -1.149217  2.472656  1.414353
C    -1.718458  1.106628  1.623273
O    -2.522479  0.704789  0.712918
H    -0.666868  2.506909  0.425320
H    -0.417305  2.748024  2.182170
H    -1.968595  3.205281  1.387886
N    -1.357641  0.409636  2.720160
C    -1.427106  -1.045029  2.973726
C    -2.677120  -1.431625  3.809341
O    -3.850030  -1.465457  3.273915
H    -0.769265  0.933996  3.364068
H    -1.610353  -1.531517  1.999257
C    -0.052949  -1.615692  3.421668
C    0.724788  -0.977391  4.593431
C    2.097236  -1.669862  4.745209
N    2.883801  -1.079218  5.828070
C    3.879167  -1.704712  6.504330
N    4.318368  -2.906485  6.118678
N    4.396179  -1.115568  7.585331
H    0.584175  -1.569849  2.525518
H    -0.208770  -2.689205  3.610487
H    0.193321  -1.044174  5.555753
H    0.897948  0.096156  4.409535
H    2.641484  -1.607645  3.787271
H    1.946436  -2.734222  4.976587
H    2.848624  -0.069578  5.937746
H    4.945763  -3.441742  6.712005
H    4.225503  -3.229158  5.162584
H    3.928729  -0.347251  8.054152
H    5.269316  -1.435079  7.993949
N    -2.577961  -1.771163  5.074421
C    -3.712603  -2.185239  5.919743
H    -1.657695  -1.733496  5.504164
H    -4.300648  -1.307029  6.215612
H    -3.314308  -2.678173  6.810277
H    -4.352145  -2.879193  5.363899
Hg    -3.992321  -0.826328  1.197194
