37
Energy: -574592.9510425  eV PBE+vdW (tier 2 basis)
C    -0.917960  -0.886376  -0.239100
C    -0.482370  -0.274893  1.044456
O    0.668572  -0.472619  1.551637
H    -0.623263  -1.943269  -0.258942
H    -0.390875  -0.379397  -1.064458
H    -1.992266  -0.814278  -0.428994
N    -1.277237  0.514027  1.810992
C    -2.722495  0.691437  1.811346
C    -2.911688  2.281072  1.811298
O    -2.881387  2.844878  2.896839
H    -0.790280  0.895789  2.630084
H    -3.143131  0.271729  0.891043
C    -3.401345  0.096579  3.066061
C    -4.932245  0.294593  3.074137
C    -5.610005  0.228637  4.453730
N    -5.806506  -1.129025  4.967892
C    -6.709301  -1.471568  5.921004
N    -6.941388  -2.769583  6.154725
N    -7.361279  -0.533974  6.606732
H    -2.956761  0.577961  3.949331
H    -3.135902  -0.970858  3.098194
H    -5.425171  -0.404662  2.382547
H    -5.170725  1.303717  2.708139
H    -6.603568  0.693601  4.371001
H    -5.026932  0.826670  5.177585
H    -5.180555  -1.865713  4.656098
H    -7.487886  -3.071488  6.956850
H    -6.679066  -3.490204  5.490181
H    -8.142785  -0.774292  7.210036
H    -7.043215  0.427589  6.645351
N    -3.078379  2.922901  0.635026
C    -3.325273  2.385541  -0.697990
H    -3.266892  3.921718  0.757603
H    -3.100955  3.179579  -1.420668
H    -4.379026  2.099817  -0.836765
H    -2.673654  1.534021  -0.914579
Hg    2.691295  -0.771788  0.474877
