37
Energy: -574593.0968197  eV PBE+vdW (tier 2 basis)
C    -0.481700  1.013166  -0.635305
C    -0.339125  0.677838  0.804441
O    0.802401  0.868232  1.352997
H    0.385043  0.592583  -1.171012
H    -0.418367  2.102491  -0.780456
H    -1.400278  0.606637  -1.070498
N    -1.341013  0.143582  1.542015
C    -2.723684  0.624958  1.623945
C    -2.694447  1.804390  2.639732
O    -1.831875  1.858608  3.581916
H    -1.020371  -0.287937  2.411902
H    -3.020383  1.004909  0.635669
C    -3.641106  -0.554220  2.048247
C    -5.159617  -0.334370  1.918584
C    -5.918223  -1.645464  2.206895
N    -7.365505  -1.476308  2.065838
C    -8.256310  -2.476275  1.853479
N    -9.525028  -2.159650  1.570875
N    -7.875246  -3.753575  1.902895
H    -3.388455  -0.843162  3.081166
H    -3.342830  -1.395233  1.404199
H    -5.411521  0.004212  0.901556
H    -5.501207  0.438776  2.625926
H    -5.674829  -1.998803  3.224501
H    -5.597755  -2.421386  1.495668
H    -7.761597  -0.572112  2.308620
H    -10.260127  -2.861310  1.582204
H    -9.794120  -1.225805  1.278949
H    -8.499616  -4.495273  1.599175
H    -7.036104  -4.046011  2.389502
N    -3.627805  2.742217  2.549156
C    -3.740845  3.920773  3.411367
H    -4.356838  2.617233  1.847141
H    -4.475893  3.736157  4.208310
H    -4.081293  4.766837  2.804027
H    -2.772253  4.136561  3.869118
Hg    0.491844  1.662947  3.433358
