37
Energy: -574592.9499591  eV PBE+vdW (tier 2 basis)
C    -1.348583  0.377582  0.301098
C    -0.285035  -0.183074  1.176208
O    0.901693  -0.223239  0.701068
H    -2.153192  0.853953  0.867020
H    -1.754458  -0.418625  -0.343490
H    -0.886286  1.112297  -0.372973
N    -0.477652  -0.580965  2.462113
C    -1.504913  -1.499324  2.976162
C    -1.132363  -2.901192  2.370614
O    -0.508914  -2.945535  1.266427
H    0.411320  -0.680573  2.958291
H    -1.322343  -1.542850  4.060663
C    -2.986861  -1.121964  2.756691
C    -3.413235  0.141296  3.531189
C    -4.908027  0.456883  3.343456
N    -5.298598  1.632456  4.123843
C    -6.562274  1.954404  4.494630
N    -6.742403  2.954911  5.364488
N    -7.607567  1.276990  4.017914
H    -3.583788  -1.977928  3.107530
H    -3.207948  -1.033206  1.684610
H    -2.809743  1.003454  3.204883
H    -3.210224  0.002619  4.604072
H    -5.520167  -0.394062  3.679876
H    -5.127367  0.623724  2.273426
H    -4.586014  2.334379  4.307285
H    -5.981667  3.323750  5.926518
H    -7.664784  3.345030  5.538601
H    -8.538887  1.420075  4.398161
H    -7.550365  0.727392  3.168731
N    -1.498704  -3.995942  3.026162
C    -1.176018  -5.369842  2.646726
H    -2.060970  -3.884003  3.871218
H    -0.600518  -5.373186  1.719558
H    -2.112480  -5.929109  2.502926
H    -0.614918  -5.851677  3.460133
Hg    1.721525  -2.330858  0.686808
