37
Energy: -574593.1263470  eV PBE+vdW (tier 2 basis)
C    2.064960  1.337057  2.563607
C    1.094594  2.098021  3.393194
O    1.519812  3.122056  4.028008
H    2.346036  1.925144  1.675998
H    1.688664  0.350710  2.274191
H    2.993284  1.216346  3.143853
N    -0.203626  1.728514  3.529318
C    -1.115498  1.396682  2.427893
C    -1.622797  2.760541  1.882549
O    -1.667186  3.792783  2.644962
H    -0.680158  2.210103  4.295227
H    -0.541921  0.877727  1.647658
C    -2.296313  0.519124  2.911282
C    -1.884076  -0.890332  3.375634
C    -3.099116  -1.695484  3.871988
N    -2.701501  -3.031018  4.321219
C    -3.526809  -4.097658  4.454369
N    -2.992703  -5.297677  4.708611
N    -4.846594  -3.962051  4.314919
H    -3.020913  0.442775  2.087543
H    -2.818118  1.056352  3.720033
H    -1.142987  -0.811382  4.186705
H    -1.404984  -1.435203  2.548027
H    -3.831897  -1.814172  3.059466
H    -3.595155  -1.151829  4.695700
H    -1.767718  -3.137537  4.709301
H    -2.003786  -5.484706  4.578006
H    -3.570426  -6.085692  4.988043
H    -5.452293  -4.776516  4.269496
H    -5.307665  -3.065411  4.413750
N    -2.089661  2.885677  0.648455
C    -2.359191  1.866324  -0.361895
H    -2.377767  3.840700  0.409451
H    -3.442704  1.693847  -0.441426
H    -1.850289  0.927532  -0.129040
H    -2.004580  2.240562  -1.331505
Hg    0.026679  4.815569  3.865822
