37
Energy: -574593.4247197  eV PBE+vdW (tier 2 basis)
C    0.275405  -1.165770  1.179633
C    -0.115823  -0.026832  2.067432
O    0.494556  1.072641  1.836181
H    0.137685  -0.863166  0.130706
H    -0.309952  -2.071741  1.375464
H    1.347341  -1.371998  1.310809
N    -1.051849  -0.231892  3.014898
C    -1.820877  0.769188  3.780981
C    -1.095971  1.173673  5.095066
O    -0.409241  2.263356  5.145452
H    -1.386434  -1.192045  3.065259
H    -1.819948  1.695553  3.183412
C    -3.329302  0.398429  3.869458
C    -3.768794  -0.882012  4.608030
C    -5.186612  -1.373990  4.247076
N    -6.249083  -0.489027  4.738867
C    -7.534556  -0.525435  4.298633
N    -8.406366  0.368356  4.771867
N    -7.917834  -1.412686  3.376823
H    -3.664617  0.341955  2.822175
H    -3.837798  1.275666  4.294251
H    -3.722147  -0.750351  5.701754
H    -3.109406  -1.734351  4.376531
H    -5.304261  -2.388511  4.661585
H    -5.280509  -1.443747  3.153637
H    -6.132612  -0.114348  5.677072
H    -8.108517  1.188928  5.287324
H    -9.405573  0.260222  4.626203
H    -8.832730  -1.342777  2.940498
H    -7.421535  -2.284252  3.231984
N    -1.173678  0.434169  6.181669
C    -0.491894  0.724465  7.452515
H    -1.793799  -0.372622  6.163844
H    0.444312  1.254678  7.253995
H    -0.295158  -0.224347  7.961321
H    -1.130752  1.353607  8.087239
Hg    0.516329  2.763018  3.222354
