37
Energy: -574593.3873387  eV PBE+vdW (tier 2 basis)
C    -1.845195  -1.696825  -0.292390
C    -1.190639  -1.218046  0.964806
O    -0.011335  -0.746603  0.818532
H    -2.892124  -1.984179  -0.139335
H    -1.275645  -2.551841  -0.686015
H    -1.789177  -0.904702  -1.052835
N    -1.865985  -1.316326  2.125737
C    -1.544162  -0.711306  3.430019
C    -0.536202  -1.565247  4.249947
O    0.684846  -1.150493  4.355853
H    -2.785613  -1.746087  2.042369
H    -0.988410  0.219786  3.228732
C    -2.822407  -0.288928  4.199517
C    -3.497531  0.963910  3.604802
C    -4.875105  1.312275  4.211947
N    -4.855063  1.923988  5.546170
C    -5.260171  3.183604  5.843999
N    -5.238615  4.149372  4.921236
N    -5.670337  3.460095  7.084782
H    -2.527039  -0.105071  5.243776
H    -3.536314  -1.126001  4.220674
H    -3.670874  0.813104  2.527927
H    -2.823939  1.829739  3.695389
H    -5.506895  0.412841  4.265010
H    -5.397946  1.997615  3.533373
H    -4.806591  1.295371  6.341877
H    -5.703013  5.037364  5.084650
H    -4.709889  4.066277  4.062855
H    -5.783811  4.418366  7.401690
H    -5.976598  2.734661  7.724402
N    -0.836462  -2.676910  4.892152
C    -2.118838  -3.357709  5.093679
H    -0.034815  -3.095486  5.375942
H    -1.905968  -4.423091  5.236172
H    -2.767983  -3.247461  4.221249
H    -2.620735  -2.982617  5.995470
Hg    1.422574  -0.376436  2.440840
