37
Energy: -574593.2481326  eV PBE+vdW (tier 2 basis)
C    -0.752851  1.609238  0.016244
C    -0.341109  0.885514  1.250469
O    0.878325  0.821876  1.641181
H    -0.056231  1.374009  -0.798226
H    -0.689804  2.693474  0.209436
H    -1.771962  1.390758  -0.313759
N    -1.198878  0.214120  2.036826
C    -2.588807  -0.134248  1.806796
C    -3.220324  -0.179257  3.244638
O    -2.534983  -0.586848  4.176078
H    -0.811290  -0.156949  2.914705
H    -3.056291  0.650952  1.199488
C    -2.846843  -1.503956  1.098940
C    -2.326683  -2.766166  1.800336
C    -2.788610  -4.035150  1.052728
N    -2.336576  -5.243430  1.742207
C    -2.222186  -6.475616  1.188373
N    -1.649750  -7.451623  1.902041
N    -2.654173  -6.709156  -0.051838
H    -2.411898  -1.410636  0.090402
H    -3.935600  -1.573700  0.948620
H    -2.700836  -2.808960  2.835659
H    -1.228221  -2.758646  1.856258
H    -2.380241  -4.049031  0.031023
H    -3.890390  -4.034374  0.977453
H    -2.255965  -5.199487  2.755430
H    -1.704657  -8.423218  1.609396
H    -1.108941  -7.259977  2.739118
H    -2.447712  -7.587567  -0.518862
H    -3.332614  -6.108915  -0.505924
N    -4.507465  0.223377  3.351019
C    -5.169077  0.407253  4.634214
H    -4.977450  0.590948  2.524497
H    -6.240423  0.203689  4.505419
H    -5.067647  1.447412  4.989028
H    -4.712190  -0.258133  5.374818
Hg    2.454149  2.447663  1.416433
