37
Energy: -574593.1940979  eV PBE+vdW (tier 2 basis)
C    -1.178745  -1.854060  1.705816
C    -0.213318  -0.967278  2.406022
O    0.984693  -1.387551  2.555745
H    -0.936760  -1.899652  0.632260
H    -2.218149  -1.546244  1.857882
H    -1.042695  -2.879811  2.082893
N    -0.561811  0.239975  2.914764
C    -1.301788  1.285792  2.201502
C    -0.238733  2.069376  1.370309
O    0.997195  2.074443  1.696557
H    0.133980  0.623001  3.559070
H    -2.004354  0.799789  1.508957
C    -2.064596  2.221325  3.171309
C    -3.196692  1.530478  3.955147
C    -3.950043  2.531324  4.850668
N    -5.039144  1.876239  5.577943
C    -5.659460  2.366314  6.678887
N    -6.524546  1.582683  7.333055
N    -5.399402  3.598702  7.118216
H    -2.478689  3.052207  2.580551
H    -1.338056  2.678042  3.862934
H    -2.791391  0.720615  4.579391
H    -3.905750  1.073677  3.245619
H    -4.352320  3.353215  4.231692
H    -3.262868  2.972329  5.588818
H    -5.475536  1.067504  5.142697
H    -6.564247  0.580200  7.179821
H    -7.138937  1.956366  8.051182
H    -5.753134  3.917104  8.015808
H    -4.996016  4.308786  6.518577
N    -0.650584  2.801499  0.344379
C    0.205858  3.590904  -0.541708
H    -1.656615  2.885321  0.192099
H    0.209479  4.642715  -0.216811
H    -0.201576  3.539352  -1.557963
H    1.228215  3.206022  -0.509470
Hg    2.434866  0.298395  2.160251
