37
Energy: -574593.1342923  eV PBE+vdW (tier 2 basis)
C    0.651720  1.107476  0.506559
C    0.097707  0.917069  1.873191
O    0.841221  0.685501  2.888857
H    1.225488  0.217672  0.208189
H    1.370965  1.940416  0.537896
H    -0.107239  1.313024  -0.255524
N    -1.229586  1.037224  2.075348
C    -1.935960  0.941783  3.349283
C    -1.330538  -0.129545  4.275509
O    -0.963623  -1.257799  3.789819
H    -1.784685  1.332004  1.272581
H    -1.800943  1.906726  3.870849
C    -3.470505  0.768300  3.156476
C    -3.941273  -0.508794  2.433987
C    -5.452221  -0.779945  2.522834
N    -6.268178  0.105353  1.684664
C    -7.621952  0.204692  1.762575
N    -8.249830  1.082736  0.972960
N    -8.312666  -0.535911  2.629117
H    -3.837768  1.673163  2.646691
H    -3.910984  0.808806  4.163789
H    -3.456266  -1.389941  2.878965
H    -3.631199  -0.509109  1.376574
H    -5.792514  -0.674007  3.564523
H    -5.619548  -1.830601  2.226228
H    -5.860254  0.414717  0.805716
H    -7.750359  1.807636  0.468722
H    -9.262290  1.085120  0.883959
H    -9.303120  -0.369757  2.784158
H    -7.933182  -1.382226  3.037457
N    -1.274594  0.107245  5.578488
C    -1.633579  1.319929  6.319768
H    -0.923306  -0.676275  6.134375
H    -1.216542  1.240831  7.327740
H    -2.722906  1.432261  6.397965
H    -1.205790  2.210792  5.837339
Hg    1.283156  -1.466986  3.428970
