37
Energy: -574593.4517384  eV PBE+vdW (tier 2 basis)
C    -2.876678  -1.298486  0.393775
C    -2.294182  -1.102165  1.759202
O    -1.841351  -2.170319  2.304887
H    -2.053032  -1.483865  -0.313575
H    -3.471008  -0.442610  0.054043
H    -3.497962  -2.204482  0.391316
N    -2.286741  0.140194  2.272871
C    -2.056374  0.702645  3.638050
C    -0.562847  0.822408  4.023584
O    0.094833  -0.130963  4.606547
H    -2.649953  0.827909  1.616155
H    -2.409022  1.735727  3.533351
C    -2.908494  0.069727  4.766669
C    -4.411634  0.395806  4.653907
C    -5.195274  -0.066507  5.897246
N    -6.603913  0.322360  5.797287
C    -7.624876  -0.231299  6.492950
N    -8.880181  0.100611  6.178185
N    -7.388604  -1.121339  7.461928
H    -2.514968  0.465052  5.716125
H    -2.769640  -1.021741  4.811622
H    -4.846775  -0.069283  3.757227
H    -4.529744  1.486626  4.544230
H    -4.738517  0.367743  6.803299
H    -5.150063  -1.162036  5.986658
H    -6.814347  1.198735  5.327939
H    -9.656042  -0.122310  6.794302
H    -9.110594  0.564066  5.306023
H    -8.152137  -1.645222  7.879170
H    -6.503480  -1.153112  7.953481
N    0.094329  1.956383  3.871136
C    -0.338423  3.292378  3.449614
H    1.070742  1.901794  4.184339
H    0.425147  3.693468  2.770969
H    -0.406551  3.952170  4.325435
H    -1.296372  3.265360  2.925216
Hg    -0.351271  -2.115422  3.880837
