37
Energy: -574593.5465167  eV PBE+vdW (tier 2 basis)
C    -1.393608  1.157265  1.051040
C    -0.631724  0.718049  2.260374
O    0.461314  1.350181  2.472270
H    -1.466676  2.254329  1.049729
H    -2.397429  0.720886  0.999875
H    -0.817947  0.882954  0.153693
N    -1.127907  -0.281588  3.014056
C    -0.767940  -0.699479  4.387489
C    0.323110  -1.807204  4.388554
O    1.576811  -1.503325  4.446598
H    -1.977281  -0.701916  2.639975
H    -0.294396  0.165331  4.882624
C    -2.029917  -1.043162  5.215484
C    -2.912525  0.182930  5.539043
C    -3.903430  -0.015249  6.708277
N    -5.116410  -0.788007  6.409297
C    -6.388674  -0.329858  6.524627
N    -7.375920  -1.197722  6.761270
N    -6.668351  0.968854  6.383470
H    -1.672438  -1.483893  6.159014
H    -2.619304  -1.821514  4.700231
H    -3.456222  0.524577  4.646177
H    -2.256806  1.013792  5.843864
H    -4.213541  0.970965  7.074171
H    -3.393151  -0.495498  7.557232
H    -5.032297  -1.799614  6.433862
H    -8.349717  -0.933935  6.644201
H    -7.201988  -2.114649  7.158712
H    -7.576984  1.338128  6.645846
H    -6.020876  1.618787  5.957004
N    -0.006095  -3.079530  4.365493
C    0.946593  -4.202077  4.354457
H    -0.994297  -3.316581  4.434172
H    1.860681  -3.903675  3.832995
H    0.474361  -5.047320  3.844583
H    1.195474  -4.489652  5.385012
Hg    2.039505  0.483414  3.697227
