37
Energy: -574592.9451114  eV PBE+vdW (tier 2 basis)
C    0.227702  -1.543356  0.493024
C    0.175897  -0.655869  1.681073
O    1.194274  -0.395396  2.402045
H    -0.693881  -1.544358  -0.094059
H    0.390392  -2.574100  0.852052
H    1.089567  -1.280188  -0.132494
N    -0.945561  -0.036551  2.127733
C    -2.226013  0.340291  1.501844
C    -3.041905  -0.971281  1.174680
O    -2.955586  -1.512117  0.079201
H    -0.791820  0.389739  3.047023
H    -2.754259  0.845112  2.322023
C    -2.232170  1.382596  0.355444
C    -1.682302  1.068134  -1.044087
C    -2.027065  2.237984  -1.991838
N    -1.617594  1.963575  -3.368692
C    -1.431128  2.898917  -4.333472
N    -0.942626  2.512875  -5.518016
N    -1.707858  4.182774  -4.103887
H    -1.728677  2.272516  0.766279
H    -3.293205  1.665890  0.263719
H    -2.136623  0.143973  -1.430231
H    -0.591590  0.930612  -1.026972
H    -1.520266  3.156759  -1.660529
H    -3.115952  2.421623  -1.957000
H    -1.676336  0.999290  -3.687989
H    -0.946183  3.136319  -6.320636
H    -0.515607  1.602389  -5.653149
H    -1.440926  4.901840  -4.770215
H    -2.321860  4.474193  -3.352327
N    -3.830891  -1.422765  2.180728
C    -4.782641  -2.507474  1.999921
H    -3.921656  -0.857903  3.024003
H    -4.947328  -2.989249  2.972168
H    -4.392402  -3.210190  1.254222
H    -5.757097  -2.131523  1.642858
Hg    2.957383  -1.787517  2.998532
