37
Energy: -574592.8862262  eV PBE+vdW (tier 2 basis)
C    1.401483  1.498510  1.153882
C    0.785857  0.317109  0.495146
O    1.405003  -0.453620  -0.304937
H    0.774722  1.948830  1.928557
H    1.652731  2.254036  0.393979
H    2.349074  1.190158  1.620891
N    -0.523625  -0.016444  0.651716
C    -1.627267  0.846345  1.030476
C    -2.277925  0.481066  2.426898
O    -2.615318  1.488730  3.071046
H    -0.764686  -0.899151  0.190336
H    -1.229855  1.852237  1.196129
C    -2.726544  0.875645  -0.076174
C    -4.064901  1.572684  0.221972
C    -4.100225  3.108028  0.366468
N    -4.072215  3.549693  1.756661
C    -4.577877  4.720429  2.223100
N    -4.663257  4.887887  3.548718
N    -4.982875  5.674860  1.387663
H    -2.961984  -0.162182  -0.356214
H    -2.254651  1.333528  -0.960266
H    -4.587513  1.106056  1.069872
H    -4.697121  1.343499  -0.649559
H    -5.033918  3.477959  -0.084759
H    -3.274325  3.574582  -0.203081
H    -3.627542  2.915129  2.432587
H    -4.930058  5.780561  3.955849
H    -4.563210  4.108426  4.191123
H    -4.759021  5.661633  0.399230
H    -5.482735  6.493643  1.723961
N    -2.495490  -0.763690  2.835161
C    -2.225533  -2.044507  2.173173
H    -2.932345  -0.817555  3.757031
H    -2.818814  -2.810226  2.683767
H    -1.169158  -2.328696  2.256392
H    -2.554170  -2.036422  1.126812
Hg    3.650303  -1.026230  -0.318834
