37
Energy: -574592.9400160  eV PBE+vdW (tier 2 basis)
C    -0.365705  -1.326902  1.959819
C    -1.394973  -0.364667  2.454905
O    -1.899026  -0.374528  3.569938
H    0.289834  -1.637742  2.780712
H    0.227563  -0.941532  1.122250
H    -0.895135  -2.232405  1.616826
N    -1.805604  0.647471  1.543976
C    -2.826215  1.595466  1.867181
C    -3.837547  1.737074  0.655759
O    -4.549851  2.780144  0.681426
H    -1.128837  0.894899  0.818337
H    -3.428112  1.142683  2.674423
C    -2.338132  2.989016  2.340749
C    -1.964105  3.084002  3.824026
C    -0.511523  2.658751  4.200869
N    -0.221923  2.821844  5.616668
C    -0.368512  1.891425  6.596306
N    0.033813  2.211308  7.831699
N    -0.894482  0.695879  6.338174
H    -3.197154  3.662989  2.174231
H    -1.533557  3.360095  1.686965
H    -2.692253  2.532188  4.436897
H    -2.059014  4.141432  4.114506
H    0.205555  3.287345  3.656030
H    -0.304993  1.618044  3.924298
H    0.107488  3.738619  5.912784
H    -0.093412  1.576575  8.615893
H    0.535402  3.072080  8.031862
H    -1.276334  0.438368  5.431068
H    -0.930997  -0.019056  7.058661
N    -3.890754  0.754084  -0.225292
C    -4.790221  0.643997  -1.372239
H    -3.272688  -0.034573  -0.030884
H    -4.622777  -0.328699  -1.848376
H    -4.584010  1.431071  -2.108192
H    -5.846502  0.661571  -1.051797
Hg    -6.470871  3.404279  -0.512798
