37
Energy: -574593.6576198  eV PBE+vdW (tier 2 basis)
C    -1.559752  1.945428  0.220094
C    -1.798936  0.734564  1.063712
O    -2.370259  -0.241591  0.461462
H    -0.957010  2.704658  0.731407
H    -2.530691  2.368296  -0.078466
H    -1.052841  1.640745  -0.707651
N    -1.413205  0.752853  2.353429
C    -1.206531  -0.371962  3.298160
C    -2.488109  -0.646222  4.130252
O    -3.354547  -1.520694  3.746534
H    -1.025084  1.646161  2.654917
H    -1.042851  -1.284540  2.701001
C    0.087095  -0.116241  4.107589
C    0.581489  -1.308652  4.950399
C    1.899595  -0.966427  5.680832
N    2.368808  -2.052005  6.546892
C    3.613207  -2.587942  6.577495
N    4.398410  -2.575989  5.494897
N    4.051393  -3.146254  7.707985
H    -0.035432  0.781314  4.739802
H    0.858241  0.152080  3.369037
H    0.737854  -2.187294  4.306778
H    -0.175934  -1.598140  5.695669
H    1.764159  -0.065430  6.300520
H    2.692178  -0.724251  4.962034
H    1.800848  -2.249174  7.366648
H    5.379892  -2.826341  5.563977
H    4.022641  -2.474943  4.560982
H    3.631431  -2.939966  8.608312
H    4.860673  -3.760062  7.715368
N    -2.706954  0.004722  5.252099
C    -3.910629  -0.124742  6.088233
H    -1.969117  0.617337  5.595981
H    -4.769573  -0.374719  5.458633
H    -4.076603  0.828123  6.600421
H    -3.768041  -0.919020  6.833200
Hg    -3.385814  -1.801680  1.580371
