37
Energy: -574593.6166021  eV PBE+vdW (tier 2 basis)
C    2.525490  2.772858  2.897173
C    1.482647  2.344819  1.915154
O    1.908420  1.618613  0.950738
H    2.100376  3.243316  3.791007
H    3.216751  3.468371  2.396770
H    3.124199  1.898086  3.190521
N    0.209464  2.742696  2.102929
C    -1.044834  2.224514  1.508661
C    -1.442311  3.022959  0.236717
O    -1.044349  2.649223  -0.932477
H    0.086050  3.380438  2.888222
H    -0.844616  1.199334  1.154091
C    -2.155058  2.128692  2.583594
C    -1.873332  1.053203  3.653464
C    -2.880152  0.981212  4.814769
N    -4.164464  0.379041  4.432393
C    -5.276549  0.405853  5.212699
N    -6.400451  -0.156464  4.759652
N    -5.265282  1.018157  6.399132
H    -3.099489  1.907246  2.065331
H    -2.283937  3.110410  3.072378
H    -0.894622  1.235531  4.120624
H    -1.791218  0.062863  3.176586
H    -3.077206  1.990509  5.205653
H    -2.409648  0.395883  5.621960
H    -4.120043  -0.401449  3.781915
H    -7.195065  -0.317777  5.370911
H    -6.506783  -0.440929  3.792618
H    -6.126782  1.158591  6.918776
H    -4.405784  1.188858  6.907561
N    -2.213488  4.084399  0.322774
C    -2.626871  4.927313  -0.811258
H    -2.615073  4.308408  1.231839
H    -2.798036  5.942010  -0.438904
H    -3.556246  4.536919  -1.247511
H    -1.843111  4.927571  -1.574339
Hg    0.791405  1.475727  -0.914125
