37
Energy: -574593.0604945  eV PBE+vdW (tier 2 basis)
C    -0.622057  -1.242243  0.273346
C    0.278541  -0.564818  1.239550
O    1.540264  -0.735014  1.107921
H    -0.482884  -0.823926  -0.735321
H    -1.672621  -1.200619  0.580342
H    -0.314943  -2.298801  0.200305
N    -0.180268  0.187836  2.269054
C    -1.180499  1.252658  2.159253
C    -0.366051  2.574876  2.010495
O    0.890605  2.625914  2.233630
H    0.540528  0.392807  2.963352
H    -1.718126  1.103748  1.211107
C    -2.245189  1.231842  3.286590
C    -1.760401  1.363325  4.741990
C    -2.956023  1.241363  5.707012
N    -2.540304  1.333043  7.107325
C    -3.365335  1.581841  8.154509
N    -2.828619  1.786433  9.362903
N    -4.686349  1.644271  7.983946
H    -2.789351  0.283845  3.161165
H    -2.980852  2.021231  3.066433
H    -1.254804  2.326973  4.907692
H    -1.037169  0.564340  4.972928
H    -3.470671  0.280367  5.528069
H    -3.678773  2.048745  5.513201
H    -1.603899  1.015625  7.343529
H    -1.841267  1.984992  9.486518
H    -3.403324  1.803281  10.200950
H    -5.293647  1.967655  8.731578
H    -5.146084  1.227063  7.183227
N    -1.020731  3.677679  1.671394
C    -0.419267  4.987374  1.419233
H    -2.039037  3.629608  1.619151
H    -0.941763  5.454142  0.575728
H    0.645260  4.870538  1.202273
H    -0.536658  5.631488  2.303517
Hg    2.625086  1.202164  1.490629
