37
Energy: -574592.7160567  eV PBE+vdW (tier 2 basis)
C    -2.777769  0.763483  3.516668
C    -2.123270  -0.320315  4.292463
O    -1.240895  0.025073  5.152570
H    -3.761683  0.475586  3.138221
H    -2.119841  1.092876  2.697718
H    -2.886696  1.632274  4.184016
N    -2.461138  -1.636555  4.220543
C    -2.534667  -2.507843  3.037029
C    -1.033106  -2.856631  2.753825
O    -0.174127  -1.923723  2.858602
H    -2.135274  -2.147277  5.045868
H    -3.044520  -3.419246  3.385514
C    -3.314375  -1.963638  1.817601
C    -3.614550  -3.063463  0.775605
C    -4.785840  -2.785101  -0.182585
N    -4.480487  -1.813572  -1.239254
C    -5.407264  -1.307045  -2.095670
N    -5.014561  -0.426381  -3.023562
N    -6.689173  -1.656167  -1.999976
H    -2.780355  -1.121117  1.358424
H    -4.266341  -1.577426  2.210277
H    -3.904517  -3.987357  1.300142
H    -2.714485  -3.317063  0.193109
H    -5.653368  -2.416056  0.385889
H    -5.073905  -3.747968  -0.639605
H    -3.517990  -1.773716  -1.565464
H    -4.095448  0.002054  -3.005420
H    -5.636123  -0.132944  -3.772183
H    -7.401747  -1.189656  -2.554261
H    -6.989948  -2.477260  -1.487934
N    -0.709603  -4.100486  2.428624
C    0.649436  -4.600054  2.214440
H    -1.463459  -4.783478  2.346032
H    0.957636  -5.220219  3.069810
H    1.335116  -3.760380  2.082476
H    0.654678  -5.234681  1.318827
Hg    0.735111  -1.029287  4.849427
