37
Energy: -574592.9076234  eV PBE+vdW (tier 2 basis)
C    0.001626  -1.092342  0.156810
C    -0.315490  -0.055283  1.170677
O    0.430002  0.952994  1.400522
H    0.094364  -0.625383  -0.834014
H    -0.721738  -1.911528  0.125234
H    0.987756  -1.520364  0.398776
N    -1.437179  -0.059100  1.935922
C    -2.737147  -0.718605  1.756259
C    -2.549723  -2.237791  2.183806
O    -2.356186  -3.068429  1.304191
H    -1.405160  0.657223  2.667523
H    -3.394703  -0.238395  2.492428
C    -3.391011  -0.602054  0.362912
C    -4.847935  -1.108615  0.385870
C    -5.551371  -1.201131  -0.977508
N    -6.063940  0.084818  -1.463156
C    -6.638154  0.271427  -2.679778
N    -7.081521  1.492315  -3.003525
N    -6.737839  -0.734522  -3.547383
H    -2.814300  -1.181463  -0.369555
H    -3.345275  0.456644  0.067411
H    -5.460564  -0.505118  1.075575
H    -4.867796  -2.131674  0.786929
H    -6.392847  -1.908362  -0.869504
H    -4.868401  -1.615670  -1.735626
H    -6.277802  0.789693  -0.761516
H    -7.633691  1.651042  -3.841859
H    -6.871404  2.309337  -2.440104
H    -6.619060  -1.701409  -3.268583
H    -7.070592  -0.578951  -4.494642
N    -2.598047  -2.555285  3.499659
C    -3.026837  -1.766463  4.646828
H    -2.539581  -3.566174  3.657335
H    -2.791535  -0.705496  4.527788
H    -2.490221  -2.141226  5.529502
H    -4.103659  -1.892623  4.839722
Hg    2.744073  1.074171  1.339099
