37
Energy: -574592.9440636  eV PBE+vdW (tier 2 basis)
C    -0.052553  -0.130993  0.390505
C    -0.513747  -0.122814  1.801356
O    0.192084  -0.749878  2.666745
H    0.903931  0.405333  0.297806
H    -0.804031  0.270783  -0.297548
H    0.164112  -1.174811  0.107845
N    -1.661195  0.477754  2.198449
C    -2.069740  1.845397  1.865966
C    -1.529983  2.731911  3.030140
O    -1.162308  2.233945  4.147636
H    -1.952840  0.195219  3.135894
H    -1.530689  2.140554  0.954088
C    -3.589892  1.971095  1.567160
C    -4.551095  1.586270  2.706006
C    -6.008838  1.340080  2.272894
N    -6.740906  2.560539  1.916501
C    -7.922870  2.575552  1.244628
N    -8.480997  3.754834  0.948859
N    -8.506629  1.441211  0.858902
H    -3.768223  1.326475  0.693553
H    -3.785971  2.997074  1.221366
H    -4.522969  2.326374  3.521772
H    -4.240922  0.633177  3.160679
H    -6.524485  0.826938  3.102905
H    -6.025818  0.666660  1.402935
H    -6.551204  3.389003  2.475504
H    -9.432264  3.816379  0.596455
H    -7.970667  4.627709  1.028921
H    -9.312067  1.453926  0.239456
H    -8.284038  0.548034  1.282700
N    -1.492303  4.045885  2.850542
C    -0.963022  5.024851  3.801279
H    -1.898288  4.419497  1.991906
H    -1.788655  5.496627  4.354606
H    -0.428089  5.801215  3.241618
H    -0.298125  4.527904  4.512014
Hg    0.269664  0.414463  4.588081
