37
Energy: -574593.4584166  eV PBE+vdW (tier 2 basis)
C    -1.620183  -1.092130  -0.474923
C    -1.525987  -0.889371  1.004783
O    -0.988819  -1.866537  1.641221
H    -0.605320  -1.065643  -0.900829
H    -2.253774  -0.346166  -0.968472
H    -2.016869  -2.097836  -0.674830
N    -1.986042  0.262908  1.522257
C    -2.354925  0.716471  2.900987
C    -1.135063  1.172082  3.738215
O    -0.474297  0.362613  4.505932
H    -2.318476  0.898631  0.799483
H    -2.935138  1.625675  2.703471
C    -3.315983  -0.248386  3.637324
C    -4.048309  0.404017  4.826875
C    -5.138381  -0.523330  5.400400
N    -5.831123  0.107534  6.525041
C    -7.109461  -0.132657  6.900658
N    -7.677099  0.659760  7.814296
N    -7.810633  -1.128681  6.349369
H    -2.801774  -1.164012  3.973769
H    -4.046540  -0.579098  2.884187
H    -4.521187  1.343676  4.502395
H    -3.328975  0.658313  5.621722
H    -4.692953  -1.483415  5.712503
H    -5.884276  -0.735427  4.621129
H    -5.267848  0.633266  7.187487
H    -8.541889  0.396875  8.277176
H    -7.286111  1.562827  8.059262
H    -8.810549  -1.206289  6.510136
H    -7.359134  -1.937702  5.939956
N    -0.756421  2.435130  3.769295
C    -1.331175  3.647319  3.177974
H    0.069899  2.596194  4.357062
H    -2.133120  3.419561  2.472262
H    -0.529571  4.179214  2.648196
H    -1.711131  4.298778  3.976156
Hg    -0.167361  -1.588166  3.613074
