37
Energy: -574593.4519825  eV PBE+vdW (tier 2 basis)
C    0.723644  1.356258  1.504961
C    0.332901  -0.061045  1.783531
O    1.180334  -0.935622  1.376026
H    1.085325  1.432242  0.469585
H    1.573178  1.622028  2.153180
H    -0.099554  2.064178  1.656181
N    -0.826060  -0.291186  2.424621
C    -1.701777  -1.493483  2.604451
C    -1.237285  -2.418534  3.755753
O    -0.417225  -3.405849  3.570078
H    -1.293582  0.574338  2.688349
H    -2.644193  -1.047991  2.944243
C    -2.033217  -2.228460  1.283061
C    -3.276709  -3.134433  1.383232
C    -3.720311  -3.646842  -0.000771
N    -4.936277  -4.455412  0.107774
C    -5.369643  -5.350850  -0.810457
N    -6.391484  -6.154214  -0.502679
N    -4.766658  -5.456420  -1.999194
H    -1.175879  -2.813359  0.910833
H    -2.204789  -1.441754  0.533358
H    -4.103344  -2.556349  1.828529
H    -3.085867  -3.993037  2.044225
H    -2.932539  -4.275093  -0.441937
H    -3.885695  -2.787203  -0.672927
H    -5.611443  -4.192398  0.820021
H    -6.883587  -6.680928  -1.217964
H    -6.704522  -6.282108  0.453333
H    -4.992153  -6.223759  -2.625309
H    -4.249467  -4.685995  -2.405504
N    -1.718459  -2.291468  4.977112
C    -2.755484  -1.422158  5.540927
H    -1.314055  -2.960674  5.642615
H    -2.320409  -0.874588  6.388007
H    -3.581335  -2.040696  5.915420
H    -3.134877  -0.705869  4.809063
Hg    1.192493  -2.923267  2.204274
