37
Energy: -574593.3393301  eV PBE+vdW (tier 2 basis)
C    -1.818464  -0.652409  -0.122094
C    -1.626200  -0.560256  1.359441
O    -1.259668  -1.655831  1.918471
H    -2.327965  -1.594956  -0.365018
H    -0.826694  -0.702910  -0.599594
H    -2.385371  0.190573  -0.533841
N    -1.833909  0.626742  1.955662
C    -2.021874  1.065993  3.373939
C    -0.697399  1.222717  4.157446
O    -0.158622  0.253345  4.831531
H    -2.061720  1.356237  1.282920
H    -2.409067  2.085288  3.255493
C    -3.103812  0.287111  4.164965
C    -4.512997  0.466756  3.565258
C    -5.655433  -0.268898  4.285908
N    -6.052143  0.373430  5.546199
C    -6.902048  -0.185636  6.446337
N    -7.178194  0.472389  7.575395
N    -7.426382  -1.394985  6.230486
H    -3.070702  0.657983  5.200704
H    -2.868750  -0.787681  4.221473
H    -4.524416  0.096067  2.530270
H    -4.757514  1.539932  3.496501
H    -5.360375  -1.305724  4.506448
H    -6.510518  -0.305913  3.590808
H    -6.021461  1.389702  5.563872
H    -7.938422  0.183671  8.183475
H    -6.642428  1.280375  7.871196
H    -7.951164  -1.869701  6.959277
H    -7.502065  -1.787833  5.299663
N    -0.094973  2.391590  4.259918
C    -0.469490  3.734927  3.807841
H    0.767094  2.353757  4.816740
H    0.403511  4.179628  3.311999
H    -0.728238  4.355121  4.676626
H    -1.304198  3.713454  3.103674
Hg    -0.262930  -1.657050  3.836613
