37
Energy: -574593.1431626  eV PBE+vdW (tier 2 basis)
C    -0.525035  -0.645752  0.015753
C    -0.295177  -0.084158  1.380954
O    0.842376  0.266211  1.813528
H    0.040428  -1.587366  -0.079935
H    -0.141850  0.057884  -0.736853
H    -1.577908  -0.858321  -0.197717
N    -1.370901  0.096570  2.192858
C    -1.336530  0.731821  3.510451
C    -2.333731  0.006196  4.466065
O    -3.090076  0.635313  5.203996
H    -2.278505  -0.010708  1.738039
H    -0.318624  0.568203  3.901645
C    -1.588599  2.253953  3.510015
C    -2.976144  2.712016  3.006027
C    -3.556694  3.908840  3.766288
N    -3.973998  3.536565  5.115590
C    -4.620542  4.348509  5.988857
N    -5.016541  3.834599  7.161217
N    -4.855614  5.622827  5.688480
H    -0.790668  2.722781  2.918243
H    -1.417919  2.578578  4.546167
H    -3.717691  1.898569  3.048574
H    -2.914816  3.007002  1.949956
H    -4.429889  4.301984  3.216117
H    -2.813851  4.726976  3.819216
H    -3.779743  2.571855  5.403781
H    -5.471809  4.406355  7.868056
H    -4.920793  2.846788  7.371841
H    -5.377308  6.228376  6.316100
H    -4.510813  6.052123  4.837780
N    -2.291307  -1.355368  4.463413
C    -3.073408  -2.182115  5.360651
H    -1.546660  -1.809766  3.936645
H    -3.249239  -3.156057  4.885967
H    -4.012615  -1.674263  5.604062
H    -2.526482  -2.367179  6.303770
Hg    2.895625  -0.466860  0.931299
