37
Energy: -574593.0451072  eV PBE+vdW (tier 2 basis)
C    1.079417  -0.582630  1.575213
C    -0.053573  -1.397857  2.083760
O    0.215115  -2.373641  2.865754
H    1.882290  -1.267049  1.257670
H    1.509570  0.017264  2.392485
H    0.793292  0.052897  0.730983
N    -1.341117  -1.172311  1.723871
C    -2.019583  0.127151  1.751512
C    -2.593124  0.272290  3.195657
O    -2.772579  -0.742460  3.951655
H    -1.967086  -1.943386  1.967410
H    -1.261083  0.909393  1.600129
C    -3.113930  0.248896  0.659939
C    -2.534079  0.203591  -0.767758
C    -3.474051  0.660903  -1.895812
N    -4.511291  -0.318428  -2.240625
C    -5.556892  -0.062714  -3.069934
N    -6.454106  -1.029695  -3.294239
N    -5.707320  1.137440  -3.629707
H    -3.634475  1.206248  0.813201
H    -3.871431  -0.534805  0.816892
H    -2.138201  -0.798262  -0.996355
H    -1.668050  0.880586  -0.824443
H    -2.849281  0.864821  -2.782988
H    -3.970594  1.603143  -1.617492
H    -4.271075  -1.300807  -2.131681
H    -7.160722  -0.938983  -4.018906
H    -6.485032  -1.875450  -2.735442
H    -6.550284  1.370955  -4.146828
H    -4.942700  1.798620  -3.701536
N    -2.957233  1.477125  3.613218
C    -3.493560  1.800058  4.935597
H    -2.923564  2.244659  2.940912
H    -3.223799  1.016349  5.647622
H    -4.590644  1.875372  4.884089
H    -3.091142  2.770884  5.248172
Hg    -1.298304  -2.462081  4.536328
