37
Energy: -574593.4571732  eV PBE+vdW (tier 2 basis)
C    -2.825673  -3.789432  2.931151
C    -3.346670  -2.432543  2.581791
O    -4.499973  -2.420026  2.023529
H    -1.952453  -3.752786  3.592382
H    -2.570145  -4.317343  1.998805
H    -3.626462  -4.373214  3.407380
N    -2.591157  -1.353780  2.862469
C    -2.954139  0.082595  2.925486
C    -2.718258  0.791863  1.562188
O    -3.663081  0.882289  0.685753
H    -1.673600  -1.581133  3.244289
H    -4.041138  0.146665  3.102682
C    -2.231013  0.752098  4.120164
C    -2.692653  0.268731  5.519148
C    -3.733347  1.156277  6.237071
N    -3.192492  2.378989  6.842329
C    -2.624742  2.474982  8.070271
N    -2.143860  3.652794  8.473807
N    -2.507286  1.400206  8.857524
H    -2.368591  1.839906  4.031049
H    -1.147338  0.574647  4.019677
H    -1.809427  0.170849  6.164095
H    -3.113630  -0.745982  5.451408
H    -4.254789  0.557726  6.998654
H    -4.526053  1.481702  5.550160
H    -3.481607  3.259818  6.430446
H    -1.857165  3.807291  9.435569
H    -2.080858  4.451404  7.852308
H    -2.032365  1.466623  9.752803
H    -3.085753  0.579758  8.725224
N    -1.557158  1.342586  1.285288
C    -1.210551  2.011543  0.020979
H    -0.856084  1.370361  2.024659
H    -1.790043  1.575371  -0.797560
H    -0.138138  1.878377  -0.153505
H    -1.436480  3.084244  0.092976
Hg    -5.119828  -0.724453  0.813548
