37
Energy: -574593.5159187  eV PBE+vdW (tier 2 basis)
C    -0.879807  -0.005489  0.505270
C    -0.450565  -0.103402  1.933484
O    0.655571  0.475592  2.212406
H    -0.126322  -0.490614  -0.131944
H    -0.898726  1.055940  0.213808
H    -1.867743  -0.445762  0.328973
N    -1.232124  -0.771675  2.806257
C    -1.277856  -0.685866  4.281353
C    -0.486446  -1.837760  4.957300
O    0.802946  -1.836145  4.976116
H    -2.031849  -1.229137  2.373900
H    -0.708549  0.216633  4.566816
C    -2.715536  -0.396199  4.794285
C    -3.906122  -1.274256  4.350402
C    -5.220781  -0.689808  4.912448
N    -6.382311  -1.480365  4.504969
C    -7.568956  -1.521790  5.160364
N    -8.484922  -2.417472  4.784090
N    -7.811422  -0.703079  6.188284
H    -2.925780  0.640764  4.491464
H    -2.654187  -0.368749  5.893329
H    -3.821105  -2.321078  4.681903
H    -3.982967  -1.303568  3.250647
H    -5.322932  0.356912  4.578270
H    -5.180054  -0.688450  6.011324
H    -6.393483  -1.845579  3.556757
H    -8.251522  -3.210683  4.196752
H    -9.449337  -2.348901  5.094931
H    -8.628280  -0.840692  6.776410
H    -7.331935  0.183537  6.291631
N    -1.101413  -2.828355  5.562484
C    -0.421296  -3.934203  6.260638
H    -2.117191  -2.844100  5.531266
H    0.427212  -3.542199  6.831076
H    -0.059813  -4.672096  5.532696
H    -1.139461  -4.405820  6.936680
Hg    1.796066  -0.197086  3.941158
