37
Energy: -574592.9545421  eV PBE+vdW (tier 2 basis)
C    -0.381393  -0.373319  0.663654
C    -0.363119  0.204821  2.034767
O    0.410723  -0.231033  2.959611
H    0.534988  -0.054711  0.138694
H    -1.235733  -0.062312  0.056574
H    -0.365235  -1.468708  0.724926
N    -1.170275  1.202461  2.434445
C    -2.325695  1.793443  1.783194
C    -2.255116  3.310870  2.186555
O    -1.891624  3.579854  3.330142
H    -0.969600  1.586312  3.367396
H    -2.231445  1.666078  0.700126
C    -3.720432  1.240689  2.233050
C    -3.992839  1.262818  3.745931
C    -5.471263  1.280719  4.165825
N    -6.171479  0.009349  3.948126
C    -7.515762  -0.152399  4.056997
N    -8.043971  -1.355048  3.800327
N    -8.301911  0.871224  4.388598
H    -3.796130  0.222516  1.820960
H    -4.473591  1.839033  1.697270
H    -3.565908  2.177654  4.189458
H    -3.470215  0.433802  4.249096
H    -6.010255  2.066574  3.614423
H    -5.507755  1.542575  5.237825
H    -5.619611  -0.841801  4.022072
H    -7.513976  -2.089172  3.343132
H    -9.014732  -1.564073  4.016506
H    -9.313681  0.788836  4.344616
H    -7.940447  1.705901  4.835387
N    -2.615047  4.255239  1.288424
C    -2.931695  4.123966  -0.125447
H    -2.439522  5.205602  1.628961
H    -3.574813  4.967824  -0.407476
H    -3.461547  3.189450  -0.335490
H    -2.023553  4.184616  -0.747592
Hg    2.540308  -0.993349  2.719401
