37
Energy: -574592.8519889  eV PBE+vdW (tier 2 basis)
C    0.052123  -1.544444  1.285793
C    -0.216458  -1.572994  2.748651
O    0.013453  -2.605351  3.477168
H    1.143842  -1.554034  1.128980
H    -0.348928  -0.665306  0.774717
H    -0.358225  -2.449273  0.818442
N    -0.756935  -0.547702  3.426127
C    -1.395069  0.660811  2.927513
C    -1.226294  1.682763  4.100014
O    -1.317361  1.255559  5.249828
H    -0.810570  -0.658857  4.448054
H    -0.870702  0.993629  2.024978
C    -2.917283  0.515065  2.585479
C    -3.874545  0.131927  3.734079
C    -4.694400  1.281251  4.377911
N    -5.915652  1.655652  3.661627
C    -7.189212  1.367226  4.029801
N    -7.448884  0.425749  4.937970
N    -8.191454  2.045325  3.459519
H    -2.961606  -0.245637  1.791512
H    -3.222835  1.454653  2.100841
H    -3.325742  -0.362173  4.548302
H    -4.578472  -0.624792  3.359243
H    -4.085924  2.193157  4.470920
H    -4.973162  1.006791  5.402662
H    -5.822872  2.270744  2.858167
H    -8.379040  0.321929  5.332829
H    -6.759018  -0.257796  5.223057
H    -8.039646  2.923589  2.973667
H    -9.159054  1.757504  3.577609
N    -1.020647  2.990408  3.815273
C    -0.704614  3.619773  2.540081
H    -0.827609  3.546309  4.653798
H    -1.257978  3.159278  1.715169
H    0.376192  3.576899  2.328057
H    -0.981753  4.679296  2.606278
Hg    1.692612  -4.095696  3.223649
