37
Energy: -574593.4222760  eV PBE+vdW (tier 2 basis)
C    0.501021  -1.686350  1.066288
C    0.326545  -0.673062  2.152449
O    1.232487  0.228294  2.201797
H    1.471520  -2.186893  1.190908
H    0.536387  -1.164496  0.097700
H    -0.307318  -2.426636  1.047705
N    -0.738062  -0.774939  2.972905
C    -1.317444  0.245595  3.870129
C    -0.714774  0.171274  5.300535
O    0.261916  0.943899  5.635428
H    -1.314439  -1.596144  2.800014
H    -0.985656  1.226841  3.493067
C    -2.867757  0.309518  3.739991
C    -3.726914  -0.917650  4.113015
C    -5.132003  -0.940937  3.465478
N    -6.079949  0.009367  4.050784
C    -7.417147  -0.201081  4.163787
N    -8.146573  0.656289  4.882487
N    -7.998769  -1.258736  3.592575
H    -3.045849  0.565373  2.683616
H    -3.180216  1.190541  4.320307
H    -3.861180  -1.002643  5.202741
H    -3.251250  -1.854453  3.778907
H    -5.542284  -1.947072  3.620018
H    -5.040311  -0.781673  2.377702
H    -5.789273  0.976724  4.154613
H    -7.724060  1.295572  5.546278
H    -9.160346  0.665250  4.822780
H    -8.954482  -1.511972  3.826619
H    -7.595683  -1.727044  2.789513
N    -1.190779  -0.657017  6.205452
C    -0.663115  -0.812104  7.570327
H    -2.024063  -1.190618  5.967044
H    -1.151049  -0.095963  8.245247
H    0.415144  -0.626035  7.571150
H    -0.875235  -1.831821  7.906163
Hg    1.539961  1.496805  3.949477
