37
Energy: -574593.1163799  eV PBE+vdW (tier 2 basis)
C    -1.531625  0.981926  1.171057
C    -1.031560  0.330626  2.411249
O    -0.671176  0.994871  3.433325
H    -1.646664  0.311170  0.319625
H    -0.860139  1.799880  0.885554
H    -2.522825  1.409865  1.409874
N    -0.961497  -1.023078  2.617275
C    -0.546008  -2.057755  1.683774
C    0.778977  -1.607222  0.924177
O    0.910868  -0.431207  0.613628
H    -0.729781  -1.227904  3.592945
H    -0.282499  -2.912882  2.321387
C    -1.588741  -2.529249  0.626804
C    -2.694546  -3.416365  1.231065
C    -3.573966  -4.040239  0.124453
N    -4.594231  -4.913202  0.704451
C    -5.787250  -5.227405  0.142148
N    -6.686336  -5.896619  0.871456
N    -6.070061  -4.861566  -1.109872
H    -1.036800  -3.099072  -0.135131
H    -2.020400  -1.666699  0.104407
H    -3.325375  -2.837200  1.920714
H    -2.233051  -4.228590  1.815514
H    -2.938870  -4.611972  -0.573365
H    -4.083196  -3.251795  -0.448447
H    -4.325762  -5.467346  1.514381
H    -7.498122  -6.331459  0.441875
H    -6.608928  -5.976135  1.880213
H    -7.008743  -4.970837  -1.482843
H    -5.342132  -4.652777  -1.783230
N    1.671440  -2.579645  0.653952
C    2.967083  -2.310582  0.038807
H    1.524690  -3.505770  1.051171
H    2.881621  -1.437071  -0.616804
H    3.276301  -3.202569  -0.520136
H    3.733894  -2.104147  0.803532
Hg    -1.357615  3.111441  4.012867
