37
Energy: -574593.3895639  eV PBE+vdW (tier 2 basis)
C    -1.081055  -1.762564  -0.612170
C    -0.704030  -1.351183  0.776245
O    0.531867  -1.073004  0.944088
H    -0.541525  -2.685311  -0.870731
H    -0.744431  -0.990088  -1.318924
H    -2.160934  -1.915066  -0.726205
N    -1.662100  -1.305110  1.721685
C    -1.592069  -0.700922  3.063033
C    -0.960351  -1.662972  4.108637
O    0.234379  -1.417408  4.533013
H    -2.588624  -1.572854  1.393859
H    -0.871326  0.131829  3.009624
C    -2.951269  -0.062166  3.449745
C    -2.919444  0.664723  4.808599
C    -4.273267  1.216196  5.303311
N    -4.676809  2.477623  4.675784
C    -5.400783  3.449874  5.284009
N    -5.964917  3.242696  6.475899
N    -5.527493  4.636455  4.680634
H    -3.744006  -0.823722  3.448067
H    -3.189044  0.637727  2.633636
H    -2.180956  1.480441  4.796472
H    -2.586250  -0.034940  5.590630
H    -4.169682  1.410481  6.378745
H    -5.062244  0.454693  5.179444
H    -4.581612  2.572037  3.669583
H    -6.349057  4.017037  7.009675
H    -6.176539  2.312999  6.818509
H    -6.216514  5.314741  4.991811
H    -4.901510  4.931352  3.939553
N    -1.568283  -2.713516  4.626462
C    -2.935935  -3.213499  4.460253
H    -0.985057  -3.233284  5.290671
H    -2.915550  -4.293497  4.644120
H    -3.301263  -3.043867  3.444248
H    -3.612315  -2.754249  5.193710
Hg    1.555996  -0.812681  2.873277
