37
Energy: -574593.2238646  eV PBE+vdW (tier 2 basis)
C    -0.440009  -0.131403  0.317747
C    -0.256849  0.557266  1.622386
O    0.843500  1.130942  1.944643
H    -0.255711  0.599670  -0.485099
H    -1.433926  -0.570947  0.183370
H    0.320624  -0.916355  0.196674
N    -1.288262  0.637121  2.483586
C    -1.314750  1.353994  3.756843
C    -0.010532  1.190651  4.556466
O    0.606503  0.066863  4.560410
H    -2.181164  0.266227  2.158500
H    -1.391700  2.430233  3.518069
C    -2.585861  1.007563  4.580006
C    -2.738093  -0.431780  5.109741
C    -4.072522  -0.574494  5.867431
N    -4.248346  -1.921665  6.411557
C    -5.429234  -2.461395  6.803634
N    -5.463597  -3.754533  7.145959
N    -6.542274  -1.727639  6.828720
H    -3.448159  1.275025  3.947751
H    -2.617833  1.716975  5.419617
H    -1.903383  -0.676612  5.784977
H    -2.712030  -1.163321  4.288091
H    -4.913637  -0.369930  5.187580
H    -4.113480  0.169177  6.683594
H    -3.412065  -2.432570  6.682572
H    -4.709487  -4.392993  6.914698
H    -6.276308  -4.159125  7.602909
H    -7.448846  -2.160258  6.981839
H    -6.520016  -0.714999  6.854786
N    0.421750  2.207748  5.289721
C    -0.126025  3.560419  5.422321
H    1.262576  2.003808  5.835587
H    -1.008744  3.570115  6.075867
H    -0.396320  3.969106  4.438006
H    0.643291  4.200418  5.864081
Hg    2.359998  -0.065634  3.097362
