37
Energy: -574593.7156753  eV PBE+vdW (tier 2 basis)
C    -1.051537  0.402495  -0.744556
C    -1.137322  1.362994  0.397842
O    -0.958319  2.592618  0.088140
H    -0.027568  0.417819  -1.146862
H    -1.710911  0.750561  -1.553797
H    -1.332538  -0.618297  -0.461017
N    -1.386717  0.885919  1.632386
C    -1.868675  1.595492  2.841880
C    -0.683380  2.051229  3.734944
O    -0.168312  3.225243  3.604925
H    -1.442773  -0.130985  1.677072
H    -2.359418  2.525524  2.509587
C    -2.950701  0.731271  3.531142
C    -3.731147  1.435009  4.658629
C    -4.912220  0.568795  5.140327
N    -5.680502  1.256729  6.179149
C    -6.489282  0.655976  7.084286
N    -6.993784  1.381963  8.085876
N    -6.757666  -0.650647  7.000162
H    -2.507737  -0.212759  3.894705
H    -3.652901  0.438254  2.735326
H    -4.120472  2.394952  4.282540
H    -3.078495  1.665579  5.513696
H    -4.537356  -0.374591  5.563957
H    -5.559329  0.320671  4.281429
H    -5.783215  2.264295  6.095911
H    -6.621068  2.293111  8.329758
H    -7.756375  1.033540  8.658820
H    -7.234363  -1.129762  7.758395
H    -6.694749  -1.154313  6.123392
N    -0.191205  1.245750  4.651173
C    0.963952  1.543634  5.512761
H    -0.671271  0.361726  4.811480
H    1.650191  2.214097  4.987314
H    1.462806  0.600281  5.755876
H    0.627030  2.027200  6.439471
Hg    -0.399757  4.058013  1.594487
