37
Energy: -574593.1024634  eV PBE+vdW (tier 2 basis)
C    1.320012  -0.188513  0.323962
C    0.725656  0.162374  -0.995801
O    1.425101  0.511322  -2.006864
H    1.950585  -1.083554  0.216659
H    0.580022  -0.356773  1.110884
H    1.975073  0.634458  0.648575
N    -0.598122  0.091093  -1.240637
C    -1.594491  -0.723672  -0.544389
C    -2.325392  -1.516098  -1.658097
O    -2.492106  -0.959794  -2.745463
H    -0.882858  0.349810  -2.195738
H    -1.079962  -1.387273  0.158059
C    -2.637121  0.124318  0.264547
C    -3.539120  1.065373  -0.545919
C    -4.586912  1.746009  0.361255
N    -5.479538  2.609231  -0.408082
C    -6.742968  2.959311  -0.061432
N    -7.506273  3.586301  -0.963155
N    -7.223283  2.671329  1.149192
H    -2.061661  0.687198  1.014333
H    -3.249000  -0.601976  0.821701
H    -4.068505  0.513522  -1.337200
H    -2.933567  1.838116  -1.044544
H    -4.071463  2.336999  1.139126
H    -5.200731  0.987376  0.869747
H    -5.087613  3.090476  -1.214088
H    -8.379837  4.033276  -0.698378
H    -7.272671  3.597036  -1.950921
H    -8.207880  2.801760  1.363372
H    -6.613814  2.486375  1.937447
N    -2.795071  -2.767887  -1.421621
C    -2.555926  -3.660725  -0.304695
H    -3.245814  -3.177794  -2.246264
H    -1.742047  -4.370157  -0.535653
H    -3.461709  -4.261537  -0.139069
H    -2.313002  -3.113322  0.610234
Hg    3.493209  1.472393  -2.016938
