37
Energy: -574592.9538205  eV PBE+vdW (tier 2 basis)
C    0.715454  -0.433892  2.363787
C    -0.093877  0.522103  3.167059
O    0.311300  1.003825  4.284020
H    1.551846  0.118502  1.903323
H    0.161856  -0.926729  1.560203
H    1.145420  -1.197991  3.023515
N    -1.323537  0.937903  2.816979
C    -2.218250  0.457000  1.779973
C    -2.934537  1.757294  1.260476
O    -3.244810  2.606874  2.093533
H    -1.715402  1.689985  3.398733
H    -1.628770  -0.014028  0.987172
C    -3.326305  -0.547509  2.245010
C    -4.196943  -0.084662  3.424475
C    -5.588733  -0.727806  3.531191
N    -5.568110  -2.136305  3.942773
C    -6.649543  -2.957828  3.914719
N    -6.497600  -4.237453  4.276245
N    -7.837313  -2.508575  3.510628
H    -2.810049  -1.494197  2.467613
H    -3.950188  -0.745783  1.359636
H    -4.396062  0.996755  3.340280
H    -3.656597  -0.200181  4.377517
H    -6.109626  -0.662154  2.563418
H    -6.170089  -0.138374  4.261785
H    -4.808411  -2.430807  4.551480
H    -7.299029  -4.845507  4.420542
H    -5.582452  -4.662574  4.379419
H    -8.615340  -3.145675  3.364891
H    -8.058229  -1.519839  3.482286
N    -3.203511  1.885366  -0.057901
C    -2.792854  1.051471  -1.177405
H    -3.581034  2.808628  -0.292266
H    -3.512515  1.202456  -1.992344
H    -2.782165  -0.009417  -0.907691
H    -1.802111  1.348910  -1.558474
Hg    2.442313  1.576980  4.838156
