37
Energy: -574593.5593515  eV PBE+vdW (tier 2 basis)
C    -0.271268  -2.241722  0.134968
C    -0.232430  -1.115352  1.117538
O    0.683073  -0.244877  0.907739
H    0.641418  -2.845686  0.252153
H    -0.244627  -1.829868  -0.884624
H    -1.159732  -2.872992  0.250475
N    -1.128606  -1.096839  2.122839
C    -1.536647  0.024471  3.000651
C    -0.700181  0.056171  4.308409
O    0.360738  0.782207  4.398569
H    -1.742589  -1.910089  2.142897
H    -1.286470  0.962580  2.477266
C    -3.076238  0.015328  3.171599
C    -3.626326  1.260231  3.900708
C    -5.098525  1.608980  3.617397
N    -6.059252  0.696306  4.252776
C    -7.379459  0.649386  3.931119
N    -8.168026  -0.230330  4.554572
N    -7.880880  1.439015  2.978555
H    -3.406058  -0.918431  3.657771
H    -3.487397  -0.021936  2.151228
H    -3.058033  2.147062  3.580728
H    -3.464382  1.189558  4.987739
H    -5.277150  1.589124  2.532503
H    -5.264925  2.641536  3.965862
H    -5.847837  0.412958  5.206290
H    -7.791862  -0.985489  5.116139
H    -9.179523  -0.177449  4.482620
H    -8.828372  1.303513  2.638141
H    -7.426797  2.301324  2.701528
N    -1.072833  -0.646587  5.356144
C    -0.338808  -0.731014  6.628928
H    -1.962587  -1.139054  5.301612
H    -0.507879  -1.723547  7.058502
H    -0.705928  0.035400  7.324852
H    0.727712  -0.569417  6.448364
Hg    1.344687  1.110530  2.474440
