37
Energy: -574593.4583121  eV PBE+vdW (tier 2 basis)
C    0.232813  2.000585  1.367036
C    0.094410  0.528059  1.594737
O    1.039633  -0.178251  1.088133
H    0.463492  2.179060  0.306802
H    1.097018  2.368052  1.941435
H    -0.667491  2.561973  1.642572
N    -0.964974  0.085832  2.294273
C    -1.621127  -1.249758  2.467697
C    -0.929622  -2.133896  3.533802
O    0.019617  -2.967349  3.240486
H    -1.544108  0.851935  2.633133
H    -2.595158  -0.980036  2.892721
C    -1.926405  -1.972859  1.133377
C    -2.980149  -3.090083  1.270106
C    -3.400701  -3.647193  -0.104532
N    -4.401255  -4.706162  0.039115
C    -5.338841  -5.037182  -0.879756
N    -6.313724  -5.883680  -0.536408
N    -5.313390  -4.507293  -2.106878
H    -1.013270  -2.377550  0.666233
H    -2.291646  -1.195788  0.445589
H    -3.874121  -2.697826  1.778942
H    -2.584607  -3.909737  1.891195
H    -2.516526  -4.023754  -0.646672
H    -3.846190  -2.841029  -0.704756
H    -4.280052  -5.365276  0.802835
H    -6.903097  -6.322167  -1.237440
H    -6.521166  -6.099507  0.432508
H    -6.101048  -4.626157  -2.736996
H    -4.458014  -4.156124  -2.520283
N    -1.331769  -2.137247  4.789856
C    -2.448810  -1.470720  5.465853
H    -0.779363  -2.760878  5.390009
H    -3.162969  -2.225906  5.819529
H    -2.957583  -0.757477  4.813760
H    -2.049107  -0.936647  6.338544
Hg    1.425303  -2.174963  1.795443
