37
Energy: -574593.1955378  eV PBE+vdW (tier 2 basis)
C    0.048966  0.880033  0.809938
C    0.055117  0.558461  2.260977
O    0.670487  1.355939  3.047944
H    -0.591444  1.755957  0.621521
H    -0.261379  0.030472  0.193311
H    1.065405  1.189425  0.520012
N    -0.530256  -0.554529  2.767821
C    -1.893219  -1.010429  2.477876
C    -2.823237  -0.219973  3.450202
O    -2.383624  0.277733  4.542451
H    -0.247714  -0.756872  3.729779
H    -2.139631  -0.727737  1.444042
C    -2.044505  -2.540034  2.667686
C    -1.237042  -3.382663  1.662435
C    -1.432839  -4.890210  1.909220
N    -0.666139  -5.688735  0.950975
C    -0.906559  -6.983507  0.630452
N    -0.234914  -7.529891  -0.389665
N    -1.810028  -7.698098  1.303060
H    -3.113274  -2.786365  2.580487
H    -1.761707  -2.794121  3.702311
H    -0.167034  -3.134709  1.745176
H    -1.549756  -3.144066  0.634456
H    -2.495064  -5.155835  1.798836
H    -1.127849  -5.142886  2.940297
H    0.205686  -5.297418  0.603597
H    -0.247405  -8.532635  -0.554687
H    0.263398  -6.964925  -1.069640
H    -2.096402  -8.616344  0.975783
H    -2.115547  -7.438674  2.233533
N    -4.114005  -0.131061  3.159987
C    -5.123067  0.570538  3.954478
H    -4.457827  -0.652178  2.352155
H    -5.654301  -0.146462  4.599032
H    -5.846500  1.031497  3.272170
H    -4.642384  1.324068  4.583329
Hg    -0.541428  1.653960  4.931100
