37
Energy: -574592.7334586  eV PBE+vdW (tier 2 basis)
C    -0.054351  0.043656  0.247640
C    -0.123303  -0.507514  1.625621
O    0.827148  -1.136949  2.190925
H    0.018914  -0.782544  -0.476220
H    0.868060  0.635636  0.146960
H    -0.898600  0.687364  -0.014754
N    -1.245178  -0.439308  2.392226
C    -2.614401  -0.264435  1.946151
C    -3.234799  1.176940  2.243487
O    -4.072403  1.502565  1.394374
H    -1.103606  -0.791970  3.343499
H    -2.612482  -0.297340  0.852960
C    -3.603645  -1.322455  2.525678
C    -4.190451  -2.284520  1.472898
C    -5.268458  -1.721323  0.532112
N    -6.561263  -1.494727  1.185395
C    -7.412744  -0.455365  0.962559
N    -8.720118  -0.646865  1.146001
N    -6.936988  0.733811  0.586318
H    -4.416891  -0.813541  3.062135
H    -3.078160  -1.917243  3.286495
H    -4.596665  -3.155784  2.009978
H    -3.389579  -2.692710  0.838626
H    -5.431850  -2.463014  -0.270409
H    -4.957593  -0.796114  0.033952
H    -6.980752  -2.311458  1.629224
H    -9.371535  0.133310  1.175243
H    -9.130937  -1.576158  1.163273
H    -7.565064  1.461957  0.258028
H    -5.963452  0.994370  0.739043
N    -2.923171  1.897387  3.316275
C    -2.067348  1.573079  4.462099
H    -3.421243  2.787889  3.362699
H    -2.303329  2.287552  5.257976
H    -1.003134  1.682178  4.221655
H    -2.286840  0.573964  4.859286
Hg    3.106194  -0.878937  1.896999
