37
Energy: -574593.4518270  eV PBE+vdW (tier 2 basis)
 C   -2.53135   -0.78776    0.16438
 C   -2.04826   -0.73791    1.58096
 O   -1.63010   -1.85884    2.04166
 H   -3.12991   -1.69671    0.01598
 H   -1.65622   -0.87895   -0.49851
 H   -3.11968    0.09249   -0.11906
 N   -2.08215    0.44372    2.22129
 C   -1.94433    0.86105    3.64941
 C   -0.48062    0.93283    4.14531
 O    0.13832   -0.07899    4.66902
 H   -2.40230    1.19716    1.61633
 H   -2.29079    1.90128    3.62865
 C   -2.86793    0.11944    4.64839
 C   -4.35923    0.47662    4.48472
 C   -5.21649   -0.10673    5.62384
 N   -6.61608    0.30176    5.48324
 C   -7.67462   -0.30737    6.06728
 N   -8.91034    0.05569    5.71211
 N   -7.49203   -1.28065    6.96536
 H   -2.52990    0.40141    5.65776
 H   -2.73990   -0.97207    4.57900
 H   -4.74399    0.11737    3.51904
 H   -4.46281    1.57436    4.48822
 H   -4.81253    0.22737    6.59516
 H   -5.17898   -1.20603    5.60142
 H   -6.79872    1.21806    5.08387
 H   -9.71977   -0.21886    6.26044
 H   -9.09169    0.59163    4.87038
 H   -8.27710   -1.83670    7.29109
 H   -6.63704   -1.35706    7.50321
 N    0.18158    2.07394    4.15841
 C   -0.22687    3.44787    3.84930
 H    1.13389    1.98367    4.53175
 H   -0.37695    4.00869    4.78209
 H   -1.13531    3.47742    3.24314
 H    0.58832    3.92101    3.28721
Hg   -0.25311   -1.97620    3.71413
