37
Energy: -574592.9200433  eV PBE+vdW (tier 2 basis)
C    0.724121  -0.872200  1.586256
C    -0.081734  -0.260762  2.675914
O    0.274800  -0.280719  3.896901
H    1.631342  -0.263118  1.438670
H    0.204096  -0.943803  0.627360
H    1.048754  -1.875253  1.891965
N    -1.287291  0.335097  2.478513
C    -2.220785  0.238087  1.367020
C    -2.615832  1.759378  1.062439
O    -3.563996  2.225115  1.679055
H    -1.670768  0.748517  3.336445
H    -1.710400  -0.189987  0.496950
C    -3.498218  -0.559750  1.724906
C    -4.485966  -0.692993  0.550527
C    -5.949287  -1.003487  0.953920
N    -6.232416  -2.373202  1.385167
C    -7.026965  -3.270252  0.746384
N    -7.524856  -4.297574  1.443122
N    -7.299960  -3.144898  -0.552844
H    -3.984340  -0.042061  2.565512
H    -3.173165  -1.549162  2.079036
H    -4.129981  -1.440855  -0.173131
H    -4.553350  0.263669  0.011590
H    -6.610747  -0.769390  0.111430
H    -6.252824  -0.331577  1.772145
H    -5.968567  -2.626641  2.333751
H    -7.984340  -5.076409  0.979060
H    -7.583869  -4.280082  2.456476
H    -8.022320  -3.707141  -0.993261
H    -6.768766  -2.534073  -1.160838
N    -1.887157  2.460559  0.166080
C    -0.876651  2.002119  -0.779575
H    -2.272382  3.393424  -0.006496
H    -1.327950  1.541523  -1.671529
H    -0.312999  2.882127  -1.112751
H    -0.175508  1.305478  -0.311062
Hg    2.407941  -0.136288  4.785335
