37
Energy: -574593.2528672  eV PBE+vdW (tier 2 basis)
C    -0.137152  -2.664104  0.952498
C    -0.758476  -1.438581  1.544894
O    -1.124288  -0.555147  0.686714
H    -0.934651  -3.273937  0.498110
H    0.414405  -3.263141  1.686093
H    0.533683  -2.372553  0.132954
N    -0.891752  -1.374123  2.880710
C    -1.164894  -0.273608  3.858107
C    -2.659895  0.092765  4.012014
O    -3.260421  0.962227  3.255268
H    -0.582236  -2.231494  3.334707
H    -0.888451  -0.738337  4.811970
C    -0.252251  0.974779  3.730333
C    1.231837  0.651034  4.021856
C    2.096722  1.816021  4.547954
N    2.641854  2.698001  3.511505
C    3.809443  3.379064  3.620464
N    4.470785  3.425226  4.779148
N    4.308150  3.991518  2.541426
H    -0.627451  1.697925  4.471682
H    -0.365932  1.461787  2.749080
H    1.719449  0.196168  3.147788
H    1.267382  -0.108593  4.818121
H    2.954654  1.367756  5.066371
H    1.528384  2.396856  5.294282
H    2.036381  2.991338  2.752322
H    5.425001  3.771474  4.818367
H    4.013253  3.269206  5.669568
H    4.017468  3.743232  1.602873
H    5.060573  4.668671  2.621399
N    -3.382004  -0.384585  5.006441
C    -3.037069  -1.216871  6.163789
H    -4.350603  -0.042790  5.001349
H    -3.827507  -1.969046  6.282772
H    -3.008885  -0.595360  7.069200
H    -2.080891  -1.728129  6.030830
Hg    -2.661349  0.870621  1.196420
