37
Energy: -574592.6681470  eV PBE+vdW (tier 2 basis)
C    0.180647  0.684037  0.515336
C    0.149134  0.053228  1.859319
O    1.250036  0.003780  2.507162
H    0.909975  1.507949  0.551297
H    -0.791836  1.077278  0.209645
H    0.569444  -0.027866  -0.229506
N    -0.977163  -0.386837  2.488448
C    -2.003366  -1.338738  2.024956
C    -1.361334  -2.726480  2.341650
O    -0.126874  -2.886288  2.044507
H    -0.824516  -0.461094  3.497969
H    -2.866565  -1.178995  2.687135
C    -2.460676  -1.179880  0.556388
C    -3.665954  -2.067704  0.184144
C    -4.131450  -1.958234  -1.282699
N    -5.018429  -0.819339  -1.540612
C    -5.921997  -0.751576  -2.550033
N    -6.823016  0.238290  -2.546599
N    -5.925853  -1.661571  -3.524384
H    -1.624429  -1.404691  -0.120357
H    -2.713108  -0.117482  0.424434
H    -4.522560  -1.872300  0.847133
H    -3.398425  -3.125116  0.324126
H    -4.693127  -2.869746  -1.530524
H    -3.255578  -1.920121  -1.954099
H    -4.900713  0.027233  -0.992366
H    -7.400112  0.428668  -3.361348
H    -7.031624  0.773700  -1.710262
H    -6.692581  -1.710690  -4.189441
H    -5.120679  -2.243314  -3.724758
N    -2.038390  -3.713733  2.910814
C    -3.446096  -3.822860  3.286728
H    -1.466092  -4.542347  3.105112
H    -3.946181  -4.557012  2.638634
H    -3.957766  -2.861070  3.208122
H    -3.505837  -4.188235  4.320361
Hg    1.756513  -2.093906  3.193989
