37
Energy: -574592.9310760  eV PBE+vdW (tier 2 basis)
C    -0.525435  -1.557342  1.002877
C    -0.444972  -0.338735  1.854728
O    0.636115  0.074560  2.388740
H    0.005528  -1.375804  0.055762
H    -1.548258  -1.879827  0.789857
H    -0.005558  -2.384345  1.508478
N    -1.512058  0.461277  2.086399
C    -2.691057  0.638790  1.245938
C    -2.656230  2.118999  0.754844
O    -2.243156  2.970574  1.542429
H    -1.298900  1.275540  2.677113
H    -2.634601  -0.062540  0.408024
C    -4.046465  0.404357  2.005870
C    -4.267232  1.260760  3.262839
C    -5.730350  1.456210  3.693667
N    -6.344492  0.258033  4.275934
C    -7.669517  0.126927  4.543686
N    -8.116486  -1.035572  5.033596
N    -8.516822  1.126487  4.301109
H    -4.086617  -0.670049  2.236620
H    -4.840640  0.595676  1.268116
H    -3.887009  2.281154  3.090850
H    -3.679438  0.873833  4.110156
H    -6.340826  1.770141  2.832789
H    -5.750693  2.276808  4.432219
H    -5.729985  -0.383627  4.770894
H    -7.548375  -1.875859  5.027831
H    -9.061521  -1.129372  5.395483
H    -9.520790  0.990932  4.378596
H    -8.202642  2.083289  4.187109
N    -3.102092  2.442489  -0.484166
C    -3.465887  1.589148  -1.600592
H    -2.988979  3.440145  -0.691749
H    -4.258365  2.092286  -2.172779
H    -3.832563  0.614766  -1.265864
H    -2.614668  1.450929  -2.288411
Hg    2.482495  -1.138185  3.010019
