37
Energy: -574593.4777381  eV PBE+vdW (tier 2 basis)
C    -1.858085  -0.934752  -0.603408
C    -1.157163  -0.834186  0.714919
O    0.071081  -0.488817  0.654659
H    -1.416729  -1.765302  -1.174792
H    -1.671943  -0.020128  -1.183736
H    -2.938101  -1.089699  -0.496700
N    -1.847198  -1.111562  1.837702
C    -1.455706  -0.878244  3.237917
C    -0.564598  -2.020202  3.805866
O    0.698926  -1.798615  3.966593
H    -2.811379  -1.399303  1.681165
H    -0.787147  -0.001446  3.248220
C    -2.670328  -0.510615  4.125344
C    -3.161149  0.940610  3.945308
C    -4.392592  1.228286  4.831133
N    -4.932782  2.576193  4.630805
C    -5.254665  3.477865  5.590420
N    -4.651197  3.464375  6.783483
N    -6.183571  4.399717  5.326440
H    -2.369388  -0.669789  5.172225
H    -3.494749  -1.214700  3.937665
H    -3.426152  1.123804  2.891985
H    -2.355767  1.647338  4.195773
H    -4.147809  1.101804  5.892952
H    -5.191775  0.501522  4.612435
H    -5.333423  2.766758  3.715946
H    -5.002573  4.032230  7.548327
H    -3.751885  3.022895  6.925382
H    -6.292395  5.222784  5.911806
H    -6.853400  4.289306  4.572294
N    -1.006737  -3.203452  4.185241
C    -2.368109  -3.740088  4.276929
H    -0.265723  -3.819818  4.535640
H    -2.996437  -3.367372  3.463643
H    -2.816890  -3.499618  5.250000
H    -2.297421  -4.829923  4.189805
Hg    1.547957  -0.676853  2.279609
