37
Energy: -574593.2322696  eV PBE+vdW (tier 2 basis)
C    1.441411  1.089461  -0.028926
C    0.702526  2.176249  -0.729722
O    1.280708  3.156668  -1.305656
H    2.048121  0.529111  -0.755958
H    0.796741  0.396309  0.518119
H    2.137769  1.542651  0.693141
N    -0.643584  2.181486  -0.849050
C    -1.547653  1.036111  -0.802787
C    -2.336270  1.053468  -2.142489
O    -2.698919  2.139271  -2.592354
H    -1.027717  2.990671  -1.354388
H    -0.954766  0.119551  -0.702567
C    -2.557251  1.086654  0.399663
C    -3.540962  2.262721  0.434950
C    -4.547678  2.103793  1.596035
N    -5.519921  3.193220  1.617904
C    -6.769177  3.134190  2.142040
N    -7.614867  4.142605  1.904161
N    -7.155709  2.084080  2.868529
H    -1.940520  1.066513  1.310589
H    -3.104977  0.132519  0.372004
H    -4.103364  2.329237  -0.509014
H    -2.997218  3.213122  0.552367
H    -3.998803  2.071353  2.553973
H    -5.098865  1.156900  1.494660
H    -5.199658  4.114615  1.329290
H    -8.481599  4.240177  2.425806
H    -7.451238  4.818757  1.165093
H    -8.128277  1.968485  3.138853
H    -6.488010  1.473412  3.325097
N    -2.602069  -0.137501  -2.731352
C    -3.262967  -0.251372  -4.018905
H    -2.194990  -0.984007  -2.334731
H    -2.523201  -0.327189  -4.835958
H    -3.874883  0.640276  -4.193571
H    -3.861238  -1.172058  -4.030265
Hg    3.331487  4.064489  -0.821053
