37
Energy: -574593.2171963  eV PBE+vdW (tier 2 basis)
C    0.959124  0.761200  0.603868
C    0.464092  -0.410201  1.393172
O    1.356598  -1.299778  1.636672
H    0.148977  1.395257  0.225558
H    1.564031  0.397455  -0.238848
H    1.634365  1.354395  1.240028
N    -0.825174  -0.423505  1.775782
C    -1.750207  -1.479374  2.296475
C    -1.584919  -1.726393  3.818556
O    -0.769595  -2.612409  4.297311
H    -1.310983  0.430248  1.507602
H    -2.735945  -1.013810  2.177378
C    -1.765347  -2.777671  1.453841
C    -2.963459  -3.711515  1.756066
C    -4.245973  -3.486865  0.920771
N    -4.239000  -4.102661  -0.410198
C    -4.946611  -5.197802  -0.780095
N    -5.215937  -5.395080  -2.072854
N    -5.371954  -6.080336  0.129371
H    -0.832005  -3.346879  1.589083
H    -1.754722  -2.472808  0.397194
H    -3.238032  -3.641122  2.820172
H    -2.631322  -4.748786  1.615390
H    -4.455599  -2.415028  0.784470
H    -5.109050  -3.885231  1.469528
H    -3.840828  -3.568385  -1.175414
H    -5.547269  -6.293375  -2.411592
H    -5.175489  -4.642992  -2.752317
H    -6.045534  -6.798490  -0.119076
H    -4.968256  -6.141706  1.055037
N    -2.327414  -1.091276  4.704836
C    -3.446096  -0.155122  4.561263
H    -2.101929  -1.341561  5.674908
H    -3.608612  0.134741  3.520882
H    -3.217900  0.742874  5.151140
H    -4.357595  -0.613193  4.966931
Hg    1.116569  -2.721817  3.239106
