37
Energy: -574592.9444355  eV PBE+vdW (tier 2 basis)
C    -1.292003  1.193209  -0.761160
C    -0.519138  0.653630  0.389994
O    0.676240  0.972274  0.657073
H    -1.649153  2.205018  -0.509242
H    -2.146977  0.570876  -1.043109
H    -0.632473  1.297771  -1.632662
N    -1.081549  -0.193924  1.303326
C    -2.473577  -0.267563  1.664559
C    -2.868126  0.974928  2.613752
O    -2.022662  1.358480  3.406065
H    -0.419226  -0.452842  2.042550
H    -3.076471  -0.191049  0.749958
C    -2.794889  -1.541885  2.488784
C    -2.739668  -2.838528  1.656714
C    -2.834488  -4.136987  2.482813
N    -4.185892  -4.470022  2.930808
C    -4.478696  -5.353694  3.923269
N    -5.756069  -5.519573  4.279417
N    -3.510944  -6.023648  4.549291
H    -3.788806  -1.412343  2.940348
H    -2.087325  -1.586932  3.331612
H    -1.780117  -2.893257  1.122394
H    -3.515097  -2.836798  0.874517
H    -2.183210  -4.076811  3.367214
H    -2.448214  -4.949674  1.840295
H    -4.944544  -4.281729  2.278777
H    -6.041454  -6.283127  4.886472
H    -6.485550  -4.879274  3.984539
H    -3.712341  -6.576039  5.378251
H    -2.595402  -6.157756  4.135678
N    -4.102893  1.496254  2.483273
C    -5.130771  1.194060  1.492501
H    -4.249298  2.327622  3.061155
H    -4.915253  1.659132  0.518127
H    -6.074065  1.620481  1.854166
H    -5.272128  0.114569  1.373510
Hg    2.392500  1.606128  -0.789486
