37
Energy: -574592.9457625  eV PBE+vdW (tier 2 basis)
C    -1.010449  1.361276  0.319348
C    -0.582565  0.428777  1.395529
O    0.653379  0.098105  1.420971
H    -0.150755  1.989212  0.046545
H    -1.849052  1.995004  0.618968
H    -1.269280  0.785920  -0.584361
N    -1.394453  -0.032495  2.381764
C    -2.721066  -0.656669  2.247225
C    -2.455370  -2.037459  1.550467
O    -1.425899  -2.179352  0.820526
H    -0.855471  -0.436528  3.151303
H    -3.037353  -0.860108  3.281539
C    -3.837832  0.165451  1.565056
C    -4.249893  1.417584  2.364625
C    -5.468052  2.124212  1.743766
N    -5.874484  3.273982  2.554587
C    -6.695435  4.274934  2.152097
N    -6.853771  5.337072  2.950237
N    -7.318392  4.216330  0.974420
H    -4.707463  -0.503660  1.473029
H    -3.557146  0.419479  0.534037
H    -3.412050  2.127325  2.433782
H    -4.495189  1.118605  3.396738
H    -6.306467  1.409738  1.657555
H    -5.230713  2.484157  0.730653
H    -5.653562  3.248957  3.547029
H    -7.579436  6.027141  2.775923
H    -6.231016  5.522933  3.730019
H    -7.824914  5.019220  0.612151
H    -7.452243  3.342475  0.479565
N    -3.332288  -3.019327  1.726226
C    -3.209502  -4.381321  1.211292
H    -4.181385  -2.815391  2.255278
H    -2.244527  -4.506221  0.717061
H    -4.018542  -4.567417  0.488407
H    -3.323537  -5.092954  2.040478
Hg    0.899628  -2.144548  1.326733
