37
Energy: -574592.9729660  eV PBE+vdW (tier 2 basis)
C    0.287932  1.966608  -0.133243
C    0.074639  0.961415  0.938600
O    1.098639  0.560314  1.595521
H    1.141142  1.634236  -0.747439
H    0.595648  2.929332  0.302891
H    -0.588948  2.083972  -0.778311
N    -1.136141  0.423692  1.219048
C    -2.389465  1.155341  1.424987
C    -2.361862  1.612637  2.914092
O    -1.706116  0.965275  3.801108
H    -1.081570  -0.431177  1.777167
H    -2.379038  2.046165  0.780188
C    -3.592146  0.247931  1.043299
C    -4.959935  0.955338  0.995936
C    -6.044845  0.247007  0.164150
N    -6.582877  -0.964413  0.793362
C    -7.384466  -1.860356  0.159295
N    -7.796867  -2.943284  0.827934
N    -7.733561  -1.683835  -1.114647
H    -3.618787  -0.618712  1.721804
H    -3.348521  -0.143291  0.044230
H    -4.847711  1.941216  0.517348
H    -5.346704  1.149047  2.009310
H    -5.635808  -0.029985  -0.819264
H    -6.859920  0.971690  -0.005556
H    -6.641663  -0.970779  1.808655
H    -8.516200  -3.555181  0.452708
H    -7.390613  -3.214700  1.716702
H    -8.220314  -2.412738  -1.628687
H    -7.671166  -0.781579  -1.571684
N    -3.078980  2.671340  3.266984
C    -3.146211  3.252458  4.609101
H    -3.670216  3.102113  2.555775
H    -4.067679  2.926603  5.113977
H    -3.165292  4.344679  4.516476
H    -2.285350  2.925308  5.197045
Hg    0.547144  0.334451  3.762104
