37
Energy: -574593.3495438  eV PBE+vdW (tier 2 basis)
C    -0.896520  -2.293462  -0.548899
C    -0.526510  -1.720266  0.782338
O    0.721056  -1.488418  0.943377
H    -1.976514  -2.454553  -0.650074
H    -0.357884  -3.240224  -0.696627
H    -0.555899  -1.607294  -1.338961
N    -1.498689  -1.494129  1.686796
C    -1.428648  -0.691972  2.921517
C    -0.893895  -1.510694  4.129412
O    0.307777  -1.285825  4.548098
H    -2.431767  -1.751833  1.369696
H    -0.651661  0.075033  2.766626
C    -2.741835  0.103332  3.139821
C    -2.693044  1.048208  4.358440
C    -3.699035  2.220487  4.314853
N    -5.100601  1.885897  4.598946
C    -5.845286  2.410963  5.605615
N    -7.171293  2.485627  5.464766
N    -5.273543  2.830341  6.737606
H    -3.602294  -0.577718  3.199399
H    -2.871669  0.698146  2.221784
H    -1.698823  1.520013  4.409176
H    -2.816611  0.485835  5.296360
H    -3.659030  2.709449  3.329331
H    -3.380942  2.983554  5.035224
H    -5.644304  1.506210  3.829622
H    -7.776536  2.674012  6.258505
H    -7.617239  2.462895  4.553791
H    -5.794826  3.381499  7.412558
H    -4.331722  2.567889  6.998151
N    -1.593110  -2.412097  4.791267
C    -2.990256  -2.831333  4.649213
H    -1.069619  -2.857942  5.551664
H    -3.652586  -2.197590  5.253800
H    -3.064845  -3.859211  5.020941
H    -3.302814  -2.821384  3.601851
Hg    1.683013  -1.012445  2.851015
