37
Energy: -574593.0502077  eV PBE+vdW (tier 2 basis)
C    -0.135367  1.096844  -0.648312
C    -0.107280  0.624974  0.763103
O    0.981365  0.308664  1.365339
H    0.331814  2.095073  -0.693695
H    -1.137513  1.179710  -1.076530
H    0.462264  0.419140  -1.272712
N    -1.212101  0.451407  1.508562
C    -2.605416  0.438799  1.082479
C    -3.429104  0.829784  2.355053
O    -3.120471  0.308778  3.434076
H    -1.053390  0.174199  2.484077
H    -2.738212  1.189623  0.294104
C    -3.115527  -0.931423  0.540520
C    -3.198197  -2.122450  1.509250
C    -4.610851  -2.314891  2.135173
N    -4.682544  -3.426529  3.071171
C    -4.551750  -3.357917  4.419560
N    -4.822555  -4.450944  5.140849
N    -4.163919  -2.226391  5.009242
H    -2.431290  -1.188697  -0.283835
H    -4.087876  -0.749253  0.058187
H    -2.433080  -2.062543  2.296688
H    -2.972179  -3.037152  0.942764
H    -5.332913  -2.525925  1.334716
H    -4.958904  -1.408336  2.647267
H    -4.866096  -4.348207  2.679581
H    -4.660219  -4.481943  6.143747
H    -5.276539  -5.264833  4.735965
H    -4.173234  -2.142010  6.020889
H    -3.819971  -1.423900  4.485854
N    -4.449389  1.677872  2.162920
C    -5.246317  2.254121  3.244847
H    -4.580972  2.074999  1.233979
H    -6.283543  2.353009  2.900833
H    -5.184770  1.608909  4.125738
H    -4.873829  3.254998  3.509924
Hg    3.031424  1.180737  0.974006
