19
Energy: -33553.6569476 eV PBE+vdW (tier 2 basis)
N    0.407467  -0.175235  0.009836
C    0.180818  -0.084107  1.463383
C    1.587642  -0.148086  2.100644
O    1.798549  -0.249623  3.326403
H    0.181086  -1.098021  -0.362187
H    -0.120107  0.518835  -0.515959
H    -0.161541  0.940160  1.687301
C    -0.879157  -1.035004  2.058848
C    -0.619461  -2.558210  1.956347
C    0.522082  -2.930771  2.869247
O    0.339369  -2.920048  4.137816
O    1.704896  -3.060994  2.387413
H    -1.825310  -0.809257  1.548481
H    -1.028743  -0.773711  3.115123
H    -0.392717  -2.879150  0.931351
H    -1.528923  -3.076978  2.283858
O    2.554869  -0.053395  1.239025
H    2.019347  -0.030484  0.345262
Ca    2.390163  -2.160547  4.289039
