19
Energy: -33553.5167885 eV PBE+vdW (tier 2 basis)
N    0.056789  -0.252687  -0.045827
C    0.025397  0.044990  1.443409
C    1.369478  -0.525972  1.947618
O    1.922666  -1.413733  1.228695
H    0.780228  -1.032125  -0.080621
H    0.390448  0.537498  -0.608292
H    -0.001603  1.129868  1.594658
C    -1.229545  -0.644037  2.047082
C    -1.232954  -0.902705  3.563801
C    -0.206244  -1.959568  3.952685
O    0.450361  -1.866426  5.035181
O    0.119490  -2.832088  3.065620
H    -1.346376  -1.621497  1.554777
H    -2.098772  -0.023181  1.785366
H    -2.234225  -1.261380  3.844754
H    -1.040554  0.001914  4.152522
O    1.771898  -0.163894  3.086066
H    -0.849197  -0.564987  -0.412318
Ca    2.197716  -2.326992  3.665825
