19
Energy: -33553.6476124 eV PBE+vdW (tier 2 basis)
N    1.423666  -1.395409  1.575388
C    0.455492  -0.261550  1.570705
C    1.156158  0.923339  2.231928
O    2.254646  0.834374  2.786743
H    0.900840  -2.272296  1.514594
H    2.004776  -1.342895  0.735582
H    0.242407  0.058619  0.537765
C    -0.931999  -0.635757  2.179178
C    -1.112804  -0.722905  3.720012
C    0.146379  -1.236303  4.379321
O    0.880457  -0.399187  5.014254
O    0.595547  -2.398394  4.090522
H    -1.198692  -1.599634  1.723271
H    -1.657820  0.092010  1.796332
H    -1.956216  -1.394247  3.924688
H    -1.346342  0.261758  4.138711
O    0.478630  2.054650  2.129325
H    0.970292  2.768766  2.585918
Ca    2.537583  -1.276939  3.841761
