19
Energy: -33553.2117544 eV PBE+vdW (tier 2 basis)
N    -0.007996  -0.015019  -0.214162
C    -0.097496  -0.105544  1.283051
C    1.331289  0.000552  1.839411
O    2.284616  0.285116  1.143163
H    0.204492  -0.966143  -0.541772
H    0.878978  0.487813  -0.384459
H    -0.618793  0.797202  1.644039
C    -0.870230  -1.350186  1.763401
C    -2.417377  -1.198840  1.786370
C    -2.838467  -0.540030  0.505830
O    -2.987644  0.738651  0.481893
O    -2.808649  -1.196963  -0.597776
H    -0.542998  -1.592139  2.780627
H    -0.593470  -2.206705  1.129749
H    -2.727678  -0.576188  2.632952
H    -2.872445  -2.191781  1.879596
O    1.378292  -0.195528  3.165526
H    2.302343  -0.060461  3.458195
Ca    -2.038220  0.647239  -1.464012
