19
Energy: -33552.1958226 eV PBE+vdW (tier 2 basis)
N    -0.350463  0.281185  0.156865
C    -0.016726  -0.104270  1.532476
C    1.500866  -0.220108  1.722759
O    2.132489  -1.260130  1.745715
H    0.083892  -0.355146  -0.514125
H    -0.011385  1.220210  -0.051912
H    -0.379240  0.700285  2.190785
C    -0.724614  -1.419242  1.868409
C    -0.517169  -1.861340  3.316055
C    -1.107557  -3.185541  3.668877
O    -1.209571  -3.541138  4.912529
O    -1.499814  -4.020392  2.762406
H    -0.356786  -2.203632  1.192518
H    -1.791898  -1.279249  1.652430
H    -0.890421  -1.130367  4.049687
H    0.562475  -1.965194  3.531524
O    2.080119  1.003335  1.803150
H    3.046844  0.862303  1.843979
Ca    -1.979911  -5.422704  4.294874
