19
Energy: -33553.2937132 eV PBE+vdW (tier 2 basis)
N    0.301157  0.120649  -0.111390
C    -0.154254  0.248530  1.261216
C    0.948766  0.867168  2.104176
O    0.760339  1.605269  3.091414
H    -0.486299  -0.031390  -0.739204
H    0.961002  -0.646776  -0.237114
H    -0.974473  0.981409  1.269396
C    -0.667137  -1.063694  1.977385
C    -2.033246  -0.929511  2.693144
C    -1.949302  0.180573  3.703471
O    -1.287177  0.008747  4.790079
O    -2.370898  1.354980  3.388663
H    0.080683  -1.444904  2.687525
H    -0.764429  -1.821965  1.189889
H    -2.263353  -1.875476  3.199066
H    -2.827760  -0.703215  1.972027
O    2.168729  0.527784  1.735859
H    2.822025  0.944974  2.334162
Ca    -0.769545  2.124970  4.653378
