19
Energy: -33553.2426282 eV PBE+vdW (tier 2 basis)
N    0.062414  0.130048  0.147641
C    -0.073611  0.011746  1.585831
C    1.313804  -0.084084  2.232827
O    2.272230  -0.698530  1.749756
H    0.136842  -0.772681  -0.321922
H    -0.713017  0.648634  -0.257390
H    -0.499815  0.962087  1.944140
C    -1.000385  -1.127218  2.161995
C    -1.041539  -2.453828  1.367008
C    0.341740  -3.002706  1.127463
O    1.040661  -3.443087  2.105029
O    0.876535  -2.869068  -0.036775
H    -2.023500  -0.729420  2.180749
H    -0.726651  -1.336713  3.206930
H    -1.539699  -2.314159  0.401013
H    -1.622767  -3.177907  1.952879
O    1.505743  0.496773  3.409880
H    0.717414  0.996645  3.694149
Ca    2.800600  -2.710530  0.999795
