19
Energy: -33553.6745091 eV PBE+vdW (tier 2 basis)
N    0.361166  -0.370914  0.218973
C    0.008927  -0.228371  1.680371
C    1.421299  -0.404055  2.358330
O    1.517516  -0.257150  3.613502
H    0.209318  0.480081  -0.327563
H    -0.119343  -1.150808  -0.238048
H    -0.336492  0.799411  1.854347
C    -1.075382  -1.244707  2.113670
C    -2.116803  -0.702434  3.119522
C    -1.424529  -0.299465  4.399731
O    -1.114680  0.929382  4.586308
O    -0.996778  -1.213161  5.187571
H    -0.602680  -2.145833  2.527919
H    -1.633089  -1.562576  1.220093
H    -2.837261  -1.502182  3.331095
H    -2.651102  0.159246  2.701055
O    2.348901  -0.668441  1.566167
H    1.451516  -0.583283  0.367720
Ca    0.710494  0.128262  5.564239
