19
Energy: -33553.6141226 eV PBE+vdW (tier 2 basis)
N    0.910483  -0.913922  0.255835
C    0.365297  -0.204217  1.473748
C    1.452209  -0.281418  2.560973
O    1.124801  -0.076522  3.765739
H    1.918106  -0.722355  0.168085
H    0.800033  -1.982090  0.470735
H    0.204842  0.851164  1.212521
C    -0.968901  -0.852165  1.902017
C    -0.877499  -2.153074  2.747532
C    0.406693  -2.949297  2.509389
O    1.136522  -3.207296  3.549822
O    0.750413  -3.245724  1.343214
H    -1.556831  -1.024085  0.988847
H    -1.526773  -0.107271  2.480703
H    -1.727914  -2.800868  2.494167
H    -0.955819  -1.913473  3.811805
O    2.611284  -0.701875  2.225874
H    0.416510  -0.651346  -0.601604
Ca    2.549545  -1.800166  4.235597
