19
Energy: -33553.2646349 eV PBE+vdW (tier 2 basis)
N    0.355550  -0.104580  -0.095164
C    -0.132978  0.239673  1.227510
C    0.984879  0.816730  2.081953
O    0.791344  1.473465  3.126506
H    0.646951  0.713266  -0.630385
H    -0.372304  -0.576616  -0.629652
H    -0.923063  1.017799  1.250121
C    -0.708328  -1.046885  1.918947
C    -2.095619  -0.873010  2.576452
C    -1.994625  0.172038  3.652865
O    -1.368437  -0.098205  4.741366
O    -2.352560  1.381550  3.403309
H    -0.000594  -1.443960  2.658748
H    -0.780820  -1.810841  1.134752
H    -2.394070  -1.831272  3.020012
H    -2.845816  -0.567560  1.837414
O    2.206525  0.580261  1.649261
H    2.849671  0.977585  2.272653
Ca    -0.713708  1.978562  4.716332
