19
Energy: -33553.0816633 eV PBE+vdW (tier 2 basis)
N    0.629182  -1.807487  0.123153
C    -0.037962  -0.787903  1.013246
C    0.882288  0.399099  1.352425
O    0.683960  1.169836  2.256492
H    1.246869  -1.277386  -0.503162
H    1.280852  -2.331509  0.719966
H    -0.858290  -0.342320  0.425210
C    -0.618551  -1.404010  2.299575
C    -2.045229  -2.000002  2.170772
C    -2.060394  -2.872706  0.952933
O    -2.466586  -2.383231  -0.166882
O    -1.443657  -4.001194  0.964397
H    -0.645297  -0.611778  3.056981
H    0.070303  -2.178284  2.670764
H    -2.788097  -1.201936  2.060962
H    -2.269674  -2.585330  3.070094
O    1.911336  0.506686  0.466770
H    2.417477  1.309008  0.705312
Ca    -0.821829  -3.480309  -1.045086
