19
Energy: -33552.2000253 eV PBE+vdW (tier 2 basis)
N    -0.375717  0.414000  -0.036453
C    -0.094532  0.081100  1.368930
C    1.371873  -0.319932  1.548136
O    1.817330  -1.446165  1.409539
H    0.073983  -0.244347  -0.674380
H    -0.013476  1.338989  -0.266076
H    -0.262097  0.993525  1.955319
C    -1.058124  -0.993899  1.897293
C    -1.068965  -2.277327  1.064430
C    -1.867452  -3.399813  1.624346
O    -2.156993  -4.425600  0.882005
O    -2.266063  -3.411483  2.856838
H    -2.063754  -0.551487  1.906919
H    -0.795836  -1.228012  2.938251
H    -0.036239  -2.664355  0.965926
H    -1.419823  -2.108866  0.035683
O    2.151632  0.753907  1.814907
H    3.077788  0.439342  1.840658
Ca    -3.114289  -5.340760  2.537055
