19
Energy: -33553.4537301 eV PBE+vdW (tier 2 basis)
N    0.681744  -0.538296  0.149827
C    0.184827  -0.205197  1.506839
C    1.419502  -0.159059  2.426167
O    2.551814  -0.436697  2.026587
H    -0.084876  -0.887342  -0.429460
H    1.015600  0.313262  -0.307587
H    -0.224786  0.820971  1.533517
C    -0.962065  -1.148368  2.002633
C    -1.002363  -2.591087  1.436012
C    0.394633  -3.148074  1.275728
O    1.219610  -2.967179  2.239240
O    0.804671  -3.553563  0.137072
H    -1.917768  -0.665768  1.762720
H    -0.908850  -1.200290  3.098336
H    -1.516798  -2.635971  0.468971
H    -1.576280  -3.216509  2.133360
O    1.271072  0.267078  3.670173
H    0.341707  0.479629  3.879312
Ca    2.576366  -2.267845  0.617947
