19
Energy: -33553.3441963 eV PBE+vdW (tier 2 basis)
N    0.002315  -1.928212  2.033856
C    -0.359049  -0.656553  1.436798
C    0.743715  0.373257  1.690969
O    1.417932  0.489164  2.728458
H    -0.402893  -2.079292  2.956223
H    -0.237733  -2.708177  1.429031
H    -0.354673  -0.778018  0.345536
C    -1.759081  -0.033085  1.792943
C    -2.302774  -0.286753  3.221216
C    -1.274847  0.036536  4.272774
O    -0.913532  1.245445  4.485016
O    -0.632232  -0.931290  4.834124
H    -2.487017  -0.461040  1.091866
H    -1.735260  1.047461  1.593963
H    -2.611590  -1.331327  3.341553
H    -3.184861  0.351143  3.362789
O    0.931600  1.184904  0.662678
H    1.622199  1.844208  0.882357
Ca    1.079780  0.412627  4.932852
