19
Energy: -33553.3372696 eV PBE+vdW (tier 2 basis)
N    -0.537101  0.576738  0.436005
C    0.023857  0.171347  1.704864
C    1.533817  0.369190  1.867853
O    2.113773  0.564737  2.955782
H    -0.171316  0.039122  -0.349329
H    -0.399268  1.566835  0.239007
H    -0.428403  0.795415  2.491673
C    -0.327207  -1.326918  2.000816
C    -1.010794  -1.575580  3.365812
C    -0.107657  -1.071026  4.456023
O    -0.300811  0.102402  4.947648
O    0.962731  -1.718116  4.750333
H    0.561596  -1.967823  1.917419
H    -1.023106  -1.629719  1.208202
H    -1.174076  -2.653588  3.487697
H    -1.973630  -1.053908  3.414849
O    2.219427  0.322360  0.737796
H    3.173085  0.436802  0.928927
Ca    1.865082  0.220731  5.168623
