19
Energy: -33553.2688592 eV PBE+vdW (tier 2 basis)
N    -0.544237  0.308605  0.434245
C    0.004904  -0.070400  1.710355
C    1.546323  -0.084339  1.804196
O    2.309652  -0.403677  0.881050
H    -0.310548  1.261442  0.164853
H    -0.301482  -0.331561  -0.321587
H    -0.320166  0.689507  2.442130
C    -0.576074  -1.430757  2.221406
C    -0.776320  -2.541547  1.163310
C    0.495206  -2.826405  0.409362
O    0.624661  -2.397926  -0.797894
O    1.501313  -3.341896  1.014770
H    -1.564003  -1.207964  2.643400
H    0.046631  -1.813954  3.042542
H    -1.561609  -2.261029  0.453286
H    -1.092769  -3.450633  1.691667
O    2.111452  0.273895  2.950801
H    1.439566  0.539962  3.607648
Ca    2.760499  -2.189325  -0.360543
