19
Energy: -33553.4293603 eV PBE+vdW (tier 2 basis)
N    0.670379  -0.127630  -0.200306
C    0.229470  -0.098207  1.220704
C    1.487978  -0.299331  2.078957
O    2.555980  -0.662577  1.591935
H    -0.124281  -0.388015  -0.789025
H    0.954611  0.812897  -0.483414
H    -0.166230  0.901328  1.471711
C    -0.933408  -1.099875  1.519531
C    -0.632869  -2.610080  1.706412
C    0.441414  -3.073101  0.744770
O    0.292529  -2.883766  -0.511047
O    1.581902  -3.403082  1.220693
H    -1.651404  -0.966059  0.698177
H    -1.455734  -0.747442  2.420020
H    -1.565960  -3.162349  1.534266
H    -0.295606  -2.823377  2.726942
O    1.419699  -0.063868  3.381971
H    0.536488  0.249066  3.654021
Ca    2.379041  -2.022533  -0.313317
