19
Energy: -33552.5990472 eV PBE+vdW (tier 2 basis)
N    0.059767  -0.044061  0.029963
C    0.104216  -0.027470  1.480029
C    1.561485  0.125813  1.865856
O    2.522282  -0.324001  1.324207
H    -0.900991  -0.023515  -0.307448
H    0.528000  -0.861349  -0.361749
H    -0.432405  0.873773  1.810124
C    -0.495775  -1.273249  2.244661
C    -1.673747  -0.931285  3.191238
C    -1.173794  0.073276  4.185612
O    -0.395718  -0.292780  5.140178
O    -1.348518  1.332430  3.959921
H    0.278186  -1.803346  2.817721
H    -0.851396  -1.974429  1.479362
H    -1.997628  -1.842770  3.708079
H    -2.517383  -0.507848  2.633254
O    1.785518  0.905363  3.079043
H    2.764666  0.879790  3.136346
Ca    0.533781  1.658078  4.964917
