19
Energy: -33553.3451168 eV PBE+vdW (tier 2 basis)
N    -0.434557  -0.062264  0.508792
C    0.032643  -0.189089  1.880663
C    1.555757  -0.010296  1.941193
O    2.433765  -0.794337  1.525692
H    -0.315114  0.873124  0.126463
H    -0.047150  -0.763023  -0.123973
H    -0.360238  0.671918  2.436234
C    -0.509964  -1.459925  2.587690
C    -0.730824  -2.725550  1.723443
C    0.568365  -3.193651  1.138283
O    1.443543  -3.756635  1.889509
O    0.880992  -2.866817  -0.069259
H    -1.491659  -1.186546  2.994987
H    0.128671  -1.705922  3.447894
H    -1.448614  -2.522108  0.921426
H    -1.137206  -3.508886  2.375382
O    1.900514  1.175818  2.427096
H    2.873807  1.281367  2.381850
Ca    2.941271  -2.788178  0.648634
