19
Energy: -33553.2263504 eV PBE+vdW (tier 2 basis)
N    1.232011  -0.930532  0.638129
C    0.043465  -0.220683  1.118218
C    0.549185  1.061279  1.772987
O    0.871046  1.222599  2.969636
H    1.872188  -1.190847  1.387915
H    1.738987  -0.429968  -0.089884
H    -0.534393  0.090440  0.236513
C    -0.796740  -1.182967  1.966968
C    -2.147265  -0.659827  2.511694
C    -1.887892  0.244631  3.684341
O    -1.353938  -0.254185  4.744553
O    -2.001131  1.518009  3.569530
H    -0.198149  -1.568613  2.805238
H    -0.989395  -2.038395  1.306857
H    -2.731904  -1.523095  2.854843
H    -2.722201  -0.128094  1.744289
O    0.747277  2.025699  0.879174
H    1.199701  2.782834  1.302829
Ca    -0.249853  1.598714  4.891169
