19
Energy: -33552.5934129 eV PBE+vdW (tier 2 basis)
N    0.154043  -0.643193  0.218581
C    -0.091188  -0.325722  1.598416
C    1.112745  -0.181869  2.559237
O    1.197754  0.571922  3.479570
H    0.718543  0.046342  -0.269221
H    0.499420  -1.583498  0.041204
H    -0.472025  0.706956  1.636703
C    -1.220472  -1.190573  2.235032
C    -1.244813  -2.691112  1.855960
C    0.100316  -3.315848  2.063637
O    0.588058  -3.446932  3.244336
O    0.846815  -3.575274  1.039993
H    -2.172319  -0.764030  1.895711
H    -1.186464  -1.078193  3.326342
H    -1.541434  -2.823601  0.810045
H    -1.980993  -3.191741  2.498556
O    2.316460  -0.971640  2.245407
H    2.987202  -0.481395  2.766417
Ca    2.554353  -3.333599  2.333075
