19
Energy: -33553.1863481 eV PBE+vdW (tier 2 basis)
N    -0.591084  1.237285  0.899317
C    -0.061355  0.393678  1.952747
C    1.448652  0.170385  1.853993
O    2.250178  0.378892  2.789705
H    -0.482450  0.835754  -0.031173
H    -0.204735  2.179347  0.904557
H    -0.203439  0.918035  2.906754
C    -0.885352  -0.919885  2.006976
C    -0.370839  -2.086787  2.886045
C    0.437056  -1.650317  4.080939
O    0.070562  -0.635320  4.781013
O    1.584443  -2.186229  4.297293
H    -0.991607  -1.300496  0.981426
H    -1.883864  -0.601916  2.328765
H    0.252213  -2.781856  2.311664
H    -1.236702  -2.662310  3.245187
O    1.876641  -0.226701  0.666485
H    2.851467  -0.318503  0.680610
Ca    2.209215  -0.215056  4.981697
