19
Energy: -33553.1897289 eV PBE+vdW (tier 2 basis)
N    -0.812578  0.343371  0.183284
C    -0.440793  -0.008409  1.554420
C    0.991936  0.473168  1.783818
O    2.008219  -0.149441  1.426102
H    -0.216733  -0.110888  -0.509228
H    -0.827284  1.346460  0.003731
H    -1.103344  0.553660  2.234004
C    -0.677638  -1.510901  1.770574
C    -0.440670  -2.061294  3.197795
C    1.036373  -2.070994  3.489099
O    1.565656  -1.111276  4.161565
O    1.788462  -2.926058  2.896839
H    -0.068483  -2.084159  1.056181
H    -1.726537  -1.680237  1.494908
H    -0.819463  -3.090171  3.232755
H    -0.967331  -1.464267  3.952380
O    1.179451  1.685276  2.302789
H    0.335471  2.075240  2.600026
Ca    3.294286  -1.352079  2.814957
