19
Energy: -33552.2321744 eV PBE+vdW (tier 2 basis)
N    -0.826817  0.484487  1.376231
C    0.542372  0.062769  1.640649
C    1.493993  0.331357  0.469169
O    1.143754  0.453694  -0.682962
H    -0.906616  1.499327  1.433251
H    -1.078749  0.237967  0.415209
H    0.920667  0.609593  2.515616
C    0.576958  -1.454759  1.952198
C    -0.419792  -1.848411  3.044215
C    0.008980  -1.630302  4.452127
O    0.994192  -0.846360  4.760721
O    -0.625466  -2.217267  5.420708
H    1.599811  -1.759425  2.208449
H    0.300705  -1.999954  1.037576
H    -0.756439  -2.890644  2.962905
H    -1.329404  -1.228125  2.900461
O    2.789635  0.386222  0.876267
H    3.331411  0.524217  0.073492
Ca    0.646597  -1.264001  6.823988
