19
Energy: -33553.161006 eV PBE+vdW (tier 2 basis)
N    -0.033195  0.378957  0.291076
C    -0.275454  -0.138954  1.630989
C    0.956665  0.190869  2.465652
O    0.926555  0.808055  3.548372
H    -0.908059  0.581333  -0.188310
H    0.509441  -0.264114  -0.285106
H    -1.081848  0.457526  2.073015
C    -0.697266  -1.637186  1.697207
C    -0.769453  -2.346517  3.078628
C    -0.987041  -1.413263  4.241770
O    -0.188536  -1.459787  5.246296
O    -1.854317  -0.465838  4.165367
H    -0.008738  -2.214070  1.064084
H    -1.679002  -1.669779  1.207484
H    0.145515  -2.912619  3.284914
H    -1.595577  -3.072245  3.060704
O    2.094107  -0.229415  1.946450
H    2.841965  0.046007  2.515831
Ca    -0.434003  0.702941  5.357512
