31
Energy: -16702.7176293 eV PBE+vdW (tier 2 basis)
C    -0.498473  -0.696956  0.046410
C    -0.625653  0.351595  1.139498
O    -0.347175  1.530067  0.948815
H    0.568309  -0.901040  -0.117282
H    -0.900181  -0.285571  -0.886151
H    -1.003908  -1.643988  0.273819
N    -1.093676  -0.125373  2.343597
C    -1.117895  0.618596  3.610527
C    -1.724517  2.037731  3.451083
O    -1.306681  3.005564  4.076923
H    -1.214572  -1.129195  2.417199
H    -1.855295  0.082589  4.233033
C    0.224784  0.544337  4.385561
C    0.020561  0.878208  5.878072
C    1.369592  1.338616  3.745520
C    1.175729  0.431667  6.775825
H    0.497315  -0.527869  4.339667
H    -0.906017  0.389056  6.224352
H    -0.148797  1.958172  5.982069
H    1.535300  1.047472  2.701975
H    2.306781  1.160183  4.288791
H    1.156414  2.413488  3.762072
H    0.948675  0.630140  7.831886
H    2.108571  0.961359  6.540816
H    1.372066  -0.646695  6.675939
N    -2.846215  2.083002  2.672812
C    -3.460130  3.350103  2.320829
H    -3.005235  1.293619  2.057229
H    -4.516290  3.191906  2.072586
H    -2.954148  3.827417  1.466911
H    -3.388579  4.023641  3.181003
