31
Energy: -16702.7837353 eV PBE+vdW (tier 2 basis)
C    0.160468  -0.437240  1.366620
C    -0.092607  -0.758239  2.831776
O    0.787716  -1.219635  3.554519
H    1.184423  -0.738450  1.131367
H    0.055480  0.639772  1.170804
H    -0.531286  -0.967531  0.697964
N    -1.342245  -0.491366  3.326111
C    -2.511472  0.009270  2.623554
C    -3.280492  0.872864  3.636488
O    -3.460059  0.497315  4.793719
H    -1.473215  -0.677786  4.319105
H    -2.173777  0.652470  1.796525
C    -3.370844  -1.134451  1.988790
C    -4.534796  -0.606723  1.117220
C    -3.802292  -2.202272  2.998129
C    -5.855352  -0.288277  1.827357
H    -2.666615  -1.619395  1.291745
H    -4.736931  -1.364488  0.344353
H    -4.188458  0.282524  0.561824
H    -2.929633  -2.653783  3.485834
H    -4.347840  -3.007108  2.486157
H    -4.448672  -1.796854  3.785949
H    -6.310271  -1.191470  2.253594
H    -6.576937  0.134105  1.115110
H    -5.737229  0.433255  2.644687
N    -3.725682  2.069058  3.157674
C    -4.534822  2.977879  3.947834
H    -3.555254  2.286685  2.183675
H    -4.132296  3.997701  3.899359
H    -4.507248  2.628390  4.985096
H    -5.581016  2.989829  3.606735
