31
Energy: -16702.6539647 eV PBE+vdW (tier 2 basis)
C    0.445322  1.390611  0.533185
C    0.431546  0.315950  1.600433
O    1.442727  -0.031490  2.208746
H    1.483002  1.688813  0.364608
H    -0.138504  2.269341  0.840821
H    0.007772  1.033591  -0.409520
N    -0.776289  -0.281984  1.870227
C    -2.092808  0.058575  1.349640
C    -2.602127  1.446951  1.811347
O    -3.076892  2.221980  0.981372
H    -0.716265  -0.999442  2.587012
H    -2.030319  0.188168  0.258208
C    -3.095407  -1.100977  1.623611
C    -2.983081  -2.226314  0.573175
C    -4.548481  -0.614594  1.696767
C    -1.636337  -2.940989  0.444886
H    -2.835165  -1.529370  2.609596
H    -3.273496  -1.806942  -0.404564
H    -3.756311  -2.971767  0.817401
H    -5.219595  -1.465295  1.873105
H    -4.854978  -0.130483  0.759537
H    -4.705767  0.108822  2.506961
H    -1.308170  -3.363246  1.406101
H    -0.838243  -2.278374  0.088447
H    -1.715703  -3.773876  -0.266576
N    -2.498885  1.803944  3.126043
C    -2.048529  1.032801  4.275183
H    -2.829455  2.748689  3.295160
H    -2.488845  0.027328  4.287983
H    -2.389244  1.543903  5.182538
H    -0.954157  0.941496  4.320851
