31
Energy: -16703.0475643 eV PBE+vdW (tier 2 basis)
C    -1.723763  -4.321781  0.025983
C    -1.205357  -3.302167  1.018289
O    -0.121575  -2.726195  0.853326
H    -1.830444  -3.835207  -0.951736
H    -2.686463  -4.764377  0.309473
H    -0.979571  -5.119807  -0.085943
N    -1.999521  -3.062521  2.095445
C    -1.715126  -2.045849  3.109153
C    -0.728901  -2.564835  4.198548
O    -1.030759  -2.644069  5.389111
H    -2.839964  -3.616058  2.213513
H    -1.185681  -1.238136  2.578252
C    -3.013868  -1.478971  3.710893
C    -3.966673  -2.573848  4.238158
C    -3.703193  -0.538804  2.714201
C    -4.986293  -2.054881  5.254100
H    -2.688534  -0.894318  4.585096
H    -3.372218  -3.364283  4.717542
H    -4.511807  -3.034122  3.393668
H    -3.046605  0.295937  2.432915
H    -4.619535  -0.108212  3.137704
H    -3.982385  -1.067903  1.790747
H    -5.645086  -2.862607  5.599543
H    -5.627124  -1.266222  4.836295
H    -4.474690  -1.642654  6.134637
N    0.489999  -2.883265  3.691224
C    1.564258  -3.413500  4.505833
H    0.615742  -2.772744  2.680309
H    2.466778  -2.793165  4.416322
H    1.817797  -4.443409  4.214374
H    1.232209  -3.412055  5.549437
