31
Energy: -16702.6396056 eV PBE+vdW (tier 2 basis)
C    -0.883103  -0.326696  0.652038
C    -0.177958  -0.761803  1.924836
O    0.756654  -1.561088  1.907268
H    -0.398906  -0.838090  -0.183687
H    -0.811244  0.758527  0.492416
H    -1.949051  -0.588375  0.663534
N    -0.597415  -0.214484  3.111627
C    -1.691107  0.704839  3.373369
C    -1.262545  1.997193  4.122886
O    -2.045498  2.571427  4.877324
H    -0.093962  -0.586699  3.912795
H    -2.047100  1.066181  2.395893
C    -2.899261  0.020303  4.074267
C    -2.503018  -0.904320  5.241972
C    -3.732408  -0.763219  3.054757
C    -1.715723  -0.273618  6.393483
H    -3.505830  0.844406  4.476409
H    -1.950096  -1.770430  4.840550
H    -3.437918  -1.323886  5.644779
H    -4.612206  -1.211498  3.535659
H    -3.154581  -1.585705  2.606590
H    -4.093647  -0.116261  2.242533
H    -2.242925  0.590712  6.815956
H    -0.720559  0.083093  6.087897
H    -1.557739  -1.007709  7.194849
N    -0.008080  2.510255  3.920119
C    0.982519  2.243327  2.882307
H    0.111818  3.371002  4.445514
H    1.681642  3.087053  2.866797
H    0.529532  2.176098  1.884105
H    1.556384  1.327044  3.065984
