31
Energy: -16702.7390922 eV PBE+vdW (tier 2 basis)
C    0.388246  -0.622572  0.147966
C    0.303295  -0.472359  1.656678
O    1.300496  -0.474481  2.373289
H    1.062549  0.147465  -0.245668
H    -0.579925  -0.545640  -0.362677
H    0.835294  -1.598047  -0.081707
N    -0.964342  -0.328507  2.160272
C    -1.230221  -0.312198  3.601571
C    -2.638350  -0.871469  3.856315
O    -2.825167  -1.856576  4.563482
H    -1.749459  -0.456280  1.532933
H    -0.551456  -1.038548  4.068543
C    -0.897524  1.071705  4.242852
C    -0.976992  1.042668  5.784680
C    -1.628684  2.266062  3.621243
C    -2.368647  1.107774  6.423724
H    0.168862  1.191785  3.997244
H    -0.380685  1.890719  6.156906
H    -0.458820  0.137550  6.137985
H    -1.538687  2.261765  2.525716
H    -1.183881  3.205566  3.976813
H    -2.695059  2.308581  3.887109
H    -2.907104  2.025067  6.148118
H    -2.278484  1.106149  7.518201
H    -2.995878  0.248980  6.154497
N    -3.662522  -0.230039  3.206632
C    -5.047277  -0.613747  3.426180
H    -3.481888  0.694215  2.830885
H    -5.662181  -0.254937  2.593174
H    -5.444745  -0.207442  4.369498
H    -5.107766  -1.705698  3.479384
