31
Energy: -16702.6117311 eV PBE+vdW (tier 2 basis)
C    -0.137801  -0.643119  -0.210830
C    0.023612  -0.257015  1.245371
O    1.125002  0.002314  1.724998
H    0.827377  -1.016226  -0.565282
H    -0.397713  0.244577  -0.803798
H    -0.913898  -1.397931  -0.379940
N    -1.097853  -0.219992  2.053254
C    -2.528804  -0.347289  1.748557
C    -3.025705  -1.803943  1.592510
O    -4.217335  -2.036224  1.398731
H    -0.861495  0.094368  2.990197
H    -3.020029  -0.046998  2.686394
C    -3.037965  0.660537  0.650171
C    -3.988970  1.709069  1.270028
C    -3.619132  0.042422  -0.626507
C    -5.353679  1.191544  1.729407
H    -2.138035  1.221661  0.358716
H    -4.136397  2.510519  0.528455
H    -3.468482  2.182914  2.119225
H    -3.834137  0.841589  -1.349822
H    -4.543057  -0.511774  -0.434145
H    -2.917952  -0.652639  -1.105844
H    -5.265438  0.365560  2.448450
H    -5.950313  0.814385  0.889362
H    -5.926513  1.995909  2.209711
N    -2.082692  -2.773574  1.741275
C    -2.407010  -4.185868  1.716259
H    -1.149954  -2.476229  2.005181
H    -1.764829  -4.721345  1.004267
H    -3.452182  -4.281648  1.403181
H    -2.292957  -4.643819  2.709550
