31
Energy: -16702.7513844 eV PBE+vdW (tier 2 basis)
C    -0.789302  1.102444  0.452182
C    -0.259819  0.599685  1.780345
O    0.735835  1.104959  2.292085
H    -0.847980  2.195253  0.502530
H    -1.758462  0.701107  0.147099
H    -0.047952  0.850645  -0.318387
N    -0.845874  -0.501055  2.384189
C    -2.168448  -1.119198  2.223541
C    -2.452666  -1.625464  0.787518
O    -3.589810  -1.663457  0.324661
H    -0.378930  -0.700362  3.265813
H    -2.089629  -2.057652  2.800305
C    -3.359303  -0.358417  2.860926
C    -3.664992  1.007275  2.224148
C    -3.151264  -0.259305  4.377986
C    -4.975112  1.635184  2.707731
H    -4.228450  -1.007686  2.667483
H    -3.726487  0.880341  1.134855
H    -2.835163  1.704631  2.424037
H    -2.321083  0.418223  4.627788
H    -2.929538  -1.242907  4.817818
H    -4.047589  0.123470  4.880260
H    -4.949006  1.890954  3.775298
H    -5.822320  0.953380  2.545951
H    -5.186806  2.561617  2.157637
N    -1.355423  -2.104330  0.137738
C    -1.410533  -2.633618  -1.209720
H    -0.456555  -1.969339  0.587817
H    -0.921172  -3.615082  -1.264296
H    -0.927712  -1.956703  -1.930552
H    -2.465494  -2.742612  -1.482611
