31
Energy: -16702.4848808 eV PBE+vdW (tier 2 basis)
C    0.427799  0.340522  0.094389
C    0.286561  0.187530  1.595784
O    1.248769  0.288477  2.356528
H    1.315195  -0.209730  -0.236964
H    0.591103  1.403093  -0.130994
H    -0.447039  -0.007321  -0.468788
N    -0.981040  -0.057825  2.044547
C    -1.348119  -0.028461  3.462848
C    -0.700524  1.222468  4.129743
O    -1.074307  2.317759  3.710140
H    -1.733365  0.013264  1.371617
H    -2.399283  0.296259  3.466350
C    -1.342644  -1.428274  4.141148
C    -0.173249  -2.344121  3.729135
C    -2.691540  -2.114018  3.866606
C    0.063173  -3.514095  4.686075
H    -1.286208  -1.247978  5.227392
H    0.748317  -1.757861  3.638191
H    -0.375291  -2.731398  2.717752
H    -3.531595  -1.518666  4.250673
H    -2.746771  -3.102989  4.339258
H    -2.843376  -2.258764  2.785901
H    0.902568  -4.134714  4.345204
H    -0.813038  -4.171559  4.772043
H    0.307885  -3.160486  5.698790
N    0.109277  1.151579  5.231874
C    1.074696  0.126163  5.611318
H    0.351617  2.095938  5.520442
H    1.726362  0.553792  6.380951
H    1.691845  -0.177521  4.755969
H    0.592259  -0.757302  6.046977
