31
Energy: -16702.9094797 eV PBE+vdW (tier 2 basis)
C    -2.243089  0.282683  -0.348771
C    -1.228396  0.059235  0.757034
O    -0.019421  -0.018578  0.532514
H    -2.138992  -0.519709  -1.089519
H    -2.009900  1.227560  -0.855318
H    -3.280781  0.313597  0.005254
N    -1.747712  -0.040838  2.014771
C    -0.916112  -0.317228  3.170730
C    -1.779266  -1.153153  4.124687
O    -2.995382  -0.950462  4.196559
H    -2.750333  -0.061453  2.180704
H    -0.043744  -0.875862  2.803815
C    -0.374244  1.000787  3.817838
C    0.767923  0.727984  4.809821
C    -1.485255  1.869319  4.413755
C    1.531460  1.982694  5.240584
H    0.062866  1.538833  2.959804
H    1.479286  0.028503  4.342759
H    0.369362  0.221603  5.704695
H    -2.310179  2.006508  3.703316
H    -1.104999  2.866647  4.668029
H    -1.905378  1.424272  5.326788
H    0.899674  2.675045  5.812215
H    1.920159  2.527777  4.368419
H    2.387611  1.721429  5.876810
N    -1.187520  -2.102804  4.903693
C    0.164337  -2.635090  4.873042
H    -1.853251  -2.558510  5.522152
H    0.652503  -2.394390  3.923938
H    0.126897  -3.728502  4.960864
H    0.786878  -2.239897  5.689016
