31
Energy: -16702.8422306 eV PBE+vdW (tier 2 basis)
C    -0.168128  -0.466876  0.121676
C    -0.202528  -0.265317  1.625165
O    0.822465  -0.102735  2.288612
H    0.464655  -1.334389  -0.102652
H    0.302835  0.409705  -0.340516
H    -1.158116  -0.618051  -0.325855
N    -1.447319  -0.269168  2.185890
C    -1.648812  -0.146765  3.620092
C    -2.804683  -1.092866  3.962141
O    -3.797488  -1.153747  3.231056
H    -2.274454  -0.482401  1.636447
H    -0.708372  -0.468295  4.086538
C    -1.866279  1.344412  4.039022
C    -1.821324  1.571843  5.566491
C    -3.077659  1.999161  3.369506
C    -3.115418  1.329294  6.351242
H    -0.962860  1.830733  3.636674
H    -1.514787  2.616953  5.729809
H    -1.004588  0.964656  5.988883
H    -4.025201  1.525964  3.655392
H    -3.000511  1.945117  2.276196
H    -3.130110  3.062383  3.643506
H    -2.939207  1.461133  7.427464
H    -3.523617  0.321590  6.202848
H    -3.900659  2.040074  6.062672
N    -2.703342  -1.884004  5.068846
C    -1.630600  -1.993443  6.042959
H    -3.534761  -2.448564  5.220115
H    -1.626086  -3.011238  6.450608
H    -1.745640  -1.286182  6.878590
H    -0.656146  -1.821020  5.574024
