31
Energy: -16702.7003776 eV PBE+vdW (tier 2 basis)
C    -0.401829  -0.072235  -0.336767
C    -0.108983  -0.130154  1.148320
O    1.033998  -0.163380  1.600825
H    0.546963  -0.151858  -0.873041
H    -0.896846  0.869068  -0.613534
H    -1.069078  -0.887163  -0.649918
N    -1.190290  -0.156330  1.998483
C    -2.595473  0.046233  1.675559
C    -2.940309  1.481601  1.210397
O    -3.621883  1.639300  0.197315
H    -0.922655  -0.176756  2.979076
H    -2.849569  -0.556052  0.790287
C    -3.481625  -0.455013  2.846691
C    -3.374851  -1.989667  2.958728
C    -4.934169  0.012209  2.708651
C    -3.889490  -2.564469  4.279065
H    -3.072647  -0.020816  3.778548
H    -2.324087  -2.287648  2.825063
H    -3.927575  -2.435721  2.115182
H    -5.018425  1.106153  2.723443
H    -5.544932  -0.375589  3.533138
H    -5.373950  -0.338681  1.764802
H    -3.759436  -3.654299  4.306981
H    -4.957109  -2.360402  4.435974
H    -3.341708  -2.145913  5.136075
N    -2.486176  2.557275  1.920803
C    -1.667995  2.620203  3.122855
H    -2.744282  3.437540  1.485713
H    -1.724300  3.640392  3.518531
H    -0.611801  2.382730  2.930646
H    -2.044981  1.951325  3.907007
