31
Energy: -16702.6727818 eV PBE+vdW (tier 2 basis)
C    -0.510576  1.604763  0.048497
C    -0.493258  0.992998  1.438676
O    0.550193  0.753458  2.039998
H    0.111249  0.991556  -0.615114
H    -0.051410  2.600216  0.096981
H    -1.514264  1.698268  -0.385441
N    -1.721685  0.713518  1.973482
C    -1.887483  0.217233  3.331976
C    -1.411936  -1.224647  3.613283
O    -1.086286  -1.506730  4.766555
H    -2.549914  0.949860  1.440756
H    -1.223128  0.810351  3.974915
C    -3.354222  0.448697  3.792500
C    -3.548245  0.317652  5.314229
C    -4.361890  -0.438582  3.048247
C    -2.702488  1.265083  6.165105
H    -3.562325  1.502803  3.531213
H    -3.349724  -0.720418  5.618501
H    -4.615924  0.502211  5.514416
H    -4.200772  -1.501089  3.278655
H    -4.313445  -0.324280  1.955173
H    -5.386831  -0.185109  3.349621
H    -3.010687  1.214923  7.217817
H    -2.811065  2.310651  5.839488
H    -1.638218  1.000905  6.127821
N    -1.394879  -2.191798  2.645234
C    -1.644941  -2.150095  1.213568
H    -1.006645  -3.055466  3.012899
H    -0.841271  -1.645495  0.657064
H    -2.598329  -1.664913  0.978385
H    -1.708767  -3.184499  0.855923
