31
Energy: -16702.5722256 eV PBE+vdW (tier 2 basis)
C    -1.784457  -1.224533  1.042043
C    -2.648110  -1.731707  2.178002
O    -2.567749  -2.892928  2.575953
H    -1.498882  -0.171662  1.122259
H    -2.327611  -1.349595  0.093975
H    -0.890458  -1.853385  1.003660
N    -3.588820  -0.894921  2.741524
C    -3.858954  0.539067  2.607488
C    -3.767479  1.033724  1.146890
O    -2.988296  1.912247  0.782631
H    -4.089885  -1.368163  3.489534
H    -4.928848  0.644486  2.863450
C    -3.106771  1.406222  3.653076
C    -3.668091  2.841706  3.686659
C    -1.579586  1.357059  3.542907
C    -3.309225  3.619474  4.954181
H    -3.377108  0.936853  4.617989
H    -4.767554  2.792421  3.602278
H    -3.318182  3.385242  2.798177
H    -1.207897  0.324436  3.569060
H    -1.119326  1.877515  4.392508
H    -1.232306  1.834839  2.619287
H    -3.785763  4.608845  4.953964
H    -2.226846  3.781883  5.044307
H    -3.642299  3.090875  5.859731
N    -4.643642  0.468078  0.260980
C    -5.627333  -0.580064  0.474185
H    -4.522666  0.820459  -0.683592
H    -6.174503  -0.427208  1.413406
H    -5.180282  -1.584719  0.498938
H    -6.357796  -0.541423  -0.341840
