31
Energy: -16702.5561193 eV PBE+vdW (tier 2 basis)
C    0.018816  0.544974  0.127111
C    -0.009291  -0.008167  1.535188
O    1.009664  -0.406799  2.095360
H    1.032073  0.409085  -0.259900
H    -0.220839  1.616855  0.114937
H    -0.698327  0.017986  -0.512448
N    -1.204134  -0.036413  2.232508
C    -2.588573  0.194001  1.839972
C    -3.140222  -0.918953  0.917312
O    -2.467226  -1.489387  0.065769
H    -1.074865  -0.493336  3.130468
H    -3.140707  0.099644  2.786871
C    -2.885604  1.643255  1.299791
C    -3.866199  2.382304  2.230488
C    -3.374821  1.706215  -0.151871
C    -3.331366  2.660350  3.635693
H    -1.926233  2.178180  1.359286
H    -4.810880  1.811736  2.288988
H    -4.134786  3.338015  1.753665
H    -3.427693  2.752483  -0.481320
H    -4.381724  1.277587  -0.259508
H    -2.711934  1.170546  -0.840628
H    -4.073167  3.195779  4.242681
H    -2.422563  3.276718  3.595732
H    -3.072505  1.739529  4.178193
N    -4.462328  -1.196381  1.131993
C    -5.212132  -2.129804  0.312696
H    -4.948938  -0.688948  1.861109
H    -5.988928  -1.618029  -0.273766
H    -5.684945  -2.905251  0.930132
H    -4.503808  -2.604009  -0.374640
