31
Energy: -16702.9177085 eV PBE+vdW (tier 2 basis)
C    -0.794650  1.122176  -0.350947
C    -0.290152  0.123854  0.672135
O    0.851079  -0.328774  0.651084
H    0.040406  1.393195  -1.001622
H    -1.201296  2.026752  0.121379
H    -1.596380  0.685747  -0.963972
N    -1.176004  -0.258077  1.658296
C    -2.586940  0.093383  1.778163
C    -2.840574  1.478223  2.412330
O    -3.936597  2.026284  2.297369
H    -0.813520  -0.996311  2.256482
H    -3.025123  0.158899  0.773087
C    -3.338912  -1.032706  2.545670
C    -4.869656  -0.963759  2.395183
C    -2.949691  -1.090100  4.028964
C    -5.390263  -1.015299  0.958727
H    -3.004545  -1.967391  2.060394
H    -5.241654  -0.052861  2.885648
H    -5.281434  -1.814376  2.961255
H    -3.399842  -1.970762  4.505332
H    -3.309115  -0.200956  4.565641
H    -1.863835  -1.155941  4.189590
H    -6.482705  -1.124403  0.948467
H    -4.969349  -1.865861  0.401645
H    -5.157258  -0.094411  0.407907
N    -1.791848  2.009159  3.095473
C    -1.856709  3.292467  3.764339
H    -0.925104  1.481994  3.088986
H    -1.103149  3.986247  3.366504
H    -1.701672  3.185966  4.847273
H    -2.854742  3.708131  3.587568
