31
Energy: -16702.5124793 eV PBE+vdW (tier 2 basis)
C    0.097431  -0.145413  0.512509
C    -0.109836  -0.403882  1.990078
O    0.733057  -1.006415  2.652763
H    -0.269133  -1.018746  -0.043212
H    1.172926  -0.045256  0.338024
H    -0.421235  0.737149  0.124396
N    -1.267173  0.023307  2.599282
C    -2.423513  0.760296  2.104805
C    -2.900464  0.215430  0.729401
O    -2.950180  -0.992600  0.524359
H    -1.310444  -0.292864  3.562863
H    -3.254949  0.433413  2.753805
C    -2.350402  2.303245  2.313804
C    -1.229822  3.070059  1.563861
C    -2.354893  2.623182  3.815527
C    0.165527  3.083454  2.199252
H    -3.311992  2.688129  1.928584
H    -1.567313  4.114722  1.466300
H    -1.148240  2.694685  0.532007
H    -3.248546  2.208370  4.302509
H    -2.356581  3.708326  3.986760
H    -1.473072  2.210406  4.322874
H    0.865399  3.624340  1.548550
H    0.574406  2.080807  2.362565
H    0.164002  3.598033  3.168869
N    -3.320441  1.140006  -0.181652
C    -3.859759  0.765877  -1.475434
H    -3.224859  2.122275  0.039199
H    -4.875296  1.162723  -1.610983
H    -3.893490  -0.327729  -1.514522
H    -3.223043  1.132116  -2.293241
