31
Energy: -16702.5692759 eV PBE+vdW (tier 2 basis)
C    -0.063034  -0.815566  1.534766
C    -0.671653  -0.712372  2.919752
O    0.003934  -0.903838  3.928598
H    1.023985  -0.823933  1.650833
H    -0.350944  0.015395  0.879330
H    -0.373917  -1.752801  1.053969
N    -2.003679  -0.392061  3.042097
C    -3.060121  -0.187019  2.045699
C    -3.290044  -1.496793  1.239387
O    -3.797422  -2.468879  1.791071
H    -2.307698  -0.444869  4.008957
H    -3.977818  -0.127996  2.649370
C    -3.000603  1.145805  1.251535
C    -2.666047  2.360592  2.150829
C    -4.351096  1.373281  0.552143
C    -1.181648  2.687717  2.326213
H    -2.211622  1.093258  0.478892
H    -3.137752  2.217962  3.137038
H    -3.161891  3.240253  1.712125
H    -4.304054  2.253236  -0.102508
H    -5.139838  1.556197  1.297055
H    -4.667062  0.516765  -0.057233
H    -0.686363  2.808453  1.351300
H    -0.641475  1.917312  2.887119
H    -1.058677  3.633215  2.871471
N    -2.890789  -1.503027  -0.063995
C    -3.005402  -2.672943  -0.913237
H    -2.458932  -0.668577  -0.440959
H    -3.581037  -2.447132  -1.821334
H    -3.526280  -3.446451  -0.339461
H    -2.016065  -3.053904  -1.206008
