31
Energy: -16702.6636018 eV PBE+vdW (tier 2 basis)
C    0.585275  0.439225  -0.037374
C    0.468897  0.477909  1.477776
O    1.449898  0.708028  2.186176
H    0.992355  1.398231  -0.380437
H    -0.360319  0.245128  -0.558254
H    1.308353  -0.339302  -0.311227
N    -0.782929  0.215591  1.958967
C    -1.259980  0.189730  3.350019
C    -1.887841  1.563456  3.724051
O    -3.113587  1.678785  3.640303
H    -1.512067  0.101513  1.265336
H    -2.160649  -0.440880  3.315102
C    -0.315689  -0.473690  4.378873
C    -0.004920  -1.921230  3.953260
C    -0.970900  -0.413115  5.764957
C    1.109667  -2.582754  4.765068
H    0.637647  0.067386  4.408190
H    0.285479  -1.926503  2.893109
H    -0.928795  -2.521270  4.023051
H    -1.158997  0.619020  6.088906
H    -0.329170  -0.879423  6.522356
H    -1.936565  -0.940788  5.771775
H    1.322799  -3.591792  4.387596
H    0.851379  -2.681999  5.828064
H    2.039778  -2.000759  4.698210
N    -1.118315  2.628389  4.086355
C    0.307650  2.736898  4.359250
H    -1.693063  3.438266  4.302535
H    0.546078  2.508795  5.410866
H    0.622886  3.767038  4.153678
H    0.885166  2.074429  3.705646
