31
Energy: -16702.4282551 eV PBE+vdW (tier 2 basis)
C    0.197944  -0.148631  0.733800
C    -0.105557  -0.047691  2.215318
O    0.763619  0.279937  3.022212
H    0.171407  -1.197671  0.409032
H    1.205627  0.246757  0.582071
H    -0.509016  0.412431  0.111292
N    -1.364624  -0.356861  2.677972
C    -2.637332  -0.704899  2.035750
C    -2.409352  -1.676506  0.849343
O    -2.002906  -2.813823  1.072456
H    -1.394987  -0.297521  3.692464
H    -3.132806  -1.376188  2.755278
C    -3.576314  0.540656  1.942239
C    -5.082377  0.190471  1.896588
C    -3.171869  1.649021  0.959941
C    -5.668076  -0.409203  0.614811
H    -3.436617  0.991747  2.939684
H    -5.630194  1.117659  2.129045
H    -5.294189  -0.493357  2.734517
H    -2.100004  1.874283  1.025536
H    -3.412119  1.437936  -0.093279
H    -3.712927  2.573391  1.203942
H    -5.265517  -1.405359  0.395268
H    -5.488520  0.227287  -0.263690
H    -6.756950  -0.510607  0.715053
N    -2.689026  -1.221885  -0.401187
C    -2.521781  -2.039658  -1.585595
H    -2.985123  -0.261211  -0.509636
H    -3.434772  -2.030034  -2.196244
H    -2.315217  -3.063592  -1.257985
H    -1.679069  -1.689825  -2.200335
