31
Energy: -16702.9349084 eV PBE+vdW (tier 2 basis)
C    -0.548432  -0.976398  0.274795
C    -0.728423  -0.929868  1.777867
O    -0.304757  -1.828299  2.513514
H    -0.959654  -0.103044  -0.246019
H    -1.028919  -1.883770  -0.111838
H    0.522951  -1.053147  0.051761
N    -1.375669  0.167321  2.265659
C    -1.623365  0.354222  3.696323
C    -2.929471  -0.398560  4.065165
O    -4.043762  0.121412  4.077871
H    -1.800798  0.819048  1.616164
H    -0.793048  -0.165220  4.197184
C    -1.531658  1.846965  4.081214
C    -1.314148  2.046726  5.598558
C    -2.644969  2.743449  3.518959
C    -2.439152  1.614187  6.543496
H    -0.587165  2.173552  3.611204
H    -1.111016  3.118472  5.753094
H    -0.385704  1.524825  5.882887
H    -2.739258  2.653373  2.426202
H    -2.412069  3.796326  3.730902
H    -3.623335  2.500189  3.943477
H    -2.581925  0.525831  6.548287
H    -3.402262  2.066225  6.275790
H    -2.201508  1.915909  7.572589
N    -2.699116  -1.714923  4.338804
C    -3.781462  -2.656005  4.552322
H    -1.776209  -2.071264  4.086601
H    -4.011347  -3.230725  3.641630
H    -4.674224  -2.090147  4.838403
H    -3.522131  -3.357662  5.355135
