31
Energy: -16702.5795148 eV PBE+vdW (tier 2 basis)
C    0.295848  -1.175898  0.510777
C    0.117443  -0.789146  1.967826
O    0.822463  -1.254182  2.856991
H    1.312608  -0.906568  0.197923
H    -0.422928  -0.701064  -0.169267
H    0.204030  -2.265355  0.424263
N    -0.870351  0.136574  2.204304
C    -1.248650  0.555443  3.550937
C    -2.754495  0.299590  3.777843
O    -3.125058  -0.545834  4.586462
H    -1.432858  0.432105  1.416670
H    -0.759842  -0.169519  4.215758
C    -0.754994  1.967753  3.968848
C    0.789882  2.061740  3.970632
C    -1.322094  2.316813  5.351566
C    1.426820  2.454581  2.635350
H    -1.129530  2.712579  3.247608
H    1.209612  1.106001  4.318835
H    1.077247  2.813615  4.722086
H    -0.994525  3.319398  5.656035
H    -2.420531  2.302338  5.371897
H    -0.974029  1.603004  6.112093
H    1.034904  3.419137  2.278896
H    1.244621  1.711283  1.850479
H    2.514943  2.560748  2.740426
N    -3.682695  0.986184  3.027466
C    -3.537546  2.189666  2.224915
H    -4.630386  0.730576  3.291429
H    -4.386068  2.255242  1.533497
H    -3.514482  3.109272  2.831926
H    -2.625449  2.169700  1.617541
