31
Energy: -16702.7162655 eV PBE+vdW (tier 2 basis)
C    -0.060416  -0.166622  0.237349
C    -0.146156  -0.558952  1.697551
O    0.847804  -0.864243  2.352291
H    0.983672  0.070883  0.016913
H    -0.697354  0.688093  -0.017480
H    -0.369420  -1.006185  -0.400923
N    -1.393488  -0.599107  2.289657
C    -2.693560  -0.164170  1.769991
C    -3.030993  -0.901802  0.439834
O    -3.489711  -0.330928  -0.544618
H    -1.332553  -0.791292  3.285242
H    -3.420121  -0.554155  2.503654
C    -2.950167  1.363850  1.680818
C    -2.310227  2.163789  2.838373
C    -4.466180  1.611440  1.648650
C    -0.870549  2.637534  2.622889
H    -2.533880  1.725908  0.727527
H    -2.381951  1.587623  3.776838
H    -2.938518  3.052885  3.001157
H    -4.952232  1.052470  0.841567
H    -4.674745  2.677998  1.491875
H    -4.927548  1.321407  2.606205
H    -0.561978  3.315105  3.430715
H    -0.780119  3.192362  1.677800
H    -0.144516  1.817127  2.599405
N    -2.801963  -2.245357  0.488696
C    -3.000887  -3.113683  -0.655075
H    -2.297177  -2.599016  1.294323
H    -3.536245  -4.025129  -0.359416
H    -2.046181  -3.400277  -1.122172
H    -3.598592  -2.566610  -1.391477
