31
Energy: -16702.8959396 eV PBE+vdW (tier 2 basis)
C    -1.193368  1.570606  -1.199651
C    -0.522884  0.768729  -0.101865
O    0.694829  0.627312  -0.032386
H    -0.412317  2.035507  -1.806270
H    -1.857689  2.347182  -0.796978
H    -1.803897  0.920810  -1.843098
N    -1.348234  0.198138  0.845417
C    -2.807555  0.165466  0.861056
C    -3.456679  1.460799  1.402726
O    -4.648687  1.694189  1.207572
H    -0.851350  -0.408533  1.493268
H    -3.181460  0.068688  -0.168844
C    -3.292630  -1.086187  1.649277
C    -4.734322  -1.468852  1.268014
C    -3.103876  -0.928704  3.164474
C    -5.198453  -2.805255  1.850244
H    -2.637346  -1.905726  1.302064
H    -4.796896  -1.513872  0.169234
H    -5.416742  -0.661898  1.570988
H    -3.808265  -0.190981  3.574113
H    -2.088708  -0.600195  3.430131
H    -3.275895  -1.880080  3.681794
H    -5.283066  -2.775647  2.944762
H    -4.507778  -3.621761  1.591177
H    -6.188121  -3.073583  1.458015
N    -2.626471  2.277529  2.104108
C    -3.067355  3.520323  2.703549
H    -1.654189  1.996087  2.172357
H    -2.967640  3.493094  3.797894
H    -4.123631  3.655803  2.446749
H    -2.491420  4.372801  2.317772
