31
Energy: -16702.9371422 eV PBE+vdW (tier 2 basis)
C    -1.143107  1.047069  -1.065803
C    -0.425439  0.543443  0.172145
O    0.798114  0.555039  0.274647
H    -0.397573  1.495335  -1.727289
H    -1.913908  1.791496  -0.823944
H    -1.635041  0.220470  -1.598495
N    -1.209324  0.084862  1.209623
C    -2.648423  -0.130250  1.229821
C    -3.453109  0.984796  1.943576
O    -4.670419  0.883158  2.080756
H    -0.663224  -0.312848  1.970356
H    -3.008046  -0.079352  0.191971
C    -3.028926  -1.543329  1.745450
C    -2.403157  -1.930125  3.099461
C    -2.695510  -2.595207  0.681646
C    -2.732391  -1.024439  4.288874
H    -4.121153  -1.502472  1.876347
H    -1.307957  -2.030064  2.993044
H    -2.749019  -2.950888  3.324416
H    -3.222169  -2.391219  -0.261012
H    -2.990227  -3.598505  1.016995
H    -1.617120  -2.622846  0.465595
H    -3.816553  -0.891522  4.401043
H    -2.291398  -0.022998  4.191382
H    -2.345789  -1.457451  5.220940
N    -2.728319  2.065503  2.336277
C    -3.319840  3.205309  3.006515
H    -1.724854  2.021841  2.193029
H    -2.975273  3.281900  4.048084
H    -4.406192  3.064860  3.003975
H    -3.075438  4.139862  2.483925
