31
Energy: -16703.0467876 eV PBE+vdW (tier 2 basis)
C    0.117299  1.348894  0.219675
C    -0.175093  0.390953  1.359743
O    0.352934  -0.719599  1.436287
H    -0.431690  2.295959  0.288622
H    -0.133595  0.855539  -0.727562
H    1.193882  1.559661  0.203289
N    -1.054839  0.848471  2.296648
C    -1.502895  0.025710  3.400739
C    -2.912234  0.522157  3.762142
O    -3.279570  1.666595  3.487765
H    -1.568030  1.718636  2.173356
H    -1.543478  -1.017184  3.046233
C    -0.499263  0.066593  4.598939
C    -0.718430  -1.096866  5.581290
C    -0.475427  1.433561  5.287564
C    0.460027  -1.338922  6.527731
H    0.477589  -0.101269  4.116699
H    -0.895509  -2.018504  5.000698
H    -1.628029  -0.917033  6.178379
H    0.353981  1.501213  6.002744
H    -1.408918  1.626369  5.836535
H    -0.346002  2.243717  4.558471
H    0.278479  -2.212956  7.167307
H    0.637594  -0.481263  7.190064
H    1.385619  -1.524364  5.964811
N    -3.698015  -0.377681  4.411760
C    -5.030681  -0.063409  4.891429
H    -3.327839  -1.307094  4.568994
H    -5.096328  -0.173480  5.982975
H    -5.783976  -0.711377  4.422609
H    -5.241563  0.976972  4.624065
