31
Energy: -16703.0216853 eV PBE+vdW (tier 2 basis)
C    -2.235368  2.084745  0.872542
C    -1.497635  1.132816  1.793364
O    -0.375795  0.699884  1.499012
H    -3.200986  2.426995  1.263970
H    -2.400587  1.581411  -0.088583
H    -1.596650  2.955169  0.679567
N    -2.152439  0.799448  2.939381
C    -1.719630  -0.162239  3.967558
C    -0.550905  0.368553  4.838790
O    -0.689223  0.477312  6.057895
H    -3.047543  1.244269  3.096913
H    -2.556290  -0.217515  4.676968
C    -1.470789  -1.592420  3.414966
C    -2.732656  -2.126224  2.712991
C    -1.005899  -2.514589  4.547754
C    -2.515269  -3.420567  1.926712
H    -0.667363  -1.527765  2.664830
H    -3.109682  -1.357620  2.021817
H    -3.524608  -2.276716  3.467337
H    -1.764497  -2.585177  5.341325
H    -0.077962  -2.156850  5.010735
H    -0.814671  -3.527183  4.171854
H    -3.431214  -3.716322  1.397800
H    -2.229363  -4.259229  2.575225
H    -1.723224  -3.296197  1.174354
N    0.591401  0.648395  4.162698
C    1.774897  1.166413  4.818643
H    0.553598  0.585317  3.139394
H    2.653102  0.550291  4.581029
H    1.602589  1.144941  5.899981
H    1.982659  2.202654  4.513179
