31
Energy: -16702.8787494 eV PBE+vdW (tier 2 basis)
C    -0.471957  0.596165  -0.207133
C    -0.209093  0.025273  1.173190
O    0.707133  -0.768764  1.387926
H    0.407762  1.172660  -0.520777
H    -1.356361  1.243286  -0.256498
H    -0.590301  -0.232075  -0.915998
N    -1.043188  0.479989  2.157734
C    -0.975078  -0.014894  3.522910
C    -2.322060  -0.696393  3.815610
O    -3.373521  -0.059303  3.722142
H    -1.860546  1.028732  1.911610
H    -0.143535  -0.730832  3.522249
C    -0.677361  1.082556  4.573061
C    0.604895  1.877569  4.232300
C    -0.575376  0.443120  5.964206
C    0.392421  3.128974  3.376439
H    -1.536707  1.774103  4.577015
H    1.330359  1.207195  3.744094
H    1.074027  2.184657  5.179966
H    -0.430134  1.214453  6.731687
H    0.282362  -0.244594  6.020842
H    -1.480732  -0.119355  6.230266
H    1.338602  3.667791  3.229725
H    -0.310997  3.822261  3.860145
H    -0.007561  2.888320  2.384063
N    -2.308589  -2.015385  4.153143
C    -1.159270  -2.901552  4.279737
H    -3.231686  -2.396723  4.337288
H    -0.567391  -2.691623  5.183085
H    -0.502493  -2.837519  3.402668
H    -1.526623  -3.931093  4.348302
