31
Energy: -16702.835456 eV PBE+vdW (tier 2 basis)
C    -0.392484  -1.056496  1.050986
C    -0.177149  0.049096  2.072820
O    0.923052  0.245801  2.582805
H    0.561506  -1.573790  0.920850
H    -0.707072  -0.650049  0.078725
H    -1.151737  -1.780183  1.373192
N    -1.256095  0.825764  2.417310
C    -2.581248  0.854913  1.832707
C    -2.888994  2.311426  1.424993
O    -2.353971  3.265800  1.984641
H    -1.013891  1.651577  2.964134
H    -2.578934  0.229755  0.928076
C    -3.694730  0.302165  2.782310
C    -3.772366  1.085950  4.105152
C    -3.508011  -1.201979  3.003347
C    -5.019817  0.783513  4.938231
H    -4.650900  0.452447  2.248691
H    -3.740931  2.164030  3.889490
H    -2.870244  0.870167  4.699399
H    -2.554247  -1.407851  3.509303
H    -3.517859  -1.753697  2.052653
H    -4.310514  -1.615072  3.626973
H    -5.939166  0.983000  4.367952
H    -5.047505  1.412917  5.837387
H    -5.057369  -0.261627  5.273643
N    -3.816206  2.445542  0.434458
C    -4.292483  3.735495  -0.030694
H    -4.193963  1.606010  0.012065
H    -3.748499  4.505971  0.525338
H    -5.369415  3.854417  0.153946
H    -4.097758  3.865987  -1.103882
