31
Energy: -16702.7973013 eV PBE+vdW (tier 2 basis)
C    -0.164195  0.024267  -0.200851
C    0.080065  -0.105788  1.294087
O    1.209968  -0.269199  1.746572
H    0.805164  -0.053925  -0.699682
H    -0.612606  0.995975  -0.453847
H    -0.828214  -0.760700  -0.583624
N    -1.005743  -0.043086  2.135940
C    -2.371646  0.325388  1.828683
C    -2.759309  1.497613  2.756884
O    -2.128257  1.745188  3.782264
H    -0.749648  0.080686  3.115601
H    -2.414142  0.688227  0.791180
C    -3.376734  -0.872281  1.931947
C    -3.443980  -1.530073  3.325529
C    -3.053057  -1.915621  0.857357
C    -4.294708  -0.804726  4.372304
H    -4.376986  -0.459823  1.707007
H    -2.420301  -1.679296  3.703699
H    -3.852187  -2.543099  3.187067
H    -2.066354  -2.367350  1.030642
H    -3.056156  -1.478645  -0.151271
H    -3.795756  -2.724233  0.872323
H    -3.868147  0.160925  4.666884
H    -4.379701  -1.411800  5.283591
H    -5.314848  -0.629044  3.999566
N    -3.850630  2.208967  2.359589
C    -4.431273  3.269353  3.162946
H    -4.330483  1.922288  1.514853
H    -4.616144  4.161921  2.551779
H    -3.714993  3.516734  3.952954
H    -5.375558  2.952701  3.630218
