31
Energy: -16702.9212641 eV PBE+vdW (tier 2 basis)
C    -0.417909  0.164296  -0.168351
C    -0.304053  -0.307854  1.269292
O    0.499739  -1.199375  1.573005
H    0.567614  0.510651  -0.503059
H    -1.151081  0.964918  -0.323717
H    -0.691710  -0.694238  -0.794262
N    -1.124988  0.326452  2.150771
C    -1.374215  0.112286  3.593556
C    -0.160661  0.206792  4.548639
O    -0.314507  0.767425  5.638582
H    -1.704600  1.050136  1.743872
H    -1.956950  0.995787  3.878933
C    -2.288539  -1.120398  3.877912
C    -2.966578  -1.030382  5.260137
C    -1.596907  -2.478436  3.715440
C    -3.841078  0.202139  5.494673
H    -3.085808  -1.049755  3.115707
H    -2.198238  -1.086225  6.045970
H    -3.582104  -1.937402  5.368014
H    -1.129483  -2.598892  2.732467
H    -2.331195  -3.285038  3.848166
H    -0.813797  -2.618293  4.473842
H    -3.241476  1.116740  5.591130
H    -4.412867  0.098013  6.426398
H    -4.567205  0.346009  4.679748
N    0.997507  -0.361868  4.153635
C    2.172648  -0.347174  5.002841
H    1.010774  -0.842849  3.243947
H    3.052367  -0.585303  4.395164
H    2.096483  -1.080445  5.820575
H    2.299385  0.643522  5.456965
