31
Energy: -16702.7754231 eV PBE+vdW (tier 2 basis)
C    -0.100571  0.750719  0.295245
C    -0.298061  0.394423  1.758165
O    0.549576  0.621914  2.613619
H    0.347803  1.748203  0.231199
H    -1.024860  0.727660  -0.295698
H    0.613007  0.040702  -0.144705
N    -1.505586  -0.195366  2.060033
C    -1.786545  -0.807455  3.362952
C    -1.740888  0.255827  4.499418
O    -1.384161  -0.016976  5.639938
H    -2.084694  -0.485560  1.280816
H    -2.841961  -1.123471  3.300132
C    -0.943186  -2.066487  3.715837
C    -0.558469  -2.875467  2.464520
C    -1.718975  -2.923585  4.726169
C    0.321505  -4.093432  2.754673
H    -0.018839  -1.712505  4.196419
H    -0.018039  -2.224254  1.762877
H    -1.474817  -3.202206  1.939811
H    -2.027738  -2.325486  5.589813
H    -1.101939  -3.749032  5.102189
H    -2.615293  -3.363411  4.258875
H    0.650365  -4.567976  1.820410
H    -0.203016  -4.857668  3.342525
H    1.222083  -3.802634  3.314427
N    -2.223699  1.480421  4.141951
C    -2.173038  2.610989  5.048613
H    -2.334266  1.655403  3.149859
H    -3.009924  3.290469  4.846134
H    -1.227185  3.167988  4.960090
H    -2.252055  2.234401  6.073745
