31
Energy: -16702.6310621 eV PBE+vdW (tier 2 basis)
C    -0.114565  -0.707794  -0.184580
C    0.020919  -0.338897  1.277219
O    1.117003  -0.113911  1.786045
H    -0.436041  0.166338  -0.766791
H    -0.840940  -1.510146  -0.359200
H    0.871815  -1.015434  -0.542389
N    -1.115706  -0.277497  2.062819
C    -2.550702  -0.350273  1.754947
C    -3.110994  -1.781855  1.594525
O    -4.310279  -1.955833  1.387035
H    -0.880604  0.024261  3.004295
H    -3.025943  -0.025140  2.692860
C    -3.049398  0.656763  0.656687
C    -4.170487  1.539405  1.244100
C    -3.473735  0.029645  -0.679078
C    -4.622573  2.686174  0.339763
H    -2.187025  1.316975  0.468246
H    -3.813531  1.959205  2.199240
H    -5.027537  0.891967  1.489294
H    -2.767334  -0.731050  -1.031193
H    -3.530293  0.800908  -1.457805
H    -4.455149  -0.451464  -0.594075
H    -5.346271  3.328375  0.859016
H    -5.107954  2.324233  -0.575904
H    -3.773775  3.319062  0.040338
N    -2.213145  -2.792595  1.745854
C    -2.598723  -4.189376  1.714931
H    -1.270157  -2.535457  2.016200
H    -1.979473  -4.750182  1.002137
H    -3.646431  -4.237833  1.399310
H    -2.506815  -4.655302  2.706742
