31
Energy: -16702.7903289 eV PBE+vdW (tier 2 basis)
C    -2.370906  -5.165675  0.977143
C    -1.726442  -3.854963  1.390436
O    -1.085242  -3.162096  0.609506
H    -1.651187  -5.747553  0.390739
H    -3.225077  -4.943895  0.323197
H    -2.725017  -5.770677  1.821686
N    -1.918748  -3.504914  2.710291
C    -1.574896  -2.183992  3.229207
C    -0.344799  -2.218881  4.167112
O    0.188078  -1.186024  4.566236
H    -2.595717  -4.047476  3.236002
H    -1.251718  -1.595183  2.356328
C    -2.829104  -1.509224  3.857136
C    -4.014028  -1.499125  2.849065
C    -2.556548  -0.084476  4.355064
C    -5.053926  -2.608909  3.025406
H    -3.124422  -2.120480  4.730973
H    -3.620511  -1.510662  1.820655
H    -4.532331  -0.534855  2.953383
H    -1.741986  -0.042746  5.083398
H    -3.468883  0.320438  4.814777
H    -2.280842  0.573064  3.517816
H    -5.457305  -2.614393  4.048400
H    -4.650603  -3.611471  2.823825
H    -5.900247  -2.466094  2.339580
N    0.090683  -3.464781  4.511191
C    1.284664  -3.674358  5.305349
H    -0.322211  -4.243741  4.010638
H    1.096074  -4.400451  6.107206
H    1.563251  -2.711715  5.747403
H    2.123946  -4.032693  4.690851
