31
Energy: -16702.6882716 eV PBE+vdW (tier 2 basis)
C    -0.620202  1.289561  0.645520
C    0.231062  0.632677  1.712888
O    1.320520  1.081438  2.064881
H    -0.055287  2.127100  0.228967
H    -1.568331  1.661476  1.058414
H    -0.877083  0.585836  -0.158500
N    -0.260889  -0.518302  2.282913
C    -1.582126  -1.105343  2.120291
C    -2.731085  -0.278382  2.745551
O    -3.748739  -0.063994  2.086394
H    0.352815  -0.899090  2.997963
H    -1.844314  -1.099368  1.053078
C    -1.577271  -2.581129  2.593986
C    -0.546816  -3.427650  1.810258
C    -2.982454  -3.193862  2.550689
C    -0.743394  -3.486468  0.293912
H    -1.248872  -2.589010  3.648954
H    -0.585208  -4.447449  2.224007
H    0.467922  -3.058345  2.021296
H    -3.423884  -3.137810  1.547235
H    -3.672289  -2.681488  3.232501
H    -2.940239  -4.250647  2.846187
H    -1.742481  -3.848696  0.017409
H    -0.011314  -4.167625  -0.158873
H    -0.600149  -2.504079  -0.176735
N    -2.611014  0.204642  4.018918
C    -1.508759  0.120339  4.965928
H    -3.413307  0.765451  4.288684
H    -1.138669  -0.907526  5.069609
H    -1.882806  0.426139  5.949411
H    -0.666748  0.774663  4.697954
