31
Energy: -16702.6632631 eV PBE+vdW (tier 2 basis)
C    -0.119058  -0.013549  -0.169428
C    -0.109801  0.340548  1.307184
O    0.747876  1.066991  1.796938
H    0.845867  -0.466638  -0.427122
H    -0.212261  0.911121  -0.752617
H    -0.924290  -0.700995  -0.459111
N    -1.129647  -0.217968  2.041667
C    -1.329410  0.073096  3.453791
C    -1.045409  -1.129721  4.379757
O    -0.296431  -0.997162  5.343726
H    -1.846955  -0.719634  1.533262
H    -0.527211  0.776187  3.711969
C    -2.701980  0.745611  3.733452
C    -2.862232  2.060170  2.937714
C    -2.933729  0.941340  5.237234
C    -1.877965  3.181177  3.282256
H    -3.492464  0.065733  3.366300
H    -3.892878  2.413850  3.100644
H    -2.790440  1.837563  1.861890
H    -2.123336  1.516198  5.703461
H    -2.993816  -0.017058  5.768110
H    -3.875959  1.479678  5.407538
H    -2.100188  4.075845  2.685575
H    -0.839301  2.897563  3.067748
H    -1.939283  3.472100  4.339438
N    -1.663881  -2.334163  4.150219
C    -2.527262  -2.758368  3.063874
H    -1.357249  -3.047118  4.805214
H    -3.074914  -3.653169  3.381676
H    -1.971148  -3.010926  2.145985
H    -3.280969  -1.996487  2.826975
