31
Energy: -16702.6070547 eV PBE+vdW (tier 2 basis)
C    -0.553038  0.368896  -0.121101
C    -0.357944  0.035260  1.349106
O    0.732118  -0.284507  1.810449
H    0.205387  1.102350  -0.418973
H    -1.548914  0.760780  -0.363863
H    -0.378390  -0.539710  -0.711866
N    -1.487356  0.127845  2.119716
C    -1.558809  -0.255368  3.529367
C    -0.384156  0.358319  4.344411
O    0.350043  -0.322265  5.049981
H    -2.359450  0.339873  1.651142
H    -2.478991  0.219380  3.912442
C    -1.665424  -1.783543  3.774484
C    -2.504661  -2.511338  2.705513
C    -2.182935  -2.057488  5.193129
C    -3.987595  -2.133335  2.624008
H    -0.639504  -2.174361  3.708947
H    -2.427461  -3.589677  2.914414
H    -2.036027  -2.370934  1.720303
H    -2.290074  -3.138174  5.360606
H    -3.167716  -1.597247  5.366216
H    -1.486709  -1.668363  5.943574
H    -4.515925  -2.334348  3.565365
H    -4.492922  -2.709401  1.837305
H    -4.142551  -1.068806  2.389513
N    -0.251340  1.722160  4.310792
C    -0.993936  2.713604  3.557640
H    0.569100  2.036775  4.818901
H    -0.881722  3.685224  4.054084
H    -2.065807  2.478775  3.542211
H    -0.647309  2.813173  2.516928
