31
Energy: -16702.3137829 eV PBE+vdW (tier 2 basis)
C    0.457066  -0.406279  0.334539
C    0.249114  -0.151974  1.820627
O    1.116888  -0.443793  2.639766
H    1.408338  0.047954  0.032680
H    -0.344091  -0.023566  -0.309989
H    0.548447  -1.488723  0.177561
N    -0.955962  0.414307  2.130407
C    -1.627688  0.748428  3.400223
C    -1.623065  2.248752  3.785124
O    -2.666899  2.726588  4.235211
H    -1.544186  0.599271  1.326809
H    -2.686762  0.618464  3.138526
C    -1.470163  -0.158213  4.670139
C    -0.433473  0.236237  5.756771
C    -1.463992  -1.646004  4.310384
C    0.972022  -0.367193  5.727534
H    -2.435227  0.043279  5.161700
H    -0.895976  -0.046973  6.716051
H    -0.365085  1.334051  5.797641
H    -1.574882  -2.253611  5.219194
H    -0.531307  -1.945192  3.818342
H    -2.300524  -1.896301  3.642415
H    1.525291  -0.110614  4.820614
H    0.943258  -1.464056  5.784025
H    1.539633  -0.013341  6.599571
N    -0.514338  3.024826  3.629041
C    0.844429  2.678373  3.248539
H    -0.693988  3.987674  3.899196
H    1.542758  3.301100  3.821245
H    1.029623  2.847703  2.176026
H    1.069092  1.631639  3.472383
