31
Energy: -16702.6061119 eV PBE+vdW (tier 2 basis)
C    -1.213682  -0.543599  -0.056800
C    -0.999812  0.026896  1.335825
O    -0.082117  0.797030  1.596305
H    -1.191923  0.278896  -0.781150
H    -2.150848  -1.102531  -0.173223
H    -0.374477  -1.210375  -0.294265
N    -1.912621  -0.376951  2.275123
C    -1.833999  -0.045510  3.697187
C    -1.581889  1.475059  3.913335
O    -0.668544  1.893494  4.613845
H    -2.602965  -1.062516  1.995602
H    -2.843390  -0.253710  4.095317
C    -0.823876  -0.893386  4.514699
C    -0.752322  -2.345846  4.013017
C    -1.192035  -0.819428  6.002224
C    0.282318  -3.207903  4.739976
H    0.162563  -0.424678  4.376899
H    -0.508124  -2.343345  2.941067
H    -1.748299  -2.817876  4.101177
H    -1.282868  0.220393  6.335255
H    -0.424054  -1.292579  6.626241
H    -2.144947  -1.338188  6.197008
H    0.363692  -4.198144  4.271976
H    0.027068  -3.365718  5.795916
H    1.277155  -2.740946  4.704820
N    -2.484771  2.341061  3.353404
C    -3.625775  2.076779  2.499031
H    -2.217975  3.310463  3.492777
H    -4.175059  1.188026  2.834620
H    -3.349255  1.933304  1.442556
H    -4.314791  2.927759  2.563661
