31
Energy: -16702.6706238 eV PBE+vdW (tier 2 basis)
C    0.627014  -0.357171  1.779736
C    -0.167745  -0.392493  3.074483
O    0.365667  -0.603619  4.160400
H    1.670702  -0.568694  2.025530
H    0.570192  0.626733  1.293129
H    0.269587  -1.105762  1.059652
N    -1.520217  -0.161062  2.992001
C    -2.339747  0.005633  1.794751
C    -3.386513  1.092189  2.124646
O    -4.513514  0.828779  2.540001
H    -2.003755  -0.247905  3.882742
H    -1.682453  0.402660  1.009145
C    -2.930975  -1.317174  1.239728
C    -3.729515  -1.038435  -0.047398
C    -3.706894  -2.146018  2.269640
C    -4.033148  -2.285068  -0.880441
H    -2.041781  -1.907369  0.949370
H    -3.159096  -0.327385  -0.670136
H    -4.668565  -0.529315  0.216836
H    -3.103431  -2.327770  3.169187
H    -3.960551  -3.130561  1.856396
H    -4.631989  -1.641957  2.570887
H    -4.544191  -2.017460  -1.814824
H    -4.684008  -2.988017  -0.344032
H    -3.111842  -2.823151  -1.148347
N    -2.981298  2.388790  1.960385
C    -1.656210  2.884314  1.625784
H    -3.676676  3.061748  2.268068
H    -1.699028  3.977526  1.579717
H    -1.323661  2.528975  0.639774
H    -0.902893  2.603320  2.376693
