31
Energy: -16702.746576 eV PBE+vdW (tier 2 basis)
C    0.018495  0.612722  0.748382
C    -0.107685  0.416751  2.251605
O    0.869098  0.493922  2.992680
H    1.075517  0.780821  0.526742
H    -0.554424  1.488181  0.408976
H    -0.333242  -0.258281  0.181123
N    -1.353229  0.145979  2.761376
C    -2.632018  0.150884  2.080682
C    -3.579759  1.091619  2.846832
O    -3.456880  1.276904  4.056478
H    -1.405738  0.189524  3.778335
H    -2.480272  0.537196  1.064492
C    -3.273519  -1.271335  1.950666
C    -3.424761  -1.969476  3.314692
C    -2.485495  -2.115681  0.944863
C    -4.330003  -3.202836  3.283321
H    -4.289345  -1.116011  1.545148
H    -3.824766  -1.252286  4.046330
H    -2.425846  -2.253345  3.681792
H    -2.447763  -1.634758  -0.043017
H    -2.942208  -3.103949  0.808965
H    -1.453587  -2.271850  1.289952
H    -4.437639  -3.630510  4.288767
H    -3.936109  -3.996754  2.634396
H    -5.338168  -2.948909  2.923892
N    -4.592004  1.670538  2.135209
C    -4.786912  1.671335  0.694048
H    -5.187028  2.269632  2.698835
H    -5.699085  2.234230  0.470685
H    -4.919863  0.656565  0.293718
H    -3.955545  2.154552  0.158134
