31
Energy: -16703.0337049 eV PBE+vdW (tier 2 basis)
C    -0.096348  0.178313  -0.128532
C    -0.133150  -0.051168  1.370832
O    0.778681  -0.621956  1.967569
H    0.807646  0.748705  -0.375245
H    -0.972981  0.712015  -0.515707
H    -0.016730  -0.793673  -0.631073
N    -1.240682  0.441721  2.006911
C    -1.505608  0.204847  3.415923
C    -2.893147  -0.446981  3.501238
O    -3.859332  0.040882  2.912523
H    -2.027915  0.783037  1.463226
H    -0.718076  -0.484237  3.759009
C    -1.447446  1.507065  4.260797
C    -0.053444  2.149151  4.156775
C    -1.857169  1.236479  5.712847
C    0.031122  3.567192  4.724595
H    -2.185072  2.199478  3.817773
H    0.244210  2.172845  3.099005
H    0.679814  1.497307  4.659748
H    -2.885140  0.858861  5.786445
H    -1.805682  2.152860  6.313479
H    -1.188416  0.497764  6.181938
H    -0.163944  3.599955  5.805143
H    -0.694100  4.234893  4.236694
H    1.031018  3.991672  4.563411
N    -2.961308  -1.575024  4.258545
C    -4.195907  -2.301916  4.485582
H    -2.106935  -1.906638  4.689435
H    -4.471862  -2.298123  5.549601
H    -4.110479  -3.342354  4.143709
H    -4.982618  -1.800971  3.911804
