31
Energy: -16702.6952375 eV PBE+vdW (tier 2 basis)
C    0.067058  1.290191  0.107924
C    0.201845  0.836110  1.548308
O    1.238991  1.026427  2.178348
H    -0.957025  1.375314  -0.264782
H    0.604700  0.572504  -0.527610
H    0.572879  2.256569  0.013684
N    -0.824625  0.114772  2.134308
C    -2.244680  -0.016936  1.778526
C    -2.448491  -0.512406  0.325849
O    -3.339772  -0.091559  -0.407492
H    -0.597834  -0.098121  3.103355
H    -2.588788  -0.869406  2.386712
C    -3.115487  1.189348  2.223913
C    -4.629697  0.886620  2.216576
C    -2.822600  2.503561  1.494046
C    -5.059717  -0.364547  2.985146
H    -2.829261  1.334004  3.282635
H    -4.976730  0.821687  1.176984
H    -5.127545  1.763645  2.659417
H    -1.776576  2.816528  1.604707
H    -3.058916  2.429724  0.425121
H    -3.441766  3.305774  1.918449
H    -6.153932  -0.411694  3.063873
H    -4.658554  -0.374449  4.010448
H    -4.741102  -1.292222  2.488841
N    -1.596717  -1.516552  -0.031205
C    -1.595888  -2.105491  -1.355161
H    -0.834352  -1.723264  0.605248
H    -1.555083  -3.200518  -1.291915
H    -0.744548  -1.753166  -1.957655
H    -2.523437  -1.807511  -1.854992
