31
Energy: -16702.6423095 eV PBE+vdW (tier 2 basis)
C    -0.377971  1.641241  0.058532
C    -0.107531  0.792671  1.285378
O    0.965266  0.823184  1.886907
H    0.535398  2.191312  -0.180724
H    -1.193361  2.356284  0.239194
H    -0.667477  1.027801  -0.806032
N    -1.126819  -0.017724  1.720125
C    -2.479749  -0.108812  1.205907
C    -3.460675  1.031497  1.573694
O    -4.463909  1.171061  0.874351
H    -0.887087  -0.547319  2.553537
H    -2.432136  -0.009988  0.111613
C    -3.097244  -1.513324  1.457470
C    -3.255031  -1.911150  2.940423
C    -2.300084  -2.574166  0.687406
C    -4.432058  -1.271148  3.680751
H    -4.104816  -1.454038  1.017492
H    -2.316610  -1.729653  3.493791
H    -3.381274  -3.004359  2.969648
H    -2.806806  -3.546742  0.739754
H    -1.287846  -2.704233  1.095619
H    -2.197386  -2.305236  -0.372904
H    -5.378356  -1.482498  3.164332
H    -4.347217  -0.180891  3.759496
H    -4.511667  -1.669655  4.701042
N    -3.203735  1.901429  2.598653
C    -2.239254  1.857376  3.693278
H    -3.937335  2.600403  2.668277
H    -2.565997  2.579165  4.450340
H    -1.223754  2.129446  3.379468
H    -2.205148  0.872399  4.176828
