31
Energy: -16703.0117411 eV PBE+vdW (tier 2 basis)
C    -1.553320  -0.163430  -0.106420
C    -1.116611  0.005246  1.335417
O    -0.020826  -0.418834  1.725723
H    -0.781660  0.259055  -0.761105
H    -2.517951  0.303830  -0.338476
H    -1.617434  -1.236626  -0.327362
N    -2.004362  0.641080  2.147495
C    -1.890342  0.853404  3.599830
C    -0.845255  1.934539  3.981457
O    -1.190441  2.929375  4.620602
H    -2.855443  0.978440  1.716109
H    -2.840676  1.314683  3.895657
C    -1.716226  -0.460543  4.407970
C    -2.770739  -1.523160  4.033478
C    -1.701837  -0.151101  5.910388
C    -4.235984  -1.131097  4.242149
H    -0.737887  -0.886791  4.142258
H    -2.550419  -2.422324  4.629915
H    -2.620158  -1.822224  2.985417
H    -2.616683  0.362581  6.236912
H    -0.857463  0.494997  6.181101
H    -1.610430  -1.081105  6.487529
H    -4.443606  -0.842178  5.281161
H    -4.898360  -1.972400  3.998882
H    -4.538534  -0.290404  3.601096
N    0.427378  1.667519  3.594925
C    1.525014  2.576967  3.854315
H    0.570203  0.839371  3.006216
H    2.345057  2.061230  4.372980
H    1.152752  3.388311  4.488851
H    1.918242  3.007590  2.921530
