31
Energy: -16702.8593503 eV PBE+vdW (tier 2 basis)
C    0.242880  -0.444278  0.630023
C    -0.108042  0.559069  1.718668
O    0.558660  1.575280  1.899949
H    1.167513  -0.110054  0.152553
H    -0.548888  -0.496308  -0.131639
H    0.389860  -1.458205  1.026495
N    -1.213748  0.293605  2.482778
C    -2.117342  -0.836646  2.403684
C    -3.497520  -0.318509  2.855903
O    -3.600878  0.587948  3.680289
H    -1.481897  1.014895  3.151883
H    -2.190737  -1.169787  1.356046
C    -1.631029  -2.060576  3.250672
C    -2.379716  -3.352689  2.880186
C    -1.641232  -1.772780  4.754440
C    -1.707225  -4.630708  3.386998
H    -0.579374  -2.197179  2.944342
H    -2.462353  -3.412032  1.780416
H    -3.410575  -3.307949  3.267559
H    -1.128518  -0.829782  4.981378
H    -1.126334  -2.567468  5.308573
H    -2.665852  -1.696973  5.144764
H    -2.245498  -5.522943  3.040792
H    -1.679374  -4.671418  4.483626
H    -0.671808  -4.705621  3.024758
N    -4.567465  -0.946816  2.294716
C    -5.939580  -0.637952  2.653300
H    -4.393102  -1.669729  1.607521
H    -6.515160  -0.319503  1.773690
H    -5.914130  0.182101  3.378097
H    -6.437503  -1.504482  3.110913
