31
Energy: -16702.6029509 eV PBE+vdW (tier 2 basis)
C    -1.029370  -1.313779  2.960242
C    -2.418401  -1.450473  3.543875
O    -2.617910  -1.968585  4.641922
H    -0.865184  -2.067916  2.178054
H    -0.312633  -1.486628  3.767386
H    -0.850740  -0.333945  2.503154
N    -3.489937  -0.985497  2.813799
C    -3.558467  -0.333036  1.503854
C    -2.793948  -1.156862  0.433941
O    -1.818027  -0.716294  -0.168991
H    -4.364460  -1.105579  3.315391
H    -4.626327  -0.389790  1.230796
C    -3.177783  1.166909  1.453180
C    -3.683779  1.963206  2.676787
C    -3.728367  1.773374  0.154417
C    -2.742615  2.009318  3.883321
H    -2.079707  1.234088  1.412747
H    -4.674272  1.586848  2.985545
H    -3.861298  2.997049  2.342651
H    -3.386345  1.223855  -0.730569
H    -4.830115  1.776411  0.160120
H    -3.396594  2.814367  0.047300
H    -3.128029  2.695270  4.650099
H    -1.748049  2.373472  3.587692
H    -2.612002  1.031474  4.360364
N    -3.259262  -2.419324  0.189746
C    -4.368699  -3.126011  0.807840
H    -2.692908  -2.923489  -0.485300
H    -4.641925  -3.971179  0.166239
H    -5.254176  -2.481891  0.892717
H    -4.121847  -3.509356  1.808560
