31
Energy: -16702.8152471 eV PBE+vdW (tier 2 basis)
C    -2.105567  -0.134010  -0.127292
C    -1.105985  -0.227359  1.009698
O    0.085051  -0.464379  0.815217
H    -3.136247  0.048115  0.201598
H    -2.072472  -1.066168  -0.704461
H    -1.797513  0.676913  -0.799091
N    -1.626246  -0.038472  2.263400
C    -0.801052  -0.033927  3.466125
C    -1.410502  -1.031283  4.472697
O    -2.094796  -0.678382  5.433925
H    -2.611950  0.176351  2.357850
H    0.172863  -0.415711  3.128441
C    -0.543740  1.390338  4.017411
C    0.432989  1.329987  5.207226
C    -1.812684  2.196623  4.321704
C    1.058769  2.677573  5.571692
H    -0.017276  1.897322  3.188618
H    1.240735  0.620575  4.960521
H    -0.089028  0.911140  6.080216
H    -2.477375  2.248460  3.447322
H    -1.557328  3.233374  4.575987
H    -2.372085  1.758173  5.155796
H    0.308156  3.400289  5.918748
H    1.578527  3.124010  4.711201
H    1.794137  2.561720  6.379072
N    -1.161501  -2.357264  4.242546
C    -0.549566  -2.990116  3.085560
H    -1.653867  -2.958863  4.897425
H    -1.278033  -3.184019  2.282072
H    -0.106116  -3.944726  3.392905
H    0.246701  -2.367283  2.664874
