31
Energy: -16702.9071261 eV PBE+vdW (tier 2 basis)
C    -0.816616  0.429490  -0.158472
C    -0.460858  0.419919  1.316127
O    0.706080  0.444011  1.707063
H    -0.401575  1.336549  -0.615486
H    -1.895878  0.395035  -0.350511
H    -0.335688  -0.429573  -0.642329
N    -1.530384  0.411793  2.170537
C    -1.361633  0.218436  3.597253
C    -2.346460  -0.878737  4.023983
O    -3.352747  -1.123872  3.352784
H    -2.451424  0.162930  1.817287
H    -0.319994  -0.113152  3.730357
C    -1.541487  1.513511  4.455237
C    -3.002146  1.966084  4.672069
C    -0.643027  2.636434  3.925843
C    -3.799097  2.402984  3.438578
H    -1.163581  1.247822  5.456752
H    -2.966692  2.803653  5.387471
H    -3.554738  1.163308  5.185385
H    0.404990  2.316512  3.872097
H    -0.706870  3.515281  4.582123
H    -0.935782  2.949255  2.915584
H    -4.751410  2.855988  3.745666
H    -4.042243  1.553697  2.788719
H    -3.259903  3.148348  2.839195
N    -2.093586  -1.553178  5.180585
C    -0.956473  -1.439426  6.077175
H    -2.826197  -2.213598  5.423199
H    -0.766207  -2.414825  6.540620
H    -1.122195  -0.702049  6.877780
H    -0.053574  -1.155115  5.525229
