31
Energy: -16702.8443832 eV PBE+vdW (tier 2 basis)
C    -0.554022  -0.053022  0.331886
C    -0.527718  0.298851  1.807116
O    0.503771  0.653892  2.375508
H    0.180565  -0.845730  0.143997
H    -0.238975  0.826301  -0.243723
H    -1.536638  -0.381528  -0.029083
N    -1.726249  0.174666  2.458673
C    -1.922315  0.558652  3.852482
C    -2.497963  -0.622011  4.669490
O    -3.596898  -0.566231  5.221733
H    -2.542564  -0.089392  1.919849
H    -0.906383  0.766980  4.224045
C    -2.762383  1.847044  4.010098
C    -4.094197  1.797456  3.233717
C    -1.919794  3.070756  3.631119
C    -5.118925  2.829200  3.709703
H    -3.010648  1.902790  5.081739
H    -4.536837  0.797334  3.346430
H    -3.894742  1.952050  2.159347
H    -1.607309  3.030237  2.577417
H    -1.008808  3.136178  4.240929
H    -2.483252  4.001707  3.773672
H    -4.752739  3.859732  3.605109
H    -5.369238  2.667106  4.767399
H    -6.050583  2.754271  3.132984
N    -1.722440  -1.742814  4.770725
C    -0.402614  -2.012483  4.225846
H    -2.180107  -2.484600  5.292168
H    0.138044  -2.675898  4.911859
H    0.180535  -1.091239  4.117896
H    -0.450576  -2.497257  3.237871
