31
Energy: -16703.0637454 eV PBE+vdW (tier 2 basis)
C    -5.639818  0.549384  0.909598
C    -4.241806  0.122923  1.305847
O    -3.404218  -0.229246  0.467703
H    -6.120875  -0.271990  0.364342
H    -5.564338  1.399540  0.220167
H    -6.271536  0.835334  1.759461
N    -3.962022  0.164064  2.639806
C    -2.652876  -0.211338  3.172435
C    -2.646732  -1.745086  3.408009
O    -2.898722  -2.254327  4.498785
H    -4.713030  0.347280  3.295492
H    -1.935068  0.014699  2.370487
C    -2.286807  0.580696  4.436821
C    -2.497440  2.101611  4.270614
C    -0.853292  0.239193  4.866828
C    -1.723721  2.766349  3.128182
H    -2.958293  0.233417  5.240125
H    -2.218971  2.575847  5.224767
H    -3.570349  2.312362  4.141078
H    -0.123496  0.474926  4.079172
H    -0.758726  -0.825667  5.109801
H    -0.574741  0.812153  5.761424
H    -0.639500  2.620415  3.225068
H    -1.905732  3.849209  3.118653
H    -2.025158  2.377263  2.145712
N    -2.372985  -2.446572  2.273787
C    -2.466284  -3.892373  2.213743
H    -2.357870  -1.911208  1.404955
H    -3.399445  -4.221891  1.731507
H    -2.450290  -4.276908  3.238878
H    -1.616859  -4.308059  1.656754
