31
Energy: -16702.7185482 eV PBE+vdW (tier 2 basis)
C    -0.383993  -0.024554  1.418583
C    -1.233188  0.104889  2.663410
O    -0.761881  0.470342  3.738921
H    -0.671817  -0.870439  0.784289
H    0.658254  -0.120931  1.735891
H    -0.472633  0.896169  0.823423
N    -2.585713  -0.167693  2.588727
C    -3.457504  -0.613068  1.492891
C    -3.135669  -2.080812  1.113249
O    -2.310575  -2.381168  0.252605
H    -3.035381  -0.009375  3.485247
H    -4.467205  -0.604089  1.933017
C    -3.498762  0.296030  0.245191
C    -3.609509  1.792066  0.600232
C    -4.621333  -0.171649  -0.691976
C    -4.854307  2.211807  1.387362
H    -2.550585  0.151787  -0.293013
H    -3.574888  2.355199  -0.345556
H    -2.715520  2.096977  1.162884
H    -4.675406  0.473881  -1.578738
H    -4.447499  -1.197113  -1.041439
H    -5.605714  -0.144410  -0.201943
H    -4.891738  1.744776  2.382008
H    -5.784875  1.956213  0.862545
H    -4.859188  3.297883  1.547459
N    -3.829254  -3.008781  1.833252
C    -3.587363  -4.434791  1.717458
H    -4.456889  -2.680198  2.556847
H    -4.530435  -4.979333  1.578983
H    -3.071884  -4.831197  2.604431
H    -2.948913  -4.590810  0.841750
