31
Energy: -16702.7066948 eV PBE+vdW (tier 2 basis)
C    0.320417  0.377736  0.227292
C    0.179226  0.196472  1.726166
O    1.129179  0.322254  2.494523
H    1.270304  -0.059902  -0.097030
H    0.356327  1.454823  0.013175
H    -0.501512  -0.065621  -0.348818
N    -1.085528  -0.105011  2.160415
C    -1.472279  -0.069271  3.569196
C    -0.898191  1.215230  4.230814
O    -1.075838  2.298912  3.681320
H    -1.830248  -0.040561  1.478401
H    -2.548177  0.168021  3.557196
C    -1.374548  -1.455428  4.276989
C    -0.055189  -2.240969  4.121945
C    -2.538026  -2.329570  3.777889
C    1.153711  -1.764231  4.928169
H    -1.552791  -1.271860  5.351513
H    0.210525  -2.278372  3.054685
H    -0.275056  -3.281350  4.409075
H    -3.508501  -1.833011  3.918843
H    -2.569651  -3.286383  4.315438
H    -2.426270  -2.557035  2.707261
H    0.925707  -1.709559  6.006086
H    1.515083  -0.790957  4.576158
H    1.985186  -2.474280  4.823131
N    -0.345518  1.090979  5.466988
C    0.243374  2.236232  6.137475
H    -0.038952  0.170589  5.755785
H    0.279753  2.049397  7.217029
H    -0.376684  3.116897  5.940609
H    1.260310  2.448198  5.771835
