31
Energy: -16702.5269292 eV PBE+vdW (tier 2 basis)
C    0.078852  -0.418897  1.821873
C    -1.101517  0.194875  2.544535
O    -1.011810  1.288046  3.102611
H    0.674784  -0.999875  2.540149
H    0.702317  0.401562  1.454626
H    -0.186728  -1.082848  0.994327
N    -2.288442  -0.499074  2.615462
C    -2.738250  -1.761954  2.025998
C    -1.666993  -2.876388  2.060376
O    -1.327754  -3.496209  1.054588
H    -2.988056  0.029859  3.128951
H    -3.515150  -2.124760  2.724833
C    -3.454992  -1.658999  0.654235
C    -2.640175  -1.064884  -0.519297
C    -4.815346  -0.971049  0.826612
C    -2.533951  0.461195  -0.617329
H    -3.643588  -2.709087  0.381560
H    -3.117308  -1.430417  -1.442709
H    -1.642164  -1.522049  -0.519582
H    -4.716840  0.065950  1.177884
H    -5.446160  -1.511355  1.547585
H    -5.359392  -0.938351  -0.127189
H    -3.516667  0.932929  -0.753440
H    -1.924215  0.735947  -1.488718
H    -2.072495  0.925722  0.261444
N    -1.142508  -3.189475  3.284509
C    -1.448076  -2.638573  4.594461
H    -0.447501  -3.927515  3.231216
H    -1.149836  -3.368947  5.355314
H    -2.525142  -2.462643  4.711382
H    -0.923620  -1.692475  4.792902
