31
Energy: -16702.6309461 eV PBE+vdW (tier 2 basis)
C    0.464461  1.058980  0.916586
C    -0.020157  0.011189  1.902867
O    0.736701  -0.542068  2.692337
H    1.012071  1.834008  1.465760
H    -0.338304  1.530384  0.335120
H    1.171945  0.585202  0.224083
N    -1.368549  -0.258188  1.845958
C    -1.991105  -1.316624  2.633418
C    -2.646584  -2.368915  1.713495
O    -2.213349  -3.516430  1.678500
H    -1.907778  0.209382  1.128335
H    -1.150226  -1.858514  3.087625
C    -2.895757  -0.794171  3.782952
C    -2.047473  -0.004496  4.796264
C    -3.652416  -1.957506  4.435072
C    -2.861948  0.746818  5.850631
H    -3.634677  -0.092109  3.359745
H    -1.425060  0.717208  4.248041
H    -1.341756  -0.696040  5.283623
H    -4.298788  -2.484314  3.719884
H    -4.291331  -1.604771  5.253861
H    -2.952305  -2.698345  4.847359
H    -2.204562  1.342390  6.497841
H    -3.430866  0.070013  6.502303
H    -3.579347  1.438556  5.384022
N    -3.689544  -2.003260  0.891601
C    -4.555457  -0.836708  0.937610
H    -4.031245  -2.797878  0.357868
H    -5.074640  -0.748460  -0.023972
H    -3.989763  0.090901  1.084033
H    -5.313788  -0.895064  1.735248
