31
Energy: -16702.8394841 eV PBE+vdW (tier 2 basis)
C    1.327321  -0.168778  0.561023
C    0.906092  0.197745  1.971260
O    1.757233  0.512279  2.814697
H    1.984291  0.618148  0.172803
H    0.492282  -0.318552  -0.134045
H    1.916901  -1.094057  0.607500
N    -0.431563  0.139176  2.205626
C    -1.243753  0.298821  3.430906
C    -1.041166  1.550912  4.318382
O    -2.021851  1.969985  4.939767
H    -0.983248  -0.119034  1.396693
H    -2.254126  0.472779  3.035539
C    -1.384905  -0.975896  4.320483
C    -0.187804  -1.340284  5.227982
C    -1.896448  -2.161769  3.496860
C    0.973180  -2.126233  4.612838
H    -2.194119  -0.677795  5.006043
H    -0.603353  -1.935101  6.057412
H    0.197975  -0.421086  5.693596
H    -2.086677  -3.029314  4.143423
H    -1.175394  -2.478722  2.730560
H    -2.840467  -1.914457  2.989787
H    0.639079  -3.073034  4.166501
H    1.703564  -2.380637  5.392989
H    1.508805  -1.550170  3.850697
N    0.188733  2.097445  4.393780
C    0.449465  3.238561  5.250147
H    0.961222  1.603493  3.923187
H    1.426567  3.659479  4.989722
H    0.453128  2.959761  6.315286
H    -0.325159  4.002812  5.110729
