31
Energy: -16702.5985452 eV PBE+vdW (tier 2 basis)
C    -0.951950  0.860738  -0.866891
C    -0.421762  -0.055911  0.215747
O    0.319751  -0.999634  -0.054343
H    -1.194864  1.874110  -0.536365
H    -1.864611  0.415554  -1.288527
H    -0.201810  0.900529  -1.662333
N    -0.826427  0.126206  1.520859
C    -1.586641  1.183155  2.191760
C    -2.817782  1.672546  1.396483
O    -3.012244  2.861182  1.149908
H    -0.403869  -0.570615  2.128498
H    -2.025521  0.684960  3.075961
C    -0.724138  2.341900  2.757778
C    0.105114  3.079492  1.692443
C    0.144898  1.815502  3.908470
C    0.826255  4.324171  2.216415
H    -1.449309  3.062929  3.169332
H    -0.569418  3.386662  0.883023
H    0.843060  2.385923  1.257615
H    0.653240  2.633632  4.432280
H    0.923652  1.128566  3.544260
H    -0.458991  1.279092  4.655367
H    1.321236  4.857820  1.394280
H    1.599829  4.082593  2.957529
H    0.119070  5.023891  2.684961
N    -3.728109  0.722759  1.022555
C    -3.732179  -0.709152  1.272509
H    -4.509314  1.116036  0.507191
H    -3.387397  -0.937423  2.289102
H    -3.102504  -1.267960  0.564935
H    -4.762436  -1.072694  1.184812
