31
Energy: -16702.7929854 eV PBE+vdW (tier 2 basis)
C    0.291381  0.394832  0.225926
C    0.172534  -0.089944  1.658118
O    1.157931  -0.391549  2.329870
H    0.822214  -0.364203  -0.361958
H    0.904723  1.304351  0.213305
H    -0.672864  0.608797  -0.251901
N    -1.107053  -0.191015  2.135545
C    -1.418363  -0.530730  3.516977
C    -2.362944  -1.753070  3.619303
O    -3.395016  -1.732316  4.288365
H    -1.866785  0.107526  1.535714
H    -0.449774  -0.846902  3.939431
C    -1.916808  0.685055  4.343580
C    -2.851872  1.646791  3.583521
C    -0.715273  1.463713  4.894361
C    -4.152535  1.069067  3.019362
H    -2.484486  0.256204  5.182562
H    -2.278541  2.139065  2.778887
H    -3.107114  2.456595  4.284517
H    -1.047924  2.311499  5.508901
H    -0.088898  1.865159  4.084109
H    -0.074703  0.826184  5.518456
H    -4.738783  0.566948  3.798083
H    -3.987272  0.319735  2.230538
H    -4.766386  1.867538  2.580402
N    -1.990008  -2.888112  2.953611
C    -0.751279  -3.196652  2.256738
H    -2.662159  -3.639596  3.073475
H    -0.529437  -4.262771  2.387627
H    0.091718  -2.626949  2.664276
H    -0.814766  -2.986228  1.177830
