31
Energy: -16703.0028139 eV PBE+vdW (tier 2 basis)
C    0.531509  -2.330170  1.134032
C    -0.428147  -2.215407  2.304098
O    -0.630508  -3.143566  3.078771
H    0.309268  -3.249852  0.580609
H    1.552202  -2.424508  1.527335
H    0.496423  -1.476135  0.445766
N    -1.065284  -0.997739  2.420014
C    -1.843659  -0.638079  3.598895
C    -3.341656  -0.397668  3.309421
O    -4.075062  0.101940  4.160413
H    -0.736364  -0.242060  1.828479
H    -1.813100  -1.535136  4.238802
C    -1.235091  0.548046  4.381445
C    -1.176638  1.831515  3.530543
C    0.121441  0.164451  4.979612
C    -0.920870  3.104592  4.340152
H    -1.949085  0.729357  5.199391
H    -2.130855  1.944946  2.992045
H    -0.389227  1.736760  2.760711
H    0.517976  0.963873  5.618001
H    0.868474  -0.032496  4.195756
H    0.040822  -0.742267  5.593658
H    0.052866  3.083892  4.847617
H    -1.695798  3.239677  5.107486
H    -0.933671  3.992378  3.693971
N    -3.771525  -0.800218  2.082724
C    -5.165184  -0.756752  1.689373
H    -3.089351  -1.253630  1.485189
H    -5.594486  -1.766371  1.611878
H    -5.285582  -0.245382  0.724746
H    -5.709837  -0.201993  2.461068
