31
Energy: -16702.6854563 eV PBE+vdW (tier 2 basis)
C    -0.020279  0.004328  0.226574
C    -0.114376  0.286443  1.713126
O    0.869011  0.567559  2.396846
H    1.033385  0.044763  -0.060132
H    -0.582359  0.746997  -0.357741
H    -0.427157  -0.984352  -0.027383
N    -1.363590  0.228565  2.279824
C    -2.637186  0.025001  1.614749
C    -3.220531  1.211745  0.808811
O    -4.050351  0.956758  -0.064746
H    -1.361267  0.448406  3.271623
H    -2.500040  -0.739522  0.836438
C    -3.712095  -0.539266  2.582108
C    -4.085641  0.450264  3.702533
C    -3.293685  -1.916605  3.109253
C    -5.300963  0.025791  4.530437
H    -4.603390  -0.668288  1.947911
H    -4.296806  1.431833  3.250384
H    -3.228822  0.598329  4.383374
H    -3.026897  -2.588105  2.281902
H    -4.109927  -2.391713  3.667000
H    -2.424443  -1.854089  3.779257
H    -5.574359  0.806583  5.252166
H    -5.113572  -0.893672  5.100104
H    -6.173500  -0.151677  3.885775
N    -2.823921  2.501625  1.030170
C    -1.980410  3.106707  2.055545
H    -3.298009  3.138265  0.396561
H    -2.126579  4.191492  2.004401
H    -0.912718  2.899953  1.907902
H    -2.262501  2.787319  3.066547
