31
Energy: -16702.6206779 eV PBE+vdW (tier 2 basis)
C    -0.145056  1.293233  -0.382715
C    0.284593  0.663080  0.928360
O    1.473377  0.545155  1.217120
H    0.758858  1.619357  -0.903530
H    -0.801977  2.159080  -0.229612
H    -0.675702  0.566279  -1.011570
N    -0.675639  0.235072  1.818510
C    -2.138087  0.114323  1.736863
C    -2.513662  -1.092716  0.834708
O    -2.452572  -2.234631  1.281453
H    -0.248750  -0.231438  2.613313
H    -2.426736  -0.240777  2.736536
C    -2.925974  1.428196  1.506061
C    -2.394330  2.561448  2.402494
C    -4.420476  1.165411  1.745831
C    -3.013051  3.931194  2.119294
H    -2.801667  1.763126  0.460100
H    -1.303954  2.628619  2.287958
H    -2.565524  2.284544  3.456605
H    -5.026214  2.042588  1.488260
H    -4.604475  0.931098  2.804705
H    -4.795239  0.322341  1.151081
H    -4.090374  3.958274  2.329822
H    -2.872884  4.221267  1.067169
H    -2.541201  4.705835  2.737659
N    -2.854387  -0.812879  -0.456603
C    -3.193241  -1.844093  -1.419371
H    -2.943181  0.157574  -0.731336
H    -2.572393  -1.758354  -2.321570
H    -4.252408  -1.791820  -1.710106
H    -3.004363  -2.812250  -0.944327
