31
Energy: -16702.5956327 eV PBE+vdW (tier 2 basis)
C    -0.660089  -0.046372  2.578043
C    -1.818869  0.227966  3.510230
O    -1.662651  0.344944  4.725112
H    0.140684  -0.506680  3.163637
H    -0.289612  0.912845  2.188682
H    -0.909755  -0.672680  1.715087
N    -3.079512  0.398690  2.978505
C    -3.581988  0.293286  1.604655
C    -3.254487  -1.102755  1.012584
O    -2.488501  -1.259641  0.062571
H    -3.751863  0.653904  3.695187
H    -4.678690  0.334121  1.716458
C    -3.205660  1.443303  0.642267
C    -3.364524  2.839030  1.289272
C    -4.080399  1.347091  -0.616676
C    -2.156329  3.383568  2.055679
H    -2.157346  1.303586  0.336655
H    -4.255187  2.844466  1.941419
H    -3.598430  3.546267  0.478694
H    -3.783297  2.111702  -1.346261
H    -5.140324  1.520601  -0.370942
H    -3.991073  0.369639  -1.104093
H    -2.325250  4.429046  2.348159
H    -1.253452  3.363072  1.428222
H    -1.942545  2.822252  2.972178
N    -3.856251  -2.174071  1.610537
C    -4.724157  -2.205872  2.775494
H    -3.551761  -3.061954  1.223225
H    -5.231976  -3.176288  2.803722
H    -5.502345  -1.433324  2.714035
H    -4.172064  -2.070092  3.717174
