31
Energy: -16703.0108148 eV PBE+vdW (tier 2 basis)
C    0.149273  0.410345  0.017256
C    0.089443  -0.222805  1.394625
O    1.046313  -0.823698  1.879443
H    -0.783631  0.903622  -0.281026
H    0.398329  -0.366545  -0.716041
H    0.962642  1.146505  0.002334
N    -1.096654  -0.047696  2.061906
C    -1.395609  -0.768769  3.282969
C    -2.778280  -1.417194  3.093596
O    -3.536500  -1.072166  2.184289
H    -1.925933  0.198649  1.523022
H    -0.634008  -1.560649  3.376317
C    -1.296224  0.116307  4.566956
C    -2.267907  1.312529  4.596466
C    0.150020  0.588419  4.759229
C    -3.727318  0.996405  4.937826
H    -1.547860  -0.542980  5.417814
H    -2.210761  1.841433  3.631450
H    -1.881868  2.024442  5.342522
H    0.440807  1.298182  3.972741
H    0.861187  -0.246073  4.720619
H    0.257853  1.097656  5.726539
H    -4.300282  1.924366  5.069241
H    -3.800297  0.430860  5.878729
H    -4.229113  0.416664  4.154282
N    -3.094061  -2.377552  4.001913
C    -4.393245  -3.021102  4.050688
H    -2.416784  -2.592483  4.723838
H    -4.926405  -2.764766  3.129660
H    -4.985112  -2.671444  4.909773
H    -4.284016  -4.111461  4.112024
