31
Energy: -16702.6424909 eV PBE+vdW (tier 2 basis)
C    1.734352  0.621803  0.776120
C    0.971353  0.858023  2.068123
O    0.808904  1.979156  2.541930
H    1.208726  1.132105  -0.040795
H    1.851985  -0.437507  0.514684
H    2.726279  1.081852  0.862525
N    0.486650  -0.266682  2.678897
C    -0.358186  -0.212192  3.863973
C    0.308130  0.274675  5.171394
O    -0.412701  0.786889  6.026980
H    0.623028  -1.162973  2.227071
H    -1.122789  0.559384  3.691901
C    -1.082112  -1.575417  4.048179
C    -2.314952  -1.444359  4.961254
C    -0.136252  -2.697244  4.499269
C    -3.220935  -2.677209  4.964918
H    -1.458679  -1.827933  3.039097
H    -2.895009  -0.569684  4.630664
H    -1.989997  -1.207994  5.984604
H    0.733637  -2.807796  3.835477
H    -0.650567  -3.665845  4.505654
H    0.241649  -2.510855  5.514392
H    -4.128325  -2.485777  5.552595
H    -2.731772  -3.556020  5.406513
H    -3.538664  -2.949141  3.947016
N    1.642723  0.100785  5.420954
C    2.741276  -0.382811  4.600515
H    1.894651  0.528659  6.307139
H    3.034416  0.334008  3.819022
H    2.508714  -1.344344  4.130966
H    3.604163  -0.541063  5.258144
