31
Energy: -16702.962391 eV PBE+vdW (tier 2 basis)
C    -1.484065  1.290636  0.344792
C    -1.029700  0.553364  1.588112
O    0.027217  -0.091590  1.602294
H    -2.286518  2.015648  0.528597
H    -1.844319  0.550720  -0.383547
H    -0.624599  1.803115  -0.100558
N    -1.874674  0.629860  2.651704
C    -1.766527  -0.089796  3.932457
C    -0.648936  0.490332  4.841185
O    -0.927424  0.931765  5.956885
H    -2.686155  1.225121  2.545783
H    -2.685619  0.159975  4.479364
C    -1.707896  -1.636371  3.797004
C    -2.988473  -2.241506  3.180815
C    -1.458833  -2.264885  5.175809
C    -3.208039  -2.060447  1.674612
H    -0.858395  -1.889078  3.144046
H    -3.865680  -1.867810  3.736993
H    -2.952747  -3.322439  3.388047
H    -0.517608  -1.923795  5.623553
H    -1.409913  -3.357931  5.085729
H    -2.266395  -2.020264  5.881363
H    -4.003613  -2.730553  1.321412
H    -2.296826  -2.300834  1.108678
H    -3.504172  -1.039106  1.407324
N    0.603287  0.434277  4.322729
C    1.759658  0.947118  5.029112
H    0.691455  0.109941  3.353228
H    2.176638  1.833192  4.527780
H    2.545881  0.182451  5.096103
H    1.444990  1.228892  6.039595
