31
Energy: -16702.8056507 eV PBE+vdW (tier 2 basis)
C    -0.333907  0.939917  -0.076717
C    -0.440787  0.213557  1.252515
O    0.525586  0.028901  1.982839
H    0.493248  0.507099  -0.651311
H    -0.081721  1.990599  0.117547
H    -1.250257  0.902392  -0.679405
N    -1.702267  -0.235708  1.577357
C    -2.020651  -0.766227  2.904606
C    -1.738713  -2.281351  3.029236
O    -1.710736  -2.831092  4.127898
H    -2.477778  0.081534  1.005309
H    -1.322793  -0.297269  3.613570
C    -3.486610  -0.371419  3.273631
C    -3.682940  0.038696  4.751645
C    -4.523839  -1.391299  2.787102
C    -3.724355  -1.067418  5.806989
H    -3.656417  0.563920  2.711563
H    -4.626137  0.608287  4.796135
H    -2.889444  0.759139  5.007394
H    -5.541145  -1.029538  2.989362
H    -4.405741  -2.359704  3.289713
H    -4.445692  -1.571592  1.705110
H    -3.864869  -0.625939  6.803015
H    -2.803303  -1.660668  5.810774
H    -4.560277  -1.760183  5.638089
N    -1.558504  -2.940161  1.853813
C    -1.221237  -4.347437  1.793142
H    -1.502217  -2.371400  1.016689
H    -1.891514  -4.881992  1.106443
H    -1.335786  -4.759590  2.801484
H    -0.181983  -4.499235  1.466857
