31
Energy: -16702.844669 eV PBE+vdW (tier 2 basis)
C    -0.259647  -0.154063  -0.389960
C    -0.066867  0.082502  1.099236
O    1.050610  0.229123  1.588957
H    0.727756  -0.131002  -0.857978
H    -0.887560  0.621820  -0.850654
H    -0.726114  -1.127848  -0.590133
N    -1.186827  0.110777  1.890653
C    -2.590408  0.061330  1.513837
C    -3.249832  1.348867  2.041154
O    -3.123291  1.684712  3.216920
H    -1.006824  0.359288  2.862290
H    -2.653030  0.030940  0.417325
C    -3.306771  -1.186303  2.104962
C    -2.703317  -2.499493  1.567988
C    -4.827314  -1.113049  1.919119
C    -3.063477  -2.864225  0.124313
H    -3.101971  -1.150969  3.187597
H    -3.031996  -3.315262  2.230561
H    -1.609925  -2.450847  1.679164
H    -5.261733  -0.276445  2.480752
H    -5.302408  -2.035135  2.280805
H    -5.111681  -0.990869  0.863470
H    -2.512530  -3.758391  -0.195448
H    -2.815233  -2.063336  -0.587535
H    -4.133496  -3.082334  0.008377
N    -3.962128  2.061866  1.123957
C    -4.682206  3.276790  1.458597
H    -4.026675  1.697810  0.181464
H    -4.362691  4.112188  0.821403
H    -4.453962  3.515660  2.502562
H    -5.768058  3.141584  1.353066
