31
Energy: -16702.994949 eV PBE+vdW (tier 2 basis)
C    -1.953171  -4.393609  0.109115
C    -1.274942  -3.311735  0.929233
O    -0.314699  -2.675936  0.509500
H    -1.188686  -5.073039  -0.285221
H    -2.446231  -3.922597  -0.751387
H    -2.698373  -4.973047  0.668798
N    -1.807991  -3.110139  2.185318
C    -1.429799  -1.975346  3.016352
C    -0.681133  -2.360587  4.311646
O    -0.473539  -1.526288  5.190106
H    -2.684693  -3.574139  2.397349
H    -0.675612  -1.434715  2.420671
C    -2.608584  -1.006519  3.283825
C    -3.886607  -1.683139  3.816713
C    -2.921625  -0.192588  2.023906
C    -3.750741  -2.476295  5.119274
H    -2.233704  -0.327038  4.064428
H    -4.322926  -2.324503  3.028698
H    -4.632108  -0.886021  3.962386
H    -2.042347  0.368205  1.680921
H    -3.729755  0.526877  2.213501
H    -3.245237  -0.839844  1.194568
H    -3.316121  -1.860103  5.916886
H    -3.106096  -3.360316  5.011920
H    -4.732786  -2.831272  5.459713
N    -0.243913  -3.647598  4.371406
C    0.568415  -4.148940  5.460640
H    -0.429576  -4.232819  3.564746
H    1.585371  -4.396402  5.123463
H    0.116773  -5.043460  5.911455
H    0.630439  -3.359051  6.217069
