31
Energy: -16702.6546812 eV PBE+vdW (tier 2 basis)
C    0.675246  -1.213049  0.327689
C    0.479654  -1.334590  1.829044
O    1.255018  -1.963352  2.539328
H    1.651127  -0.750018  0.136154
H    -0.103600  -0.628436  -0.178883
H    0.701136  -2.220705  -0.104897
N    -0.631870  -0.689466  2.320791
C    -0.945812  -0.634853  3.740777
C    -2.122840  -1.548251  4.151032
O    -1.996573  -2.319467  5.097987
H    -1.163430  -0.116536  1.677262
H    -0.086261  -1.101493  4.242060
C    -1.088195  0.827905  4.245925
C    0.268476  1.549485  4.133412
C    -1.654588  0.882696  5.669095
C    0.191325  3.069451  4.284857
H    -1.799515  1.350489  3.577750
H    0.721173  1.312475  3.159100
H    0.949184  1.129506  4.891547
H    -2.656636  0.439739  5.731016
H    -1.731844  1.920148  6.017317
H    -1.009686  0.334479  6.369809
H    1.181411  3.525617  4.152887
H    -0.176312  3.372876  5.274227
H    -0.478433  3.512310  3.532595
N    -3.317750  -1.469976  3.480220
C    -3.701456  -0.673560  2.329675
H    -3.989581  -2.150863  3.820977
H    -4.795765  -0.626723  2.287087
H    -3.343276  -1.095590  1.376570
H    -3.345615  0.361006  2.418433
