31
Energy: -16703.0231152 eV PBE+vdW (tier 2 basis)
C    -0.219577  -0.016836  0.022408
C    -0.315162  -0.260816  1.513796
O    0.237934  -1.227979  2.051923
H    0.839217  0.071195  -0.251127
H    -0.750269  0.882743  -0.312489
H    -0.622374  -0.889410  -0.506699
N    -1.040724  0.649783  2.220870
C    -1.196828  0.581418  3.672992
C    -2.365397  -0.376864  4.039003
O    -3.477875  0.004165  4.402426
H    -1.548558  1.369511  1.720247
H    -0.274118  0.103811  4.032241
C    -1.279641  1.992936  4.290692
C    -1.352217  1.946231  5.830189
C    -2.410050  2.865939  3.725583
C    -0.227535  1.166670  6.515281
H    -0.318673  2.469398  4.023448
H    -2.328249  1.536686  6.128014
H    -1.335064  2.988309  6.185668
H    -2.319517  3.034468  2.641435
H    -2.379643  3.860250  4.191778
H    -3.390179  2.417558  3.923346
H    -0.283869  0.087727  6.314918
H    -0.279517  1.291065  7.605005
H    0.764646  1.515024  6.191075
N    -2.010801  -1.684883  3.905939
C    -2.959605  -2.767620  4.072849
H    -1.106445  -1.868762  3.464206
H    -3.258712  -3.199290  3.105458
H    -3.850773  -2.366131  4.566721
H    -2.529427  -3.564297  4.693803
