31
Energy: -16702.5619057 eV PBE+vdW (tier 2 basis)
C    0.858671  -0.985483  1.601137
C    0.218655  0.216215  2.274832
O    0.873286  1.177894  2.667766
H    1.335372  -0.653560  0.670133
H    0.154721  -1.794925  1.369698
H    1.651072  -1.374697  2.251955
N    -1.139123  0.150221  2.429502
C    -1.925504  1.259352  2.957229
C    -1.574365  1.703495  4.395149
O    -1.668535  2.898679  4.669987
H    -1.632458  -0.652747  2.058228
H    -1.672247  2.160177  2.378838
C    -3.434808  0.967918  2.717214
C    -4.344382  2.213129  2.873815
C    -3.973331  -0.246098  3.486230
C    -4.857683  2.549608  4.277408
H    -3.470758  0.717249  1.641699
H    -5.213466  2.053762  2.215510
H    -3.810316  3.084479  2.466969
H    -5.027310  -0.419397  3.229335
H    -3.916464  -0.101279  4.572780
H    -3.432958  -1.172905  3.244981
H    -5.486572  3.448916  4.232885
H    -4.039520  2.757654  4.975347
H    -5.478689  1.744550  4.693725
N    -1.237430  0.802883  5.370581
C    -0.880054  -0.605490  5.308819
H    -0.986315  1.290382  6.226189
H    0.121122  -0.769590  4.881168
H    -1.608529  -1.184235  4.733754
H    -0.884092  -0.998828  6.332408
