31
Energy: -16702.5305584 eV PBE+vdW (tier 2 basis)
C    -0.899311  -0.376675  -0.318003
C    -0.474265  0.362536  0.930372
O    0.297546  1.317641  0.860784
H    -1.739107  -1.062518  -0.193553
H    -0.039229  -0.964669  -0.661309
H    -1.135555  0.366775  -1.087736
N    -0.929516  -0.032216  2.171599
C    -1.838636  -1.066934  2.638718
C    -1.482374  -2.474515  2.080976
O    -0.408150  -2.709508  1.540785
H    -0.491215  0.528804  2.895348
H    -1.583038  -1.182254  3.706651
C    -3.340218  -0.621019  2.655596
C    -3.991965  -0.330811  1.290974
C    -3.478697  0.607232  3.568375
C    -4.362099  -1.539658  0.428930
H    -3.914918  -1.431487  3.141538
H    -3.346977  0.358573  0.725589
H    -4.912508  0.239725  1.490030
H    -2.982836  1.482545  3.127051
H    -3.033641  0.430794  4.558190
H    -4.536083  0.862119  3.717050
H    -3.493266  -2.138984  0.129008
H    -4.864964  -1.214483  -0.491464
H    -5.054959  -2.210404  0.959143
N    -2.402925  -3.447386  2.349096
C    -2.219615  -4.823303  1.928405
H    -3.303170  -3.174070  2.721173
H    -2.481513  -5.512998  2.740953
H    -1.165001  -4.955956  1.666705
H    -2.831896  -5.064097  1.045682
