31
Energy: -16702.5744789 eV PBE+vdW (tier 2 basis)
C    -0.639260  -0.759147  0.668586
C    -0.331043  -0.829604  2.149632
O    0.407951  -1.698400  2.610869
H    0.185820  -1.242782  0.137984
H    -0.791064  0.253058  0.282879
H    -1.555468  -1.332451  0.464950
N    -0.938426  0.059169  3.011048
C    -1.754118  1.258934  2.797798
C    -2.794181  1.089196  1.670682
O    -2.823492  1.802655  0.669409
H    -0.644468  -0.108255  3.970155
H    -2.360291  1.337113  3.716015
C    -0.914263  2.563421  2.738379
C    -1.776157  3.842020  2.785222
C    0.096689  2.621403  1.589258
C    -2.765939  3.929898  3.949605
H    -0.334133  2.537334  3.680321
H    -2.310911  3.948244  1.831363
H    -1.080169  4.693253  2.845728
H    0.719657  3.520737  1.690499
H    -0.407549  2.666663  0.616714
H    0.774815  1.758290  1.596797
H    -3.224037  4.926816  3.994060
H    -2.273726  3.753502  4.918439
H    -3.591267  3.209453  3.856020
N    -3.736828  0.115309  1.860505
C    -3.876020  -0.833621  2.952282
H    -4.381835  0.039927  1.079965
H    -4.896599  -1.232334  2.937220
H    -3.727481  -0.346142  3.924766
H    -3.169091  -1.672952  2.879239
