31
Energy: -16702.7994649 eV PBE+vdW (tier 2 basis)
C    -0.189829  0.342481  0.037724
C    -0.054039  0.327565  1.546806
O    1.033196  0.291683  2.116254
H    0.813322  0.377711  -0.394131
H    -0.772213  1.204574  -0.314625
H    -0.702667  -0.561616  -0.320633
N    -1.223856  0.364543  2.278631
C    -2.597114  0.290166  1.781405
C    -3.076063  1.616592  1.145584
O    -3.963400  1.627412  0.293956
H    -1.071971  0.235954  3.276105
H    -2.656173  -0.445388  0.965379
C    -3.512415  -0.225483  2.935160
C    -4.797168  -0.949268  2.464279
C    -3.787857  0.834726  4.008869
C    -6.003474  -0.097133  2.062320
H    -2.900701  -1.018019  3.400644
H    -5.097686  -1.614347  3.290180
H    -4.527516  -1.616030  1.630098
H    -4.372937  1.674718  3.613130
H    -2.862591  1.250607  4.432618
H    -4.355538  0.394252  4.839578
H    -5.776889  0.554742  1.211829
H    -6.355745  0.530081  2.892807
H    -6.839055  -0.751137  1.778438
N    -2.450381  2.734364  1.600810
C    -2.766274  4.064561  1.122014
H    -1.682830  2.599432  2.250204
H    -3.108908  4.710679  1.942362
H    -3.569877  3.969501  0.383817
H    -1.894504  4.533292  0.644242
