31
Energy: -16702.7006539 eV PBE+vdW (tier 2 basis)
C    -1.163797  -0.178134  0.108802
C    -0.479056  0.597372  1.219093
O    0.165080  1.621129  1.003205
H    -0.842185  -1.227820  0.075437
H    -0.912633  0.304036  -0.839211
H    -2.255729  -0.168283  0.234801
N    -0.613690  0.118448  2.501293
C    -1.342052  -1.063693  2.951544
C    -2.116842  -0.767072  4.252753
O    -3.330677  -0.937721  4.317498
H    -0.186331  0.727990  3.192384
H    -2.145777  -1.258128  2.231812
C    -0.464983  -2.353365  3.001896
C    -1.329377  -3.568871  3.377152
C    0.794933  -2.227426  3.865743
C    -0.641408  -4.919800  3.172952
H    -0.126969  -2.491852  1.959518
H    -2.255209  -3.539334  2.781364
H    -1.653437  -3.473584  4.426645
H    0.563306  -2.277407  4.940316
H    1.335556  -1.293072  3.657642
H    1.494703  -3.045569  3.655301
H    0.227703  -5.047537  3.832221
H    -0.292468  -5.037825  2.136553
H    -1.333328  -5.745583  3.384198
N    -1.377869  -0.290553  5.300818
C    -1.973706  0.031749  6.585502
H    -0.367176  -0.307952  5.235396
H    -1.545422  0.961105  6.980974
H    -1.824216  -0.773034  7.321037
H    -3.049628  0.162364  6.432437
