31
Energy: -16702.9141952 eV PBE+vdW (tier 2 basis)
C    -1.206689  -0.376398  -0.421528
C    -0.920726  -0.385194  1.068986
O    0.121407  0.057159  1.538607
H    -0.350377  -0.811942  -0.949658
H    -1.298995  0.665820  -0.753840
H    -2.118155  -0.919097  -0.702692
N    -1.909955  -0.943408  1.851548
C    -1.896200  -0.844200  3.308517
C    -1.684163  -2.204405  4.010086
O    -1.748067  -2.308195  5.233890
H    -2.798103  -1.147617  1.404925
H    -0.997549  -0.251556  3.542858
C    -3.147898  -0.077099  3.818804
C    -2.917508  0.553218  5.205395
C    -4.416872  -0.938722  3.758082
C    -4.002946  1.548650  5.619714
H    -3.265235  0.758306  3.105240
H    -1.944650  1.069530  5.186478
H    -2.820393  -0.245340  5.953015
H    -4.564211  -1.399580  2.768934
H    -5.313207  -0.339245  3.959089
H    -4.376631  -1.747776  4.499935
H    -3.739706  2.036130  6.567768
H    -4.977726  1.064002  5.767127
H    -4.135067  2.340450  4.866779
N    -1.411569  -3.250721  3.182587
C    -1.085912  -4.572126  3.678993
H    -1.309396  -3.039508  2.196315
H    -1.706842  -5.337650  3.194393
H    -1.282241  -4.578670  4.756645
H    -0.026536  -4.816167  3.512303
