31
Energy: -16702.6874471 eV PBE+vdW (tier 2 basis)
C    0.308727  0.056832  0.058982
C    0.403434  -0.449929  1.489137
O    1.468021  -0.816163  1.980135
H    1.306960  -0.006471  -0.381501
H    -0.030652  1.101426  0.017412
H    -0.387442  -0.543081  -0.542887
N    -0.754256  -0.472827  2.228724
C    -2.113639  -0.176746  1.785754
C    -2.796011  0.589183  2.936955
O    -3.372414  0.019907  3.862318
H    -0.640877  -0.871346  3.157852
H    -2.021764  0.503242  0.931360
C    -2.902211  -1.419348  1.289635
C    -4.338202  -1.057817  0.865518
C    -2.889556  -2.605945  2.259373
C    -4.454630  0.049579  -0.185985
H    -2.362464  -1.735044  0.377347
H    -4.919286  -0.787583  1.760551
H    -4.803215  -1.974517  0.471296
H    -3.378516  -3.471932  1.792434
H    -3.418064  -2.367175  3.189216
H    -1.865297  -2.910672  2.512180
H    -5.490401  0.146442  -0.537103
H    -3.828569  -0.160357  -1.066485
H    -4.162170  1.034226  0.206213
N    -2.706781  1.954141  2.893676
C    -1.911440  2.772111  1.992062
H    -3.100069  2.401531  3.716284
H    -2.052824  3.822923  2.265827
H    -2.232752  2.661678  0.946188
H    -0.836916  2.544804  2.059657
