31
Energy: -16702.9522216 eV PBE+vdW (tier 2 basis)
C    -0.992481  -0.080059  -0.282373
C    -0.771589  0.278090  1.175118
O    0.321127  0.654416  1.597277
H    -0.738710  0.789033  -0.901980
H    -2.019421  -0.392198  -0.507690
H    -0.301785  -0.887961  -0.554235
N    -1.880964  0.175501  1.972452
C    -1.793816  0.289630  3.414998
C    -2.526584  -0.921485  4.009413
O    -3.368298  -1.541345  3.353230
H    -2.683014  -0.360328  1.645843
H    -0.720972  0.257464  3.660021
C    -2.367313  1.632580  3.965980
C    -3.859334  1.805335  3.630469
C    -1.508114  2.806611  3.484508
C    -4.526850  2.987645  4.336077
H    -2.278993  1.579083  5.065178
H    -4.399328  0.882886  3.892514
H    -3.967288  1.917795  2.539741
H    -1.590886  2.933651  2.396307
H    -0.446989  2.645367  3.712949
H    -1.819709  3.746045  3.958303
H    -4.103138  3.951871  4.025433
H    -4.418194  2.914158  5.428492
H    -5.601825  3.017814  4.113929
N    -2.239738  -1.273159  5.294454
C    -1.253724  -0.708542  6.199309
H    -2.808698  -2.043874  5.632004
H    -0.869972  -1.501021  6.852987
H    -1.669817  0.091104  6.831523
H    -0.403586  -0.300107  5.641770
