31
Energy: -16702.7230907 eV PBE+vdW (tier 2 basis)
C    -0.472826  -0.857629  -0.012850
C    -0.097832  -0.447939  1.404276
O    1.048241  -0.569959  1.830776
H    0.401261  -1.332709  -0.465509
H    -0.747756  0.019483  -0.617225
H    -1.319293  -1.557277  -0.040258
N    -1.090873  0.082960  2.183512
C    -2.489525  0.275999  1.842705
C    -2.944019  1.538863  2.594941
O    -2.542738  1.761366  3.737161
H    -0.815006  0.399895  3.111524
H    -2.561413  0.440492  0.760611
C    -3.363946  -0.976152  2.197304
C    -4.726847  -0.990709  1.482991
C    -3.520180  -1.192676  3.704841
C    -4.657736  -1.198031  -0.032032
H    -2.779622  -1.825115  1.801858
H    -5.285611  -0.072056  1.725948
H    -5.320872  -1.808062  1.920314
H    -3.974021  -2.174840  3.894122
H    -4.163482  -0.429311  4.163242
H    -2.554704  -1.164126  4.224677
H    -5.661908  -1.215384  -0.476344
H    -4.174114  -2.155086  -0.274584
H    -4.090920  -0.410251  -0.547627
N    -3.814555  2.392413  1.979317
C    -4.251262  2.430237  0.592502
H    -4.067584  3.177677  2.571989
H    -4.569418  3.452092  0.358154
H    -5.097202  1.757251  0.392819
H    -3.433544  2.177155  -0.094231
