31
Energy: -16702.6764545 eV PBE+vdW (tier 2 basis)
C    -0.049035  -0.813101  0.361472
C    -0.417188  0.407520  1.181577
O    0.074307  1.516348  0.976850
H    0.742138  -0.527480  -0.336034
H    -0.912277  -1.188507  -0.206623
H    0.303921  -1.638922  0.994575
N    -1.344201  0.229427  2.179864
C    -2.109603  -0.969399  2.479891
C    -3.191600  -1.372685  1.450963
O    -3.458345  -2.569846  1.324721
H    -1.561713  1.085722  2.681469
H    -1.423895  -1.826545  2.448998
C    -2.663965  -0.900841  3.932287
C    -3.173308  -2.258076  4.452416
C    -3.737671  0.177662  4.125087
C    -2.141174  -3.386060  4.464786
H    -1.785624  -0.624460  4.542603
H    -4.049151  -2.571188  3.864702
H    -3.535750  -2.086971  5.478451
H    -3.394615  1.184899  3.848166
H    -4.035366  0.226687  5.180718
H    -4.640065  -0.046509  3.538465
H    -1.886124  -3.714243  3.449062
H    -2.536118  -4.262748  4.994862
H    -1.214738  -3.082810  4.975264
N    -3.841138  -0.442502  0.687438
C    -3.749207  1.010977  0.614248
H    -4.494065  -0.890768  0.051558
H    -2.816334  1.357707  0.150083
H    -3.847014  1.481449  1.599182
H    -4.586645  1.364076  0.002038
