31
Energy: -16702.7703032 eV PBE+vdW (tier 2 basis)
C    -0.191952  0.476993  1.207579
C    -0.655235  -0.426459  2.331517
O    0.125077  -0.890706  3.158249
H    0.878978  0.311362  1.060957
H    -0.339344  1.526082  1.501397
H    -0.725762  0.323073  0.262837
N    -2.003023  -0.725978  2.416257
C    -3.130037  -0.154307  1.672386
C    -3.062001  -0.543031  0.164457
O    -3.420113  0.213080  -0.734424
H    -2.221698  -1.214132  3.280151
H    -4.010520  -0.693492  2.061455
C    -3.410739  1.361301  1.880322
C    -3.046641  1.819813  3.303897
C    -4.882064  1.655058  1.552806
C    -3.208795  3.323486  3.536435
H    -2.790267  1.920398  1.161336
H    -2.006935  1.544272  3.528912
H    -3.665108  1.265947  4.032222
H    -5.144930  1.290063  0.554539
H    -5.084496  2.732955  1.572476
H    -5.545887  1.178454  2.291873
H    -2.843114  3.603676  4.533017
H    -4.255241  3.647843  3.468921
H    -2.634471  3.902374  2.798159
N    -2.612319  -1.810209  -0.055764
C    -2.461015  -2.367023  -1.385321
H    -2.226563  -2.306048  0.740630
H    -2.928862  -3.358469  -1.446773
H    -1.401933  -2.457448  -1.669354
H    -2.956337  -1.690651  -2.089838
