31
Energy: -16702.9494719 eV PBE+vdW (tier 2 basis)
C    -0.172984  0.312028  0.240048
C    -0.313660  0.979398  1.594702
O    0.647614  1.431437  2.211075
H    0.865583  0.419574  -0.082533
H    -0.838965  0.757906  -0.511324
H    -0.414488  -0.758861  0.301602
N    -1.586831  1.081373  2.112419
C    -2.825279  0.527968  1.582726
C    -3.641591  1.506071  0.702869
O    -4.682845  1.132972  0.165653
H    -1.604763  1.476937  3.049298
H    -2.571688  -0.303075  0.908992
C    -3.726882  -0.056437  2.698640
C    -4.153506  1.014856  3.721243
C    -3.068235  -1.278435  3.346257
C    -5.313741  0.583783  4.621137
H    -4.634282  -0.382657  2.167140
H    -4.448606  1.927539  3.179693
H    -3.296397  1.295585  4.358712
H    -2.137815  -1.011602  3.868275
H    -2.821085  -2.038679  2.592253
H    -3.735490  -1.750102  4.078258
H    -5.611363  1.397857  5.294993
H    -5.052939  -0.279277  5.248038
H    -6.192666  0.308895  4.021352
N    -3.119848  2.754119  0.574291
C    -3.744479  3.788908  -0.224789
H    -2.250758  2.941474  1.063123
H    -4.020995  4.655299  0.392161
H    -4.651243  3.363009  -0.667985
H    -3.076772  4.127140  -1.029322
