31
Energy: -16702.7090831 eV PBE+vdW (tier 2 basis)
C    -0.880860  0.489517  0.182726
C    -0.846488  -0.063133  1.597325
O    0.111930  0.100735  2.343520
H    -0.744650  1.577351  0.226621
H    -1.806048  0.266574  -0.363160
H    -0.030089  0.078404  -0.374808
N    -1.981170  -0.731571  1.993917
C    -2.098206  -1.435533  3.274765
C    -1.749195  -0.481569  4.456070
O    -1.119928  -0.848027  5.440697
H    -2.676518  -0.933884  1.285990
H    -3.176342  -1.650133  3.377443
C    -1.353713  -2.792932  3.379222
C    -1.373758  -3.605591  2.062684
C    -1.980316  -3.620872  4.511080
C    -0.181278  -3.393510  1.127433
H    -0.309702  -2.572990  3.647621
H    -2.319204  -3.427223  1.520740
H    -1.403184  -4.671844  2.334479
H    -3.015997  -3.902895  4.260470
H    -1.984369  -3.070860  5.457924
H    -1.412926  -4.549278  4.660914
H    0.762283  -3.606326  1.648885
H    -0.110647  -2.367521  0.749084
H    -0.240268  -4.064025  0.258740
N    -2.298148  0.764265  4.345972
C    -1.971926  1.814184  5.293167
H    -2.639174  1.034006  3.430362
H    -2.768172  2.567890  5.295685
H    -1.012827  2.300625  5.055425
H    -1.890006  1.372298  6.291734
