31
Energy: -16702.8338902 eV PBE+vdW (tier 2 basis)
C    -2.669439  0.495484  0.280796
C    -1.769268  0.028679  1.410594
O    -0.701897  -0.540186  1.214822
H    -3.687004  0.749985  0.603711
H    -2.715705  -0.287067  -0.484285
H    -2.217848  1.383661  -0.182157
N    -2.235796  0.297991  2.678432
C    -1.402864  0.125910  3.867035
C    -1.459353  -1.305095  4.444181
O    -0.555223  -1.724910  5.160682
H    -3.032658  0.920133  2.761984
H    -0.352156  0.232847  3.557544
C    -1.759808  1.234687  4.906097
C    -0.945532  2.523301  4.667209
C    -1.615086  0.801662  6.369218
C    -1.046337  3.171130  3.284417
H    -2.830424  1.471558  4.749210
H    0.110958  2.300427  4.889155
H    -1.262536  3.255673  5.426368
H    -0.583639  0.510860  6.603799
H    -2.258704  -0.052736  6.612366
H    -1.898528  1.634941  7.026454
H    -0.620761  2.540156  2.493119
H    -0.496705  4.121766  3.268541
H    -2.089523  3.394934  3.014080
N    -2.576529  -2.018314  4.130253
C    -2.747779  -3.403127  4.521971
H    -3.178579  -1.622365  3.416676
H    -2.583347  -4.088855  3.677384
H    -3.754862  -3.570958  4.925998
H    -2.006068  -3.623172  5.297347
