31
Energy: -16702.8993885 eV PBE+vdW (tier 2 basis)
C    -2.096156  0.709093  -0.203514
C    -1.121958  0.474092  0.935732
O    0.097022  0.435644  0.759884
H    -3.148217  0.693455  0.106441
H    -1.934488  -0.059535  -0.969282
H    -1.873691  1.680347  -0.662980
N    -1.689111  0.319200  2.166902
C    -0.895541  0.024413  3.345772
C    -1.753058  -0.902094  4.217364
O    -2.980118  -0.768891  4.245015
H    -2.696270  0.256942  2.288367
H    0.015828  -0.472772  2.988554
C    -0.463823  1.336942  4.082860
C    0.695914  1.136211  5.073697
C    -1.639528  2.060174  4.745458
C    2.042313  0.793632  4.432274
H    -0.086561  1.973358  3.265091
H    0.417703  0.382072  5.828020
H    0.807621  2.074317  5.639937
H    -1.323416  3.056318  5.083611
H    -2.016397  1.512497  5.620726
H    -2.481558  2.193456  4.054542
H    2.826099  0.686240  5.194308
H    2.356705  1.584918  3.738033
H    2.017425  -0.139770  3.854830
N    -1.139767  -1.854534  4.976599
C    0.235233  -2.326000  4.944311
H    -1.800412  -2.377782  5.544357
H    0.685049  -2.148690  3.961875
H    0.244554  -3.408083  5.122291
H    0.866604  -1.844169  5.704927
