31
Energy: -16702.5095162 eV PBE+vdW (tier 2 basis)
C    -1.636728  -0.654897  0.031406
C    -0.979675  -0.762531  1.398128
O    0.191436  -1.095802  1.527098
H    -2.721185  -0.825521  0.050612
H    -1.166134  -1.372548  -0.647420
H    -1.453268  0.356813  -0.357241
N    -1.830252  -0.481419  2.446439
C    -1.467811  -0.087067  3.805490
C    -0.952558  1.378630  3.790886
O    -0.587893  1.924184  2.755034
H    -2.732889  -0.123713  2.155133
H    -2.431365  -0.079713  4.341797
C    -0.558960  -1.074419  4.611669
C    0.950932  -0.788417  4.515342
C    -0.924306  -2.530951  4.299266
C    1.787186  -1.594266  5.511657
H    -0.838600  -0.902344  5.665122
H    1.122454  0.283426  4.701685
H    1.284645  -0.974320  3.487165
H    -2.011386  -2.688256  4.330141
H    -0.473603  -3.206537  5.037165
H    -0.564415  -2.822591  3.305046
H    2.837345  -1.274616  5.482951
H    1.771912  -2.670087  5.291417
H    1.430604  -1.462987  6.545669
N    -0.967086  2.069905  4.974981
C    -1.321942  1.622859  6.309680
H    -0.572412  3.000939  4.881269
H    -2.200214  0.965311  6.287361
H    -1.586469  2.498355  6.914255
H    -0.501839  1.089742  6.816156
