31
Energy: -16702.6156913 eV PBE+vdW (tier 2 basis)
C    -0.260157  -0.678927  -0.480163
C    -0.659916  -1.097115  0.924085
O    -0.930330  -2.257702  1.212204
H    0.739834  -1.079970  -0.694164
H    -0.242047  0.408283  -0.631050
H    -0.956061  -1.131128  -1.195544
N    -0.673891  -0.080441  1.846867
C    -0.889454  -0.308783  3.268743
C    -2.367317  -0.168471  3.705941
O    -2.861290  -1.009832  4.451037
H    -0.317591  0.822332  1.557307
H    -0.699909  -1.377706  3.442316
C    0.101087  0.538081  4.122155
C    1.476712  -0.146349  4.263968
C    -0.446923  0.872225  5.515511
C    2.232443  -0.488586  2.977914
H    0.254683  1.495455  3.587275
H    1.337626  -1.063620  4.859346
H    2.105193  0.517070  4.879271
H    -0.667911  -0.040312  6.085263
H    -1.371644  1.461702  5.469036
H    0.293474  1.454356  6.080005
H    1.737594  -1.278365  2.399121
H    3.242137  -0.848165  3.217849
H    2.345287  0.390113  2.325438
N    -3.109445  0.898311  3.270939
C    -2.715401  2.055932  2.489063
H    -4.068962  0.857151  3.599363
H    -1.745950  2.455843  2.815591
H    -3.454904  2.849200  2.648429
H    -2.667453  1.844988  1.409879
