31
Energy: -16702.6667147 eV PBE+vdW (tier 2 basis)
C    -1.335256  0.632837  -0.641301
C    -0.525881  0.717141  0.637104
O    0.406524  1.510450  0.744210
H    -1.489631  1.653444  -1.006216
H    -2.300029  0.127048  -0.550408
H    -0.737084  0.099928  -1.393186
N    -0.794005  -0.155705  1.675305
C    -1.930507  -1.044970  1.942955
C    -2.238631  -2.015557  0.773032
O    -3.381467  -2.375447  0.504372
H    -0.188078  0.038958  2.468479
H    -1.550984  -1.724145  2.727423
C    -3.204130  -0.414074  2.562360
C    -3.960253  0.636600  1.716214
C    -2.907854  0.081654  3.983181
C    -3.461318  2.085419  1.768658
H    -3.886638  -1.273864  2.641974
H    -5.004024  0.627675  2.067994
H    -4.014997  0.285061  0.676990
H    -2.523702  -0.732331  4.615012
H    -3.819348  0.466275  4.460667
H    -2.167375  0.894147  3.996709
H    -3.581203  2.519634  2.770367
H    -4.044605  2.708650  1.077497
H    -2.405714  2.199047  1.496281
N    -1.129751  -2.495781  0.142973
C    -1.200929  -3.408767  -0.979855
H    -0.237788  -2.084310  0.395172
H    -0.512852  -4.252486  -0.839103
H    -0.956211  -2.906560  -1.928277
H    -2.226864  -3.786981  -1.038940
