31
Energy: -16702.6412527 eV PBE+vdW (tier 2 basis)
C    -0.434533  0.791465  -0.922696
C    0.225732  0.384103  0.376534
O    1.441066  0.217557  0.468055
H    0.354648  1.093930  -1.615793
H    -1.155307  1.607874  -0.797620
H    -0.984752  -0.053478  -1.359206
N    -0.568300  0.172030  1.482844
C    -2.007933  0.349594  1.691419
C    -2.822296  -0.463651  0.651022
O    -3.568122  0.066897  -0.169098
H    -0.011610  -0.063945  2.298854
H    -2.202416  -0.121655  2.668844
C    -2.500867  1.815537  1.783088
C    -1.502944  2.737138  2.511423
C    -3.901246  1.857379  2.410293
C    -1.234769  2.420510  3.986020
H    -2.599485  2.187143  0.752075
H    -1.893688  3.763789  2.434245
H    -0.549316  2.739822  1.963948
H    -3.912172  1.411802  3.416195
H    -4.626848  1.318043  1.790714
H    -4.249242  2.894931  2.505349
H    -2.149245  2.467067  4.592350
H    -0.524440  3.141445  4.411374
H    -0.796186  1.421913  4.129192
N    -2.666267  -1.821566  0.683216
C    -1.814960  -2.627741  1.541843
H    -3.185315  -2.295117  -0.049562
H    -1.887396  -2.307300  2.589900
H    -0.757676  -2.593500  1.241492
H    -2.159841  -3.666720  1.494956
