31
Energy: -16702.9035718 eV PBE+vdW (tier 2 basis)
C    -0.582226  -0.638306  0.119714
C    -0.633332  0.311374  1.302052
O    -0.158609  1.451134  1.215312
H    0.470646  -0.836101  -0.118937
H    -1.025954  -0.141490  -0.751331
H    -1.091564  -1.594934  0.287781
N    -1.244536  -0.182895  2.413923
C    -1.347211  0.351106  3.786508
C    -1.935085  1.766532  4.005054
O    -2.385670  2.023928  5.123036
H    -1.600766  -1.125734  2.316597
H    -2.128757  -0.271997  4.244659
C    -0.077636  0.097884  4.654583
C    1.215310  0.804592  4.208032
C    0.163819  -1.411066  4.791636
C    1.241588  2.327620  4.350863
H    -0.359200  0.490420  5.645413
H    1.454458  0.524161  3.170491
H    2.026853  0.381668  4.822012
H    -0.739148  -1.938270  5.132610
H    0.959372  -1.610183  5.521488
H    0.480645  -1.859230  3.837667
H    0.594814  2.822213  3.618213
H    2.259227  2.708677  4.191661
H    0.918803  2.640888  5.353673
N    -1.955221  2.626444  2.962158
C    -2.429577  3.986536  3.136214
H    -1.332214  2.404979  2.174170
H    -2.645753  4.419175  2.153047
H    -1.688060  4.619695  3.650081
H    -3.342370  3.983450  3.742361
