31
Energy: -16702.6945542 eV PBE+vdW (tier 2 basis)
C    -0.284097  0.512772  -0.477045
C    0.048064  0.416667  1.003698
O    1.209730  0.336330  1.398829
H    0.660781  0.521991  -1.026288
H    -0.841136  1.430366  -0.714067
H    -0.885344  -0.341164  -0.816885
N    -0.993126  0.415529  1.893441
C    -2.423612  0.483758  1.639734
C    -2.956937  1.641181  2.508523
O    -2.793348  1.619652  3.727571
H    -0.715110  0.400277  2.872976
H    -2.563202  0.694882  0.572805
C    -3.194457  -0.820303  1.979909
C    -2.640833  -2.063106  1.248522
C    -4.685730  -0.631287  1.668861
C    -1.459541  -2.771225  1.917746
H    -3.087564  -0.974082  3.066572
H    -2.383537  -1.793683  0.210218
H    -3.467390  -2.785588  1.160312
H    -4.852893  -0.502488  0.587830
H    -5.113337  0.238420  2.185531
H    -5.258074  -1.513286  1.983768
H    -0.557045  -2.151507  1.957135
H    -1.205171  -3.692818  1.376495
H    -1.711534  -3.055860  2.949415
N    -3.589456  2.679180  1.889601
C    -3.843320  2.866106  0.469876
H    -3.883131  3.411179  2.529271
H    -4.392840  3.804482  0.341278
H    -4.461103  2.060381  0.049697
H    -2.914209  2.943856  -0.113916
