31
Energy: -16703.0449166 eV PBE+vdW (tier 2 basis)
C    -5.663877  1.108004  0.597259
C    -4.260878  0.814677  1.094687
O    -3.261266  1.121293  0.444871
H    -5.798588  0.626406  -0.379077
H    -5.763875  2.189876  0.444657
H    -6.454265  0.768919  1.278015
N    -4.193334  0.207961  2.318234
C    -2.944475  -0.244546  2.906871
C    -3.120215  -1.734640  3.232733
O    -4.118978  -2.138510  3.830628
H    -5.038816  -0.145850  2.756241
H    -2.174069  -0.096961  2.135667
C    -2.569745  0.554689  4.186000
C    -2.455030  2.068072  3.911576
C    -1.312977  -0.017451  4.854104
C    -1.308896  2.506120  2.995494
H    -3.411647  0.415079  4.885137
H    -2.355838  2.568329  4.888374
H    -3.408407  2.420148  3.490495
H    -0.457423  -0.050718  4.163715
H    -1.479350  -1.035918  5.227965
H    -1.018588  0.605086  5.709852
H    -1.414070  2.086401  1.986297
H    -0.326426  2.216989  3.393942
H    -1.305010  3.599221  2.890123
N    -2.108124  -2.544615  2.820384
C    -2.077563  -3.970117  3.086959
H    -1.334974  -2.118919  2.323783
H    -1.230594  -4.237737  3.734666
H    -2.007394  -4.544881  2.153545
H    -3.011308  -4.229407  3.596801
