31
Energy: -16702.6525452 eV PBE+vdW (tier 2 basis)
C    -0.060695  -0.182503  -0.080778
C    0.109953  -0.002324  1.416548
O    1.211106  -0.039685  1.960276
H    0.921422  -0.409513  -0.503007
H    -0.445416  0.735228  -0.547621
H    -0.754992  -0.997731  -0.325917
N    -1.025092  0.219589  2.160378
C    -2.408711  0.300562  1.697762
C    -3.092723  1.528236  2.333721
O    -3.482451  2.465983  1.642601
H    -0.825884  0.390450  3.141939
H    -2.387482  0.564461  0.634220
C    -3.155878  -1.065745  1.798993
C    -4.531343  -1.048887  1.095817
C    -3.204535  -1.681840  3.201897
C    -5.686543  -0.346469  1.817654
H    -2.518522  -1.735984  1.196958
H    -4.816742  -2.097186  0.913565
H    -4.403663  -0.596730  0.099244
H    -3.559792  -2.719729  3.144466
H    -3.893625  -1.157033  3.878561
H    -2.207851  -1.710746  3.663991
H    -5.509300  0.728134  1.946757
H    -5.881180  -0.782574  2.806943
H    -6.610509  -0.451192  1.233715
N    -3.193106  1.531106  3.696277
C    -3.832674  2.624183  4.408382
H    -3.012904  0.672549  4.202297
H    -3.474116  2.643985  5.443503
H    -4.929855  2.530670  4.408464
H    -3.574521  3.567414  3.915818
