31
Energy: -16702.2971831 eV PBE+vdW (tier 2 basis)
C    0.251904  0.433360  -0.377231
C    0.089883  -0.509441  0.799280
O    0.967825  -1.338396  1.044452
H    0.429290  1.459859  -0.034160
H    -0.616111  0.451531  -1.045452
H    1.128136  0.094557  -0.937038
N    -1.003766  -0.448084  1.637853
C    -2.300051  0.244935  1.724732
C    -3.481488  -0.733339  1.474736
O    -4.339748  -0.855491  2.349159
H    -0.891932  -1.154371  2.363003
H    -2.443169  0.440712  2.798630
C    -2.435012  1.630601  1.029536
C    -1.946318  2.767349  1.955218
C    -3.886271  1.921395  0.616877
C    -0.508651  2.700659  2.473283
H    -1.830128  1.639752  0.114811
H    -2.637071  2.810787  2.814198
H    -2.086491  3.716126  1.413243
H    -3.952163  2.923796  0.173860
H    -4.564500  1.889081  1.480515
H    -4.262617  1.205275  -0.125003
H    0.225967  2.746488  1.658128
H    -0.309187  1.785639  3.045332
H    -0.306755  3.552489  3.136293
N    -3.553664  -1.469422  0.327047
C    -2.723043  -1.430549  -0.862167
H    -4.356118  -2.090997  0.322214
H    -2.579846  -0.403641  -1.224232
H    -3.235867  -1.983788  -1.656293
H    -1.739032  -1.893771  -0.704673
