31
Energy: -16702.4679022 eV PBE+vdW (tier 2 basis)
C    -1.476990  -0.246361  -0.033652
C    -1.049933  -0.375979  1.418896
O    0.125450  -0.490438  1.743180
H    -0.788816  -0.822998  -0.659626
H    -1.393862  0.811196  -0.321321
H    -2.507201  -0.576610  -0.220546
N    -2.101923  -0.376887  2.314598
C    -1.975401  -0.138551  3.747569
C    -1.720955  1.372414  3.995323
O    -1.250623  2.102182  3.129109
H    -2.997468  -0.116738  1.916922
H    -2.969552  -0.367426  4.162237
C    -0.953465  -1.124583  4.424467
C    -1.680549  -2.093762  5.376316
C    0.259675  -0.433188  5.054265
C    -0.819662  -3.265032  5.853004
H    -0.561712  -1.725931  3.594658
H    -2.562017  -2.493441  4.848118
H    -2.068793  -1.551048  6.253446
H    0.728887  0.244597  4.331411
H    1.015110  -1.175404  5.340867
H    0.003439  0.138515  5.958142
H    -0.393279  -3.814643  5.001438
H    -1.413799  -3.974939  6.444035
H    0.015382  -2.933053  6.483940
N    -2.092323  1.886166  5.210946
C    -2.683293  1.226493  6.359631
H    -1.852975  2.868688  5.303106
H    -3.191609  1.978795  6.973840
H    -1.940911  0.713034  6.990703
H    -3.436424  0.490119  6.052450
