30
Energy: -573016.1405557  eV PBE+vdW (tier 2 basis)
C    1.143099  2.163898  1.861788
C    -0.286352  2.346226  2.270037
O    -0.610359  3.491694  2.709666
H    1.798736  2.469167  2.686870
H    1.350521  2.847114  1.024634
H    1.384324  1.141543  1.551466
N    -1.108727  1.278760  2.123209
C    -2.587273  1.127987  2.080488
C    -3.286480  2.323984  1.390654
O    -3.757990  3.269596  2.063823
H    -0.617993  0.454560  1.785603
H    -2.725648  0.269504  1.409741
C    -3.288825  0.628210  3.387105
C    -3.327930  1.387647  4.686341
N    -2.913408  0.847629  5.842618
C    -3.903495  2.672613  5.097770
C    -3.217662  1.716449  6.903674
N    -3.798224  2.797927  6.490248
H    -2.870756  -0.365964  3.597357
H    -4.340701  0.452071  3.100971
H    -2.454361  -0.058177  5.946830
H    -4.766242  3.119044  4.592995
H    -2.965185  1.467709  7.932299
N    -3.392566  2.298596  0.061647
C    -2.976411  1.257880  -0.882877
H    -3.864913  3.117135  -0.324318
H    -3.538447  0.326413  -0.731996
H    -1.897940  1.066193  -0.820776
H    -3.192376  1.615591  -1.893462
Hg    -2.355417  3.780997  3.970598
