30
Energy: -573015.3859469  eV PBE+vdW (tier 2 basis)
C    0.034344  -0.630867  -0.275493
C    0.042312  -0.242762  1.174511
O    1.128966  0.168070  1.662214
H    0.406102  0.215862  -0.868178
H    -0.959908  -0.917269  -0.636174
H    0.738159  -1.460705  -0.424158
N    -1.120999  -0.347760  1.856833
C    -1.397519  0.163402  3.202906
C    -1.084551  -0.921456  4.264912
O    0.052540  -0.973933  4.817162
H    -1.902120  -0.736826  1.334242
H    -0.684515  0.977851  3.396347
C    -2.814590  0.765798  3.246591
C    -3.137996  1.510990  4.496619
N    -4.158901  2.417666  4.577007
C    -2.591016  1.486590  5.809490
C    -4.191928  2.896093  5.864571
N    -3.251061  2.332008  6.620467
H    -3.580722  -0.012278  3.059116
H    -2.900127  1.450254  2.386034
H    -4.776203  2.710704  3.822674
H    -1.773174  0.875348  6.181449
H    -4.904327  3.648806  6.192137
N    -2.019681  -1.806148  4.583588
C    -1.821126  -2.907129  5.533887
H    -2.953043  -1.684677  4.199702
H    -0.795971  -3.280323  5.449488
H    -2.531803  -3.703515  5.294816
H    -1.993595  -2.562312  6.561932
Hg    1.876455  0.146521  3.867311
