30
Energy: -573015.9494416  eV PBE+vdW (tier 2 basis)
C    -3.617168  -0.349751  0.928963
C    -2.758199  -0.563331  2.136851
O    -3.235378  -0.633496  3.281020
H    -3.100936  -0.517679  -0.022347
H    -3.991429  0.684676  0.948635
H    -4.496621  -1.001807  0.994945
N    -1.407201  -0.697573  1.917578
C    -0.359474  -0.812570  2.924616
C    -0.248439  -2.216918  3.570525
O    0.669024  -2.469020  4.429487
H    -1.088668  -0.567200  0.961013
H    0.578215  -0.750689  2.350022
C    -0.250566  0.417967  3.915301
C    -0.907239  0.379232  5.258312
N    -2.191628  0.169871  5.487402
C    -0.317863  0.586258  6.609800
C    -2.426073  0.274175  6.875812
N    -1.342770  0.507619  7.553508
H    -0.655330  1.283441  3.367736
H    0.813910  0.639761  4.066313
H    -2.825836  -0.131196  4.677759
H    0.523212  1.262379  6.800028
H    -3.426267  0.161176  7.289699
N    -1.011803  -3.182648  3.097447
C    -0.958345  -4.588225  3.499574
H    -1.642539  -2.933709  2.337007
H    -0.304398  -4.696174  4.367165
H    -0.562442  -5.190327  2.671301
H    -1.971620  -4.932036  3.737306
Hg    0.771873  -1.370205  6.362226
