30
Energy: -573015.6837488  eV PBE+vdW (tier 2 basis)
C    -2.246843  2.570294  1.481946
C    -1.477806  1.332678  1.179313
O    -0.205958  1.484594  0.957931
H    -2.529412  3.066781  0.540118
H    -3.145855  2.376411  2.075566
H    -1.592982  3.268406  2.020073
N    -2.033117  0.123744  1.150871
C    -3.426964  -0.317309  1.029731
C    -3.467668  -1.683343  1.756983
O    -2.545595  -2.478072  1.502511
H    -1.404606  -0.691369  1.141857
H    -4.102415  0.426172  1.467210
C    -3.824511  -0.558622  -0.494211
C    -2.632623  -0.963210  -1.294296
N    -1.968064  -2.180406  -1.174517
C    -1.758792  -0.148265  -1.966924
C    -0.729587  -2.076782  -1.668131
N    -0.545023  -0.831323  -2.185183
H    -4.640241  -1.292289  -0.531436
H    -4.214237  0.379084  -0.909662
H    -2.322769  -2.986582  -0.653535
H    -1.905179  0.864754  -2.328738
H    0.003597  -2.877449  -1.683813
N    -4.502875  -1.923208  2.562714
C    -4.695358  -3.179064  3.291325
H    -5.176097  -1.179451  2.727277
H    -3.953594  -3.903943  2.947151
H    -5.706458  -3.558471  3.103516
H    -4.568512  -3.011623  4.368104
Hg    0.563542  0.330866  -0.700755
