30
Energy: -573015.6673174  eV PBE+vdW (tier 2 basis)
C    0.518403  0.007567  0.452826
C    0.144990  -0.099738  1.895764
O    0.963176  -0.491309  2.789911
H    1.297172  0.776822  0.331027
H    -0.324719  0.268779  -0.194782
H    0.948622  -0.947331  0.122470
N    -1.114671  0.201737  2.247945
C    -1.705982  0.114676  3.566954
C    -3.226397  -0.133701  3.289926
O    -3.656924  0.300562  2.219575
H    -1.821838  0.393082  1.522435
H    -1.229715  -0.692235  4.135895
C    -1.623225  1.488130  4.373820
C    -0.204984  1.785558  4.651050
N    0.504824  1.252240  5.723884
C    0.754186  2.374484  3.844404
C    1.812385  1.465317  5.528444
N    1.997923  2.172765  4.373866
H    -2.222473  1.394717  5.288958
H    -2.076171  2.274006  3.756726
H    0.103085  0.817358  6.552814
H    0.608041  2.937851  2.928984
H    2.595301  1.183649  6.226873
N    -3.977039  -0.744357  4.216659
C    -3.542702  -1.456133  5.416318
H    -4.951160  -0.862812  3.935360
H    -2.786802  -0.885048  5.967789
H    -3.150315  -2.454423  5.177830
H    -4.410809  -1.575137  6.072356
Hg    3.067817  0.511925  3.104921
