30
Energy: -573015.6614092  eV PBE+vdW (tier 2 basis)
C    0.268207  0.082428  0.362358
C    -0.023096  -0.006752  1.825087
O    0.830598  -0.430834  2.671273
H    0.643392  -0.888527  0.012349
H    1.065016  0.823157  0.190557
H    -0.602253  0.371828  -0.235098
N    -1.245010  0.345835  2.250881
C    -1.762147  0.280525  3.602237
C    -3.306660  0.105797  3.411884
O    -3.764175  0.521623  2.343016
H    -1.992246  0.554240  1.569685
H    -1.291334  -0.551209  4.138842
C    -1.566607  1.639305  4.412256
C    -0.122080  1.872038  4.603403
N    0.627551  1.294737  5.624923
C    0.810885  2.431157  3.746208
C    1.928876  1.455229  5.352710
N    2.074571  2.170316  4.196540
H    -2.108538  1.558331  5.363584
H    -2.021731  2.452758  3.833794
H    0.257742  0.864933  6.471233
H    0.633810  3.011875  2.847209
H    2.739797  1.132920  5.999776
N    -4.046241  -0.427345  4.389687
C    -3.628325  -1.016199  5.658481
H    -5.043111  -0.459692  4.172020
H    -4.245598  -1.897885  5.861416
H    -3.761553  -0.302791  6.484293
H    -2.585395  -1.345831  5.618411
Hg    2.987654  0.474032  2.854990
