30
Energy: -573015.3852178  eV PBE+vdW (tier 2 basis)
C    0.088777  -0.537182  -0.177796
C    0.021610  -0.048195  1.239702
O    1.026320  0.562219  1.693244
H    0.899260  -1.274076  -0.258971
H    0.354928  0.306001  -0.829060
H    -0.852031  -0.980293  -0.522864
N    -1.116310  -0.286206  1.931040
C    -1.479051  0.264035  3.240647
C    -1.003100  -0.683599  4.371625
O    0.123797  -0.515104  4.921416
H    -1.822258  -0.829086  1.439500
H    -0.906099  1.192944  3.375403
C    -2.973933  0.634289  3.250260
C    -3.421729  1.395103  4.451471
N    -4.587207  2.110161  4.485182
C    -2.874420  1.561356  5.753826
C    -4.700149  2.665292  5.737015
N    -3.671213  2.332060  6.514893
H    -3.605037  -0.265947  3.113271
H    -3.160423  1.241643  2.348513
H    -5.249727  2.235543  3.722720
H    -1.959177  1.132952  6.153477
H    -5.534232  3.300717  6.023256
N    -1.785876  -1.684907  4.750259
C    -1.420123  -2.678248  5.766805
H    -2.724094  -1.739367  4.362733
H    -1.684795  -2.316842  6.769137
H    -0.342169  -2.860173  5.725336
H    -1.965758  -3.603556  5.559790
Hg    1.746992  0.822323  3.890893
