30
Energy: -573015.2844445  eV PBE+vdW (tier 2 basis)
C    1.744671  1.050959  0.614226
C    0.979609  0.282862  1.644896
O    1.574297  -0.573130  2.366494
H    2.479217  1.694292  1.119359
H    2.317296  0.340889  0.002307
H    1.113699  1.665133  -0.037174
N    -0.347957  0.513611  1.745215
C    -1.340486  -0.205916  2.533137
C    -1.328373  0.166860  4.026055
O    -0.318759  0.633176  4.613250
H    -0.719560  1.215995  1.109973
H    -2.307463  0.127383  2.129551
C    -1.262406  -1.767875  2.317660
C    -2.411671  -2.484658  2.918609
N    -2.314118  -3.532899  3.792227
C    -3.819936  -2.330104  2.726056
C    -3.586325  -3.967084  4.072243
N    -4.507443  -3.231980  3.446354
H    -0.307797  -2.156345  2.689156
H    -1.268128  -1.924860  1.227305
H    -1.456268  -3.977790  4.110612
H    -4.321955  -1.621789  2.069275
H    -3.787827  -4.816309  4.720640
N    -2.477408  -0.030184  4.684472
C    -2.645990  0.131294  6.127199
H    -3.324744  -0.178624  4.136627
H    -1.695403  -0.054147  6.633874
H    -3.412096  -0.570059  6.474675
H    -2.975621  1.155577  6.354490
Hg    1.863944  -0.246279  4.648236
