30
Energy: -573015.6834294  eV PBE+vdW (tier 2 basis)
C    -2.137832  2.568157  1.389215
C    -1.417755  1.299787  1.094538
O    -0.144821  1.404728  0.850932
H    -1.459897  3.237266  1.935011
H    -2.387331  3.077599  0.445177
H    -3.050039  2.413478  1.973849
N    -2.013443  0.110042  1.095386
C    -3.422266  -0.288509  1.004130
C    -3.493807  -1.638759  1.758186
O    -2.597204  -2.463922  1.509638
H    -1.412657  -0.726089  1.093039
H    -4.067384  0.483838  1.437294
C    -3.851096  -0.546269  -0.508578
C    -2.685471  -1.003893  -1.318674
N    -2.057461  -2.238967  -1.185161
C    -1.797520  -0.230185  -2.020920
C    -0.824477  -2.184168  -1.700040
N    -0.609316  -0.955328  -2.244409
H    -4.689963  -1.254290  -0.518913
H    -4.217646  0.395166  -0.936497
H    -2.428742  -3.023917  -0.643765
H    -1.918011  0.779829  -2.400303
H    -0.117046  -3.007760  -1.711467
N    -4.527336  -1.833705  2.578146
C    -4.748514  -3.069328  3.332645
H    -5.178306  -1.068466  2.733650
H    -4.619626  -2.881434  4.405763
H    -4.022308  -3.817416  3.005418
H    -5.767403  -3.430849  3.151293
Hg    0.556678  0.198362  -0.798583
