30
Energy: -573015.7852430  eV PBE+vdW (tier 2 basis)
C    -0.322922  0.397273  0.267913
C    -0.072839  0.261445  1.739782
O    1.062594  0.666625  2.154065
H    -1.335423  0.111021  -0.036947
H    0.413902  -0.204819  -0.281041
H    -0.146159  1.444346  -0.016679
N    -1.080670  -0.249273  2.481079
C    -1.426867  -0.323305  3.925194
C    -0.677686  0.713213  4.784820
O    0.529598  0.577615  5.122720
H    -1.874779  -0.510339  1.899514
H    -2.489018  -0.048134  3.938245
C    -1.404539  -1.783447  4.519520
C    -0.032474  -2.301713  4.777533
N    0.608613  -2.217852  6.008633
C    0.971471  -2.548928  3.875020
C    1.936945  -2.286261  5.833459
N    2.229515  -2.469287  4.523003
H    -1.937974  -2.433668  3.812368
H    -2.007983  -1.775474  5.437984
H    0.148851  -2.103263  6.910913
H    0.905669  -2.783313  2.816857
H    2.669467  -2.226385  6.632766
N    -1.371783  1.759297  5.233779
C    -2.784925  2.107026  5.039313
H    -0.821609  2.387277  5.821300
H    -2.939317  3.109437  5.448742
H    -3.449164  1.416822  5.575234
H    -3.045255  2.138062  3.974705
Hg    2.198761  -0.362997  3.693207
