30
Energy: -573015.3250062  eV PBE+vdW (tier 2 basis)
C    -0.423034  0.131314  -0.183977
C    -0.250078  -0.063209  1.295786
O    0.867104  -0.479774  1.697190
H    0.268186  0.918414  -0.516058
H    -1.445344  0.402402  -0.471386
H    -0.127771  -0.790489  -0.701796
N    -1.317888  0.221338  2.077702
C    -1.520052  0.116100  3.534329
C    -0.696485  1.174847  4.311858
O    0.492589  0.988528  4.701047
H    -2.119833  0.580764  1.568200
H    -2.574532  0.387701  3.677493
C    -1.370788  -1.301345  4.146067
C    -2.241125  -2.363726  3.607038
N    -2.780913  -3.351482  4.393055
C    -2.634419  -2.728447  2.284441
C    -3.467611  -4.207300  3.575978
N    -3.382049  -3.840662  2.292721
H    -1.507917  -1.205524  5.233043
H    -0.298802  -1.657073  4.041044
H    -2.722775  -3.424982  5.406544
H    -2.382061  -2.226292  1.356203
H    -4.019124  -5.064935  3.953277
N    -1.307064  2.324807  4.574231
C    -0.667709  3.453730  5.257497
H    -2.296016  2.411666  4.353211
H    -1.175636  4.374406  4.955904
H    0.389407  3.497288  4.977996
H    -0.745060  3.335188  6.346427
Hg    1.775798  -0.734250  3.820937
