30
Energy: -573015.3031522  eV PBE+vdW (tier 2 basis)
C    -0.733473  -0.035158  0.153223
C    -0.408066  0.187966  1.600083
O    0.626457  0.862980  1.864595
H    -1.640767  -0.632162  0.007130
H    0.118584  -0.525248  -0.335350
H    -0.861629  0.942825  -0.331787
N    -1.254226  -0.328221  2.522202
C    -1.258028  -0.067861  3.963788
C    -0.455060  -1.159015  4.707079
O    0.804208  -1.040879  4.883696
H    -1.985434  -0.932865  2.156105
H    -0.690301  0.861684  4.122822
C    -2.686646  0.272709  4.499326
C    -3.746480  -0.771452  4.412154
N    -4.623032  -0.914130  3.366359
C    -4.166848  -1.751314  5.347826
C    -5.496175  -1.932881  3.687557
N    -5.226436  -2.446671  4.878155
H    -3.004894  1.186907  3.978392
H    -2.563984  0.549804  5.557094
H    -4.708439  -0.302927  2.557634
H    -3.794214  -1.894327  6.360846
H    -6.292570  -2.252707  3.020437
N    -1.060526  -2.246354  5.141995
C    -0.385697  -3.362046  5.819643
H    -2.079978  -2.295381  5.025327
H    0.470630  -3.699797  5.225749
H    -1.105408  -4.177475  5.928981
H    -0.032552  -3.048279  6.809710
Hg    1.880982  0.620274  3.775228
