30
Energy: -573015.3252773  eV PBE+vdW (tier 2 basis)
C    -0.382231  -0.574700  -0.330882
C    -0.322312  -0.477583  1.165461
O    0.691985  -0.943686  1.744910
H    0.444242  0.014869  -0.753141
H    -1.329948  -0.211645  -0.745108
H    -0.219071  -1.617154  -0.630887
N    -1.358314  0.125111  1.796835
C    -1.395565  0.555342  3.194369
C    -2.003019  -0.556516  4.089910
O    -1.249369  -1.413288  4.635032
H    -2.145075  0.384581  1.207250
H    -0.354045  0.657724  3.531102
C    -2.082578  1.942977  3.341811
C    -1.253022  3.055921  2.796533
N    -0.633067  4.001819  3.562720
C    -0.917636  3.415958  1.460751
C    0.025006  4.862029  2.712180
N    -0.142059  4.513325  1.437328
H    -2.294043  2.115655  4.405893
H    -3.056645  1.940778  2.823442
H    -0.679573  4.095348  4.574950
H    -1.247417  2.932859  0.544924
H    0.600736  5.712092  3.069190
N    -3.315631  -0.617954  4.260881
C    -3.990031  -1.654988  5.053911
H    -3.895562  0.120170  3.872710
H    -3.474742  -2.610625  4.917063
H    -5.024636  -1.736133  4.708918
H    -3.979370  -1.389553  6.118818
Hg    0.970991  -1.723734  3.946124
