30
Energy: -573015.9004717  eV PBE+vdW (tier 2 basis)
C    1.975102  0.900898  1.207579
C    0.903960  0.382836  2.119250
O    1.255489  0.156712  3.324284
H    2.375749  1.828615  1.641632
H    2.806072  0.183841  1.178117
H    1.626629  1.108341  0.189894
N    -0.328092  0.234752  1.585984
C    -1.713399  0.060551  2.102692
C    -1.875031  0.470929  3.582339
O    -1.473823  -0.234654  4.544437
H    -0.334332  0.466689  0.594325
H    -2.291236  0.779699  1.504583
C    -2.353405  -1.335419  1.746817
C    -1.848752  -2.449076  2.597479
N    -2.483592  -2.889473  3.753208
C    -0.572016  -2.945005  2.687732
C    -1.598528  -3.509822  4.548872
N    -0.383379  -3.557219  3.953060
H    -2.148043  -1.533952  0.685791
H    -3.444030  -1.230460  1.831049
H    -3.468486  -2.754120  3.977424
H    0.228486  -2.927174  1.954290
H    -1.832569  -3.931646  5.521634
N    -2.530433  1.612827  3.788436
C    -2.820935  2.169717  5.110891
H    -2.886306  2.122747  2.984315
H    -2.127669  1.744880  5.841068
H    -3.851319  1.932640  5.406726
H    -2.702778  3.257555  5.069330
Hg    0.526669  -1.546213  4.455765
