30
Energy: -573015.8024363  eV PBE+vdW (tier 2 basis)
C    -0.338970  1.616956  0.275970
C    -0.182518  0.834258  1.538844
O    0.927143  0.371453  1.934721
H    -0.013251  0.989412  -0.565968
H    0.325520  2.493448  0.293414
H    -1.364630  1.954160  0.094541
N    -1.286808  0.583080  2.273633
C    -1.342626  -0.263348  3.436008
C    -2.797997  -0.858777  3.429809
O    -3.675525  -0.145675  2.947143
H    -2.219061  0.850700  1.929673
H    -0.560713  -1.030696  3.380151
C    -1.214160  0.547978  4.811941
C    0.149373  1.072350  4.942356
N    0.563864  2.288113  4.520858
C    1.349611  0.399287  5.358724
C    1.956148  2.337628  4.624477
N    2.415688  1.159159  5.176509
H    -1.419738  -0.158016  5.626269
H    -1.984143  1.329981  4.823304
H    -0.037971  3.063779  4.247311
H    1.418687  -0.604224  5.773208
H    2.476037  3.288426  4.755196
N    -2.964406  -2.067486  3.973756
C    -4.263982  -2.746699  4.003133
H    -2.144480  -2.602859  4.244712
H    -4.389133  -3.386135  3.119424
H    -5.056719  -1.992378  4.013990
H    -4.316700  -3.363624  4.906127
Hg    2.778459  1.767751  2.414764
