30
Energy: -573015.3153898  eV PBE+vdW (tier 2 basis)
 C   -0.99937    0.73542    0.41418
 C   -0.64472    0.75545    1.87128
 O    0.29501    1.52451    2.22773
 H   -0.13473    0.37148   -0.15726
 H   -1.18951    1.76578    0.08365
 H   -1.87778    0.11717    0.19737
 N   -1.35657   -0.03136    2.70220
 C   -1.42137    0.02871    4.16733
 C   -0.43853   -0.97088    4.82539
 O    0.79281   -0.93373    4.53038
 H   -2.06114   -0.61170    2.25136
 H   -1.03461    1.01860    4.46457
 C   -2.88853   -0.00637    4.63895
 C   -3.71994   -1.16668    4.19634
 N   -5.08399   -1.18631    4.32985
 C   -3.41472   -2.42244    3.60953
 C   -5.53559   -2.38801    3.84597
 N   -4.53351   -3.14799    3.40892
 H   -3.36261    0.92805    4.29471
 H   -2.89799    0.07983    5.74160
 H   -5.66830   -0.44583    4.71274
 H   -2.43677   -2.81961    3.34622
 H   -6.58903   -2.65504    3.82966
 N   -0.87789   -1.85231    5.71613
 C   -0.01645   -2.80100    6.42645
 H   -1.88069   -1.94711    5.85407
 H   -0.45419   -2.99941    7.40967
 H    0.98390   -2.37139    6.53263
 H    0.05891   -3.74314    5.86651
Hg    1.80788    1.05332    3.87989
