30
Energy: -573015.7934162  eV PBE+vdW (tier 2 basis)
C    0.917262  -0.142502  0.919989
C    0.127504  0.709330  1.860560
O    0.670957  1.416778  2.767247
H    1.531989  0.501629  0.271504
H    1.603883  -0.774029  1.498966
H    0.293998  -0.775509  0.280105
N    -1.211940  0.697715  1.751513
C    -2.167026  1.395022  2.584397
C    -3.452489  0.504125  2.532796
O    -3.623412  -0.156402  1.507981
H    -1.669612  0.035386  1.109030
H    -1.764242  1.509531  3.598771
C    -2.583311  2.818871  1.993165
C    -1.398588  3.697141  2.010916
N    -0.992251  4.428731  3.123837
C    -0.341887  3.784918  1.119674
C    0.255055  4.871624  2.920462
N    0.680990  4.498348  1.676972
H    -3.412517  3.215904  2.592750
H    -2.948957  2.669211  0.969686
H    -1.561610  4.644850  3.940617
H    -0.277848  3.386344  0.112868
H    0.808670  5.497908  3.614187
N    -4.288544  0.555504  3.576831
C    -5.508700  -0.251501  3.645965
H    -3.992092  1.039534  4.419678
H    -5.885618  -0.410105  2.630369
H    -6.249670  0.284031  4.248329
H    -5.307239  -1.228384  4.106533
Hg    2.373245  2.990995  2.304303
