30
Energy: -573015.9013110  eV PBE+vdW (tier 2 basis)
C    0.236096  0.522809  0.644255
C    -0.010626  -0.107687  1.981652
O    0.936333  -0.007325  2.830206
H    1.104491  0.044069  0.171959
H    0.508037  1.575754  0.805853
H    -0.625126  0.477868  -0.031074
N    -1.213785  -0.693586  2.164435
C    -2.020295  -1.162042  3.324904
C    -1.570125  -0.554992  4.671159
O    -0.541192  -0.931337  5.290969
H    -1.779889  -0.651505  1.318867
H    -3.019771  -0.758345  3.108431
C    -2.237724  -2.722893  3.361033
C    -1.043385  -3.474453  3.837598
N    -0.847850  -3.860390  5.158637
C    0.198106  -3.563487  3.258692
C    0.461084  -4.050155  5.387144
N    1.169482  -3.858055  4.249353
H    -2.518294  -3.042659  2.347935
H    -3.113110  -2.919860  3.995466
H    -1.579967  -3.971370  5.858881
H    0.482890  -3.453011  2.216678
H    0.885068  -4.338042  6.344416
N    -2.382454  0.371248  5.179137
C    -2.158456  1.051461  6.456020
H    -3.232838  0.604868  4.673632
H    -2.458549  2.099655  6.354724
H    -1.098938  0.988319  6.716576
H    -2.756317  0.582686  7.248677
Hg    1.470106  -1.614544  4.187783
