30
Energy: -573015.4092098  eV PBE+vdW (tier 2 basis)
C    1.349560  1.436921  0.279141
C    0.901252  0.641225  1.473300
O    1.798163  0.191837  2.236581
H    2.153228  0.890462  -0.229727
H    0.541986  1.646600  -0.430800
H    1.778957  2.384096  0.635168
N    -0.429408  0.456939  1.618420
C    -1.227536  -0.305626  2.602697
C    -1.387218  0.497286  3.917091
O    -0.433804  0.688694  4.721764
H    -0.988060  0.906259  0.897914
H    -2.219930  -0.374434  2.139590
C    -0.748590  -1.770006  2.799317
C    -1.799477  -2.702604  3.238360
N    -1.937437  -3.981665  2.760182
C    -2.796141  -2.606258  4.253891
C    -2.970574  -4.569551  3.436746
N    -3.490720  -3.747923  4.354646
H    0.091350  -1.804420  3.559305
H    -0.273242  -2.113249  1.870321
H    -1.401784  -4.413662  2.010241
H    -2.977597  -1.770069  4.923649
H    -3.315837  -5.577972  3.222630
N    -2.589493  1.006643  4.164961
C    -2.907629  1.820597  5.343826
H    -3.318312  0.889263  3.465464
H    -2.335092  1.458502  6.203057
H    -3.979408  1.736852  5.545470
H    -2.652760  2.872603  5.161715
Hg    1.640554  -0.375340  4.466078
