30
Energy: -573015.5783128  eV PBE+vdW (tier 2 basis)
C    -0.686585  1.311752  1.274835
C    -0.228745  -0.100244  1.373192
O    1.056373  -0.293319  1.282553
H    -0.717422  1.616888  0.217210
H    0.057849  1.955306  1.762225
H    -1.667474  1.473488  1.732288
N    -1.052832  -1.124866  1.562631
C    -2.500534  -1.277789  1.399872
C    -2.872288  -2.378919  2.423838
O    -2.060024  -3.314189  2.545602
H    -0.652810  -2.030140  1.860272
H    -3.013460  -0.326582  1.569694
C    -2.866254  -1.827502  -0.051827
C    -1.763922  -2.682575  -0.581587
N    -1.423009  -3.944173  -0.100069
C    -0.674824  -2.278875  -1.309986
C    -0.165414  -4.242806  -0.444216
N    0.350684  -3.241921  -1.206971
H    -2.997323  -0.976266  -0.731433
H    -3.830470  -2.349815  0.002218
H    -2.000477  -4.512858  0.522076
H    -0.546524  -1.385095  -1.912723
H    0.350383  -5.161127  -0.180523
N    -4.039983  -2.310200  3.066925
C    -5.037562  -1.236771  3.039437
H    -4.200121  -3.082110  3.714562
H    -4.715519  -0.371981  3.634870
H    -5.963429  -1.624100  3.474477
H    -5.262622  -0.923661  2.013212
Hg    1.596339  -1.993550  0.079347
