30
Energy: -573016.2566099  eV PBE+vdW (tier 2 basis)
C    -0.125737  2.636793  -0.523055
C    -0.765012  1.601287  0.352026
O    0.024742  0.795775  0.933233
H    0.575847  2.148939  -1.210566
H    -0.844846  3.239620  -1.087993
H    0.468624  3.304848  0.118280
N    -2.117337  1.632128  0.441649
C    -3.138320  1.065196  1.372008
C    -2.704678  1.125022  2.856489
O    -1.935052  0.271530  3.353832
H    -2.513255  2.355966  -0.152541
H    -3.966269  1.778965  1.267442
C    -3.827798  -0.271986  0.934407
C    -3.143047  -1.610747  0.857382
N    -3.248266  -2.400683  -0.223375
C    -2.417806  -2.444336  1.819465
C    -2.653182  -3.643299  0.043296
N    -2.155347  -3.693545  1.238547
H    -4.284250  -0.073984  -0.045351
H    -4.674665  -0.400794  1.631848
H    -3.694206  -2.147345  -1.106086
H    -2.594788  -2.394774  2.898505
H    -2.629269  -4.434369  -0.703211
N    -3.215319  2.128506  3.569745
C    -2.920072  2.356363  4.986719
H    -3.876009  2.762101  3.128308
H    -2.023130  1.794973  5.259754
H    -2.755735  3.427053  5.148728
H    -3.761796  2.022699  5.607024
Hg    -0.696023  -1.054899  1.777488
