30
Energy: -573015.8031738  eV PBE+vdW (tier 2 basis)
C    -0.496240  1.870303  0.485821
C    -0.283777  0.948703  1.642341
O    0.830177  0.406119  1.901014
H    0.202557  2.717604  0.548529
H    -1.517621  2.258557  0.417739
H    -0.255349  1.329111  -0.440357
N    -1.342289  0.658033  2.428285
C    -1.351087  -0.308397  3.494295
C    -2.826472  -0.851284  3.533093
O    -3.705869  -0.062777  3.192158
H    -2.284663  0.992847  2.185523
H    -0.607468  -1.090703  3.298460
C    -1.092156  0.342670  4.935439
C    0.298628  0.800950  5.018354
N    0.735405  2.038951  4.696096
C    1.494491  0.044027  5.271644
C    2.132563  2.026621  4.700405
N    2.577438  0.779846  5.090672
H    -1.270334  -0.440090  5.683304
H    -1.825020  1.145456  5.087005
H    0.150397  2.860705  4.550591
H    1.548203  -0.999918  5.573188
H    2.701369  2.938337  4.891844
N    -3.003018  -2.104649  3.960414
C    -4.323114  -2.741452  4.013276
H    -2.188163  -2.691816  4.113885
H    -5.082948  -1.968054  4.161789
H    -4.337022  -3.450365  4.847546
H    -4.534470  -3.277439  3.078634
Hg    2.770852  1.672105  2.388013
