30
Energy: -573015.4741249  eV PBE+vdW (tier 2 basis)
C    -0.592971  2.755084  1.081440
C    -0.830413  1.350554  0.660473
O    0.244623  0.649306  0.429964
H    -1.526326  3.291362  1.280432
H    0.071477  2.787684  1.951291
H    -0.080163  3.263047  0.247285
N    -2.053499  0.891105  0.314763
C    -3.278185  1.055402  1.114618
C    -2.837246  1.220918  2.606730
O    -1.717183  0.813250  2.944960
H    -2.031638  0.048878  -0.256802
H    -3.841210  1.940327  0.784852
C    -4.211000  -0.203071  0.936969
C    -3.425287  -1.483267  0.914569
N    -3.313253  -2.286908  -0.222796
C    -2.405235  -1.900112  1.733057
C    -2.229656  -3.076808  -0.128204
N    -1.617960  -2.862663  1.062899
H    -4.779186  -0.101884  0.002076
H    -4.951318  -0.196324  1.747862
H    -3.989098  -2.324363  -0.987318
H    -2.136927  -1.553972  2.725120
H    -1.916409  -3.796712  -0.878598
N    -3.736842  1.783149  3.418497
C    -3.539005  1.962296  4.859669
H    -4.608453  2.124994  3.021763
H    -4.203744  1.295447  5.422590
H    -2.498604  1.731947  5.102448
H    -3.759974  3.000745  5.130374
Hg    -0.031314  -1.411408  0.746016
