30
Energy: -573015.6829933  eV PBE+vdW (tier 2 basis)
C    1.035791  0.268412  1.614486
C    -0.208025  0.973331  2.058764
O    -0.184406  1.861142  2.932169
H    0.900205  -0.365292  0.731599
H    1.402129  -0.352748  2.444747
H    1.816456  1.014115  1.417668
N    -1.374901  0.613302  1.447168
C    -2.704911  1.139831  1.710823
C    -2.983897  2.609320  1.309430
O    -4.111153  3.130184  1.632452
H    -1.321994  -0.143773  0.771907
H    -3.355384  0.593114  1.008106
C    -3.293451  0.719731  3.119432
C    -3.100235  1.581660  4.326109
N    -1.954163  2.076707  4.759397
C    -4.104984  2.044957  5.323985
C    -2.190328  2.766845  5.967755
N    -3.443317  2.768102  6.313508
H    -2.844833  -0.261797  3.341986
H    -4.368015  0.528733  3.003557
H    -1.075617  2.023594  4.132423
H    -5.002136  1.476059  5.590450
H    -1.376853  3.237426  6.516658
N    -2.208649  3.323743  0.504729
C    -1.012947  3.015502  -0.291520
H    -2.607597  4.249954  0.338284
H    -0.111374  3.047646  0.331784
H    -0.929476  3.791180  -1.058165
H    -1.102186  2.046558  -0.788801
Hg    -4.936745  3.397462  3.706112
