30
Energy: -573015.4482846  eV PBE+vdW (tier 2 basis)
 C   -1.19711    2.01567   -0.84835
 C   -0.94913    0.96072    0.17040
 O    0.23914    0.40073    0.12692
 H   -2.13751    2.54906   -0.68141
 H   -1.17481    1.58467   -1.85871
 H   -0.36479    2.73456   -0.80319
 N   -1.81248    0.60227    1.10046
 C   -3.25576    0.74707    1.28902
 C   -3.36682    0.62891    2.84342
 O   -2.44510    0.02097    3.41789
 H   -1.48158    0.13246    1.98754
 H   -3.62451    1.71292    0.92429
 C   -4.08791   -0.41865    0.59511
 C   -3.28672   -1.67064    0.40498
 N   -3.06306   -2.24404   -0.84643
 C   -2.35788   -2.26108    1.22608
 C   -2.00196   -3.06541   -0.80015
 N   -1.51508   -3.10188    0.46669
 H   -4.44312   -0.06985   -0.38380
 H   -4.98591   -0.59745    1.20281
 H   -3.65479   -2.11484   -1.66773
 H   -2.20958   -2.13018    2.29415
 H   -1.62179   -3.64102   -1.63881
 N   -4.44555    1.14307    3.42773
 C   -4.70884    1.06915    4.86883
 H   -5.10624    1.66493    2.85808
 H   -3.89868    0.51175    5.34500
 H   -5.66327    0.56045    5.04734
 H   -4.75325    2.08091    5.28835
Hg    0.14208   -1.68523    0.51850
