30
Energy: -573015.5769554  eV PBE+vdW (tier 2 basis)
C    -0.673228  1.400735  0.799229
C    -0.150773  0.022759  1.004672
O    1.112488  -0.156937  0.744353
H    -1.552929  1.615046  1.414271
H    -0.924447  1.545016  -0.263405
H    0.124220  2.118018  1.032225
N    -0.900012  -0.982540  1.444443
C    -2.350035  -1.175873  1.518169
C    -2.535095  -2.141939  2.714279
O    -1.685877  -3.044873  2.829067
H    -0.428885  -1.835344  1.788405
H    -2.863401  -0.217708  1.641843
C    -2.903547  -1.911658  0.215524
C    -1.861927  -2.813078  -0.358828
N    -1.412476  -3.995653  0.223353
C    -0.903912  -2.491780  -1.285623
C    -0.208289  -4.317989  -0.262006
N    0.157553  -3.417972  -1.213907
H    -3.157022  -1.156081  -0.538484
H    -3.833415  -2.434555  0.475038
H    -1.873680  -4.485038  0.992801
H    -0.895034  -1.682652  -2.009443
H    0.371164  -5.186066  0.037405
N    -3.598074  -2.006942  3.510410
C    -4.621805  -0.958402  3.503792
H    -3.637532  -2.693998  4.263744
H    -4.249151  -0.028961  3.954846
H    -5.470016  -1.309895  4.098531
H    -4.990029  -0.762465  2.490059
Hg    1.536165  -1.993175  -0.298761
