30
Energy: -573015.3439488  eV PBE+vdW (tier 2 basis)
C    -0.725767  -0.429565  -0.552255
C    -0.554669  -0.497641  0.935831
O    0.491097  -1.036153  1.387172
H    -0.776117  -1.452463  -0.949650
H    0.166697  0.037964  -0.990039
H    -1.615890  0.132178  -0.856527
N    -1.528037  0.043675  1.705663
C    -1.456820  0.325329  3.141753
C    -2.112134  -0.825558  3.942446
O    -1.521338  -1.941315  4.040242
H    -2.333266  0.410403  1.203994
H    -0.393432  0.289008  3.426556
C    -1.981672  1.738864  3.452311
C    -1.120430  2.830263  2.905195
N    -1.457239  4.152335  2.972354
C    0.159985  2.828401  2.284114
C    -0.426660  4.874569  2.415045
N    0.557198  4.080289  1.995980
H    -2.038775  1.853133  4.549841
H    -3.013861  1.864934  3.077169
H    -2.308428  4.548176  3.365498
H    0.790364  1.972813  2.057151
H    -0.446694  5.958575  2.337532
N    -3.302954  -0.660357  4.500463
C    -4.004545  -1.708224  5.253310
H    -3.795120  0.216112  4.355290
H    -4.536140  -2.380791  4.567772
H    -4.722187  -1.229914  5.925592
H    -3.278398  -2.287844  5.831667
Hg    0.693225  -2.259196  3.378528
