30
Energy: -573015.5770948  eV PBE+vdW (tier 2 basis)
C    -0.470943  1.318386  1.194797
C    -0.083750  -0.111420  1.331171
O    1.183541  -0.377738  1.185996
H    0.313118  1.936858  1.652235
H    -1.434285  1.544858  1.661509
H    -0.501133  1.593355  0.129218
N    -0.949449  -1.080578  1.605785
C    -2.409345  -1.160881  1.522013
C    -2.782620  -2.205272  2.603246
O    -2.006670  -3.170366  2.728444
H    -0.584591  -1.994337  1.924332
H    -2.863991  -0.179026  1.683463
C    -2.878808  -1.738619  0.111488
C    -1.854923  -2.675341  -0.437377
N    -1.561741  -3.936912  0.074672
C    -0.781476  -2.360597  -1.230110
C    -0.340485  -4.318951  -0.315507
N    0.192739  -3.376518  -1.138258
H    -2.994190  -0.905274  -0.592746
H    -3.867725  -2.200179  0.231583
H    -2.140439  -4.452450  0.740277
H    -0.633240  -1.496848  -1.870917
H    0.135724  -5.255389  -0.041230
N    -3.918649  -2.061197  3.289245
C    -4.869570  -0.946455  3.260340
H    -4.084681  -2.800471  3.972485
H    -4.485674  -0.074915  3.807286
H    -5.791520  -1.275562  3.748412
H    -5.125318  -0.662096  2.232890
Hg    1.569099  -2.153065  0.033256
