30
Energy: -573015.9013202  eV PBE+vdW (tier 2 basis)
C    0.167461  0.511672  0.573657
C    -0.055925  -0.113979  1.917398
O    0.897818  0.007764  2.755759
H    0.437936  1.566161  0.726408
H    -0.703845  0.459845  -0.088071
H    1.030257  0.033903  0.090129
N    -1.247140  -0.718767  2.115467
C    -2.034989  -1.192687  3.286573
C    -1.583586  -0.566568  4.623445
O    -0.542904  -0.920030  5.237030
H    -1.821952  -0.692303  1.275135
H    -3.043315  -0.808369  3.075881
C    -2.224626  -2.756731  3.336344
C    -1.014403  -3.483767  3.810584
N    -0.801782  -3.852446  5.134054
C    0.223660  -3.558766  3.222361
C    0.511830  -4.018319  5.353752
N    1.207865  -3.826798  4.208225
H    -2.505832  -3.089254  2.327517
H    -3.092541  -2.964026  3.977718
H    -1.526309  -3.967966  5.841490
H    0.498429  -3.455431  2.176901
H    0.948579  -4.288686  6.310412
N    -2.406806  0.350557  5.130291
C    -2.183493  1.045835  6.399084
H    -3.265517  0.565876  4.630716
H    -1.120482  1.005600  6.650012
H    -2.764275  0.572316  7.201556
H    -2.504980  2.087012  6.291881
Hg    1.469867  -1.579648  4.120292
