30
Energy: -573016.1420113  eV PBE+vdW (tier 2 basis)
C    -0.377742  -0.761639  0.253299
C    -0.247761  0.157738  1.428533
O    0.663463  1.038453  1.362792
H    0.593262  -1.230696  0.050112
H    -0.625995  -0.155607  -0.630687
H    -1.145249  -1.532527  0.380848
N    -1.118666  -0.024512  2.451153
C    -1.545217  0.825823  3.593960
C    -1.605376  2.328093  3.227079
O    -0.641116  3.089919  3.471110
H    -1.737390  -0.816584  2.296427
H    -2.585234  0.512672  3.755883
C    -0.899884  0.521261  4.986893
C    0.561709  0.680971  5.309811
N    1.295652  -0.321676  5.816347
C    1.474955  1.827818  5.354661
C    2.568055  0.157792  6.168471
N    2.698412  1.419097  5.904182
H    -1.182979  -0.510812  5.236009
H    -1.446174  1.158882  5.704085
H    0.983585  -1.285892  5.938753
H    1.128039  2.848770  5.543714
H    3.322804  -0.496375  6.599806
N    -2.726648  2.786353  2.669557
C    -3.976562  2.077337  2.380095
H    -2.696402  3.784309  2.456736
H    -3.810871  1.229867  1.703452
H    -4.472391  1.739636  3.300148
H    -4.650563  2.776495  1.877301
Hg    1.480285  1.971032  3.146470
