30
Energy: -573015.5636723  eV PBE+vdW (tier 2 basis)
C    -1.024315  -1.200845  3.341503
C    -0.441071  -0.102526  2.534315
O    0.855674  -0.121149  2.405322
H    -0.779707  -2.171439  2.892504
H    -2.104397  -1.092513  3.479910
H    -0.543144  -1.173453  4.333033
N    -1.167773  0.927602  2.070033
C    -2.493164  0.860506  1.431603
C    -2.646680  -0.543930  0.792959
O    -1.643469  -1.082320  0.301393
H    -0.605248  1.719350  1.759267
H    -3.284748  1.078945  2.162417
C    -2.588744  1.966384  0.294953
C    -1.412915  1.911281  -0.625440
N    -1.229268  0.982839  -1.646946
C    -0.160525  2.430186  -0.402690
C    0.071393  0.864651  -1.937028
N    0.793786  1.735220  -1.186861
H    -2.628275  2.956968  0.768868
H    -3.545287  1.827750  -0.224911
H    -1.965034  0.435814  -2.092269
H    0.137774  3.268089  0.222879
H    0.482796  0.186741  -2.678887
N    -3.887462  -1.048839  0.782141
C    -4.247467  -2.324377  0.160666
H    -4.624673  -0.539102  1.262684
H    -3.344095  -2.781673  -0.250876
H    -4.981233  -2.162611  -0.638421
H    -4.684691  -2.992678  0.912084
Hg    1.508962  0.659131  0.555800
