30
Energy: -573015.3038063  eV PBE+vdW (tier 2 basis)
C    -0.834123  -0.466322  0.090910
C    -0.511569  -0.020849  1.486033
O    0.470080  0.760753  1.632887
H    0.044412  -0.965869  -0.337880
H    -1.029274  0.422641  -0.525107
H    -1.701361  -1.134762  0.045950
N    -1.303803  -0.467709  2.488694
C    -1.306085  -0.016224  3.882312
C    -0.410687  -0.935817  4.742656
O    0.839333  -0.705631  4.866063
H    -1.990250  -1.170198  2.224849
H    -0.808545  0.965489  3.901149
C    -2.747657  0.288326  4.404676
C    -3.724444  -0.833588  4.496064
N    -4.607448  -1.188494  3.507876
C    -4.050031  -1.697632  5.573157
C    -5.393165  -2.212106  3.995930
N    -5.061794  -2.528930  5.238583
H    -3.145483  1.093187  3.770390
H    -2.628100  0.720880  5.409340
H    -4.754888  -0.707915  2.623449
H    -3.647408  -1.666435  6.584293
H    -6.175227  -2.681963  3.405011
N    -0.925365  -1.995086  5.335159
C    -0.157394  -2.958340  6.136073
H    -1.940098  -2.132951  5.252765
H    0.694555  -3.333654  5.558349
H    -0.820808  -3.786849  6.397269
H    0.213747  -2.481722  7.051574
Hg    1.766880  0.874770  3.527522
