30
Energy: -573015.7853840  eV PBE+vdW (tier 2 basis)
C    -0.316832  0.329450  0.071450
C    -0.044292  0.233469  1.542406
O    1.138334  0.533516  1.912206
H    0.354268  -0.352568  -0.467531
H    -0.061810  1.346600  -0.259367
H    -1.356843  0.118066  -0.200016
N    -1.081188  -0.131964  2.328498
C    -1.400965  -0.089533  3.780316
C    -0.528586  0.908902  4.565477
O    0.666135  0.667152  4.887825
H    -1.911906  -0.336441  1.776121
H    -2.427992  0.296581  3.794610
C    -1.518257  -1.508122  4.458118
C    -0.202354  -2.151834  4.726377
N    0.471004  -2.062455  5.939665
C    0.750354  -2.556484  3.825044
C    1.781042  -2.280404  5.748330
N    2.024079  -2.570825  4.447315
H    -2.130474  -2.137990  3.797910
H    -2.098886  -1.384810  5.383061
H    0.045544  -1.846595  6.840295
H    0.636954  -2.846088  2.784696
H    2.533203  -2.249712  6.530907
N    -1.100077  2.045278  4.965432
C    -2.474711  2.525898  4.778482
H    -0.474036  2.644514  5.505154
H    -3.192141  1.939531  5.366976
H    -2.757760  2.523609  3.719211
H    -2.515439  3.560430  5.131139
Hg    2.191633  -0.528172  3.486892
