30
Energy: -573015.3857415  eV PBE+vdW (tier 2 basis)
 C   -1.20461   -2.04230   -0.70797
 C   -0.75220   -1.37591    0.55862
 O    0.40460   -1.64643    0.97860
 H   -2.19136   -1.70229   -1.04160
 H   -1.21837   -3.12919   -0.55084
 H   -0.46524   -1.84096   -1.49482
 N   -1.61163   -0.51993    1.15727
 C   -1.31299    0.39046    2.26738
 C   -1.61247   -0.29764    3.62361
 O   -0.70240   -0.91721    4.24715
 H   -2.52621   -0.43933    0.71945
 H   -0.22793    0.56850    2.26159
 C   -2.00796    1.74390    2.02638
 C   -1.61198    2.82716    2.97092
 N   -1.80551    4.15394    2.70061
 C   -1.03234    2.81832    4.26984
 C   -1.35356    4.87060    3.78215
 N   -0.89072    4.06978    4.74095
 H   -3.10973    1.62690    2.02301
 H   -1.76047    2.05410    0.99738
 H   -2.19346    4.55320    1.84854
 H   -0.74502    1.95758    4.86766
 H   -1.37620    5.95673    3.81649
 N   -2.83972   -0.24030    4.12297
 C   -3.25259   -0.89521    5.37004
 H   -3.52710    0.34346    3.65387
 H   -3.03179   -0.25218    6.23214
 H   -2.71185   -1.83984    5.48108
 H   -4.32940   -1.08172    5.32365
Hg    1.26019   -1.55320    3.14088
