30
Energy: -573015.7857893  eV PBE+vdW (tier 2 basis)
C    -0.286493  0.507186  0.190018
C    -0.035865  0.375358  1.662132
O    1.116726  0.738358  2.068076
H    0.422285  -0.130249  -0.355947
H    -0.067681  1.543210  -0.105525
H    -1.311331  0.260331  -0.107995
N    -1.060230  -0.087335  2.412258
C    -1.403000  -0.132727  3.858381
C    -0.608664  0.881319  4.704188
O    0.593369  0.699953  5.039351
H    -1.866697  -0.321781  1.836382
H    -2.453039  0.185554  3.872716
C    -1.437403  -1.586437  4.467534
C    -0.086372  -2.157479  4.725191
N    0.562854  -2.088021  5.952899
C    0.902842  -2.453867  3.821211
C    1.886569  -2.211950  5.773229
N    2.165858  -2.419194  4.463500
H    -2.000065  -2.221492  3.769306
H    -2.035819  -1.544641  5.388366
H    0.111984  -1.946171  6.855796
H    0.823077  -2.695500  2.765644
H    2.624327  -2.174190  6.569064
N    -1.257465  1.959864  5.143995
C    -2.656106  2.362919  4.951352
H    -0.679562  2.571185  5.722394
H    -2.768338  3.374022  5.353051
H    -3.345752  1.704575  5.495199
H    -2.918907  2.395785  3.887391
Hg    2.216899  -0.321588  3.612843
