30
Energy: -573015.9508750  eV PBE+vdW (tier 2 basis)
C    -3.749545  -0.268234  1.165070
C    -2.755394  -0.484822  2.263808
O    -3.104758  -0.675132  3.440140
H    -4.548160  -1.015165  1.252845
H    -3.318976  -0.302903  0.158592
H    -4.222039  0.714017  1.313513
N    -1.428077  -0.482890  1.904546
C    -0.275485  -0.573407  2.792210
C    0.018054  -2.002675  3.313129
O    1.042334  -2.228386  4.049713
H    -1.222207  -0.259730  0.934347
H    0.589102  -0.387469  2.135686
C    -0.166046  0.588940  3.862439
C    -0.671116  0.392825  5.255980
N    -1.901667  0.048783  5.592373
C    0.037633  0.554757  6.555366
C    -1.996566  0.029010  7.000928
N    -0.871842  0.312482  7.585647
H    -0.698379  1.450139  3.429311
H    0.885929  0.896385  3.924193
H    -2.590303  -0.247849  4.826554
H    0.832832  1.291268  6.716501
H    -2.934266  -0.206831  7.500453
N    -0.713088  -2.998564  2.851550
C    -0.500375  -4.416997  3.138993
H    -1.442460  -2.757475  2.182287
H    -1.448826  -4.865439  3.456441
H    0.253472  -4.522540  3.921703
H    -0.151575  -4.925570  2.230699
Hg    1.259794  -1.268529  6.046984
