30
Energy: -573015.4473229  eV PBE+vdW (tier 2 basis)
C    -0.163670  1.990539  -0.160161
C    -0.381609  0.698830  0.544395
O    0.590809  -0.178006  0.430381
H    0.824320  2.375694  0.135087
H    -0.924634  2.737260  0.084918
H    -0.118115  1.831448  -1.246299
N    -1.439732  0.417325  1.279238
C    -2.794122  0.956494  1.399630
C    -3.162814  0.514039  2.852547
O    -2.546344  -0.469093  3.302893
H    -1.391735  -0.329055  2.026200
H    -2.816120  2.046572  1.285088
C    -3.809972  0.307922  0.360343
C    -3.378789  -1.049979  -0.104257
N    -3.146756  -1.353658  -1.445472
C    -2.787006  -2.076770  0.589344
C    -2.381462  -2.451968  -1.549273
N    -2.115858  -2.935451  -0.308779
H    -3.901484  0.970824  -0.510450
H    -4.801869  0.281317  0.832728
H    -3.549830  -0.856658  -2.240382
H    -2.765977  -2.253966  1.660813
H    -2.061743  -2.903329  -2.483761
N    -4.125233  1.185044  3.479216
C    -4.607584  0.857074  4.824984
H    -4.520689  2.005866  3.028385
H    -4.059606  -0.014413  5.191108
H    -5.680160  0.633019  4.792341
H    -4.435008  1.706648  5.495789
Hg    -0.152207  -2.158567  0.235404
