30
Energy: -573015.6829145  eV PBE+vdW (tier 2 basis)
C    1.063278  0.329008  1.511353
C    -0.192294  1.000439  1.973996
O    -0.175730  1.914813  2.819717
H    1.811285  1.096411  1.275361
H    0.926182  -0.330667  0.647926
H    1.473832  -0.258751  2.345333
N    -1.362911  0.578422  1.411086
C    -2.703379  1.061554  1.703000
C    -3.052920  2.506166  1.267962
O    -4.190635  2.990692  1.610304
H    -1.302017  -0.196338  0.756876
H    -3.354109  0.468932  1.038828
C    -3.229797  0.663279  3.142422
C    -3.033446  1.570098  4.315191
N    -1.894848  2.122592  4.695482
C    -4.023958  2.025986  5.330627
C    -2.120096  2.841509  5.889057
N    -3.360681  2.805460  6.275285
H    -2.735271  -0.292343  3.379835
H    -4.298945  0.426866  3.067579
H    -1.034911  2.082733  4.042294
H    -4.889030  1.431704  5.643678
H    -1.309064  3.360477  6.396374
N    -2.331131  3.226879  0.420308
C    -1.147170  2.943644  -0.402476
H    -2.772582  4.130829  0.239407
H    -1.212494  1.959000  -0.871902
H    -0.230311  3.027106  0.193089
H    -1.115907  3.701220  -1.190801
Hg    -4.959938  3.293279  3.700808
