30
Energy: -573015.4092510  eV PBE+vdW (tier 2 basis)
C    1.735366  1.107746  0.630248
C    1.106376  0.203829  1.653991
O    1.876361  -0.547443  2.310744
H    2.283822  1.900125  1.159987
H    2.472281  0.535187  0.054195
H    1.008130  1.562728  -0.051347
N    -0.238302  0.262070  1.773331
C    -1.198648  -0.490330  2.609780
C    -1.223868  0.072458  4.052030
O    -0.275550  -0.093424  4.867973
H    -0.676748  0.938045  1.153787
H    -2.172551  -0.268181  2.155751
C    -1.032730  -2.031919  2.524162
C    -2.259788  -2.794784  2.805455
N    -2.644531  -3.912425  2.108133
C    -3.236793  -2.680976  3.838252
C    -3.789038  -4.389386  2.685664
N    -4.150487  -3.656814  3.744398
H    -0.231512  -2.376721  3.248143
H    -0.620145  -2.287864  1.538677
H    -2.193040  -4.303307  1.283902
H    -3.258827  -1.958594  4.649677
H    -4.327009  -5.252012  2.300529
N    -2.298764  0.770874  4.402883
C    -2.471267  1.404118  5.715406
H    -3.016812  0.938802  3.702613
H    -3.541717  1.523668  5.905706
H    -1.986315  2.388839  5.731589
H    -2.021451  0.772703  6.487633
Hg    1.547557  -1.491012  4.388706
