30
Energy: -573015.7933279  eV PBE+vdW (tier 2 basis)
C    0.924645  0.071519  0.651558
C    0.153800  0.803452  1.702352
O    0.717367  1.456473  2.637175
H    1.471583  0.796229  0.027798
H    1.670907  -0.571136  1.136828
H    0.294034  -0.536270  -0.005331
N    -1.187877  0.739288  1.662367
C    -2.124427  1.318252  2.600631
C    -3.372916  0.376660  2.535023
O    -3.568595  -0.203885  1.467116
H    -1.652621  0.112570  0.989815
H    -1.672621  1.363341  3.599717
C    -2.630161  2.767067  2.159277
C    -1.483120  3.693681  2.192944
N    -1.044387  4.343291  3.343872
C    -0.483355  3.907082  1.258364
C    0.170073  4.858900  3.114971
N    0.539402  4.615575  1.822251
H    -3.440442  3.073310  2.833371
H    -3.045443  2.689489  1.146802
H    -1.574747  4.461268  4.205679
H    -0.460458  3.601204  0.217928
H    0.736246  5.446795  3.831741
N    -4.155840  0.303524  3.618253
C    -5.336649  -0.560947  3.677763
H    -3.836417  0.729298  4.483819
H    -6.071236  -0.105537  4.349913
H    -5.073306  -1.558888  4.054249
H    -5.752504  -0.660961  2.670021
Hg    2.325068  3.139357  2.222729
