30
Energy: -573016.2558099  eV PBE+vdW (tier 2 basis)
C    -0.361996  2.902149  -0.490824
C    -0.876796  1.795501  0.379499
O    0.000768  1.048306  0.910487
H    0.347045  2.491206  -1.219822
H    -1.150990  3.457782  -1.008833
H    0.203155  3.600525  0.144475
N    -2.222658  1.707314  0.516882
C    -3.160262  1.032707  1.463377
C    -2.685898  1.095573  2.935279
O    -1.817680  0.311951  3.382470
H    -2.698773  2.408431  -0.044848
H    -4.049287  1.674274  1.401705
C    -3.745218  -0.348938  1.012111
C    -2.950882  -1.621882  0.886470
N    -3.024709  -2.399180  -0.206034
C    -2.123858  -2.405961  1.807289
C    -2.315994  -3.589841  0.015877
N    -1.775006  -3.617461  1.192903
H    -4.243536  -0.170058  0.049205
H    -4.558783  -0.564907  1.727467
H    -3.520118  -2.169717  -1.068640
H    -2.267071  -2.390198  2.892308
H    -2.249304  -4.362676  -0.746879
N    -3.272288  2.021020  3.694436
C    -2.955902  2.237956  5.108679
H    -4.004845  2.598354  3.290819
H    -3.753148  1.827548  5.741515
H    -2.012314  1.739525  5.343614
H    -2.867322  3.313971  5.293909
Hg    -0.529328  -0.873276  1.736102
