30
Energy: -573015.3442704  eV PBE+vdW (tier 2 basis)
C    -0.605499  -0.586247  -0.399995
C    -0.465112  -0.551029  1.092420
O    0.599853  -0.996643  1.597068
H    -1.521448  -0.102023  -0.756426
H    -0.582810  -1.632865  -0.732861
H    0.266127  -0.090910  -0.849126
N    -1.486009  -0.022180  1.807371
C    -1.464744  0.352236  3.223711
C    -2.069869  -0.783975  4.082764
O    -1.418215  -1.855185  4.259426
H    -2.299482  0.263735  1.267822
H    -0.407944  0.397650  3.531015
C    -2.078944  1.748116  3.433680
C    -1.269214  2.854345  2.839812
N    -1.680502  4.156882  2.827022
C    0.020448  2.890580  2.239349
C    -0.681664  4.904284  2.245579
N    0.352419  4.145033  1.886888
H    -2.171214  1.925250  4.520418
H    -3.106646  1.788996  3.028348
H    -2.559255  4.525296  3.184485
H    0.701384  2.060747  2.070267
H    -0.760437  5.979510  2.107160
N    -3.279493  -0.654040  4.608957
C    -3.936550  -1.691217  5.414562
H    -3.817687  0.181447  4.399500
H    -4.673747  -1.210465  6.063734
H    -3.186452  -2.210093  6.019131
H    -4.439660  -2.418736  4.764531
Hg    0.827365  -2.079502  3.665390
