30
Energy: -573015.3154719  eV PBE+vdW (tier 2 basis)
C    -0.921617  0.080950  0.021869
C    -0.499488  0.169623  1.458343
O    0.544919  0.836988  1.713925
H    -1.879028  -0.435664  -0.109988
H    -0.136431  -0.433625  -0.548473
H    -0.998209  1.098154  -0.386206
N    -1.264793  -0.451626  2.377284
C    -1.254762  -0.270462  3.833882
C    -0.374927  -1.333855  4.536532
O    0.839265  -1.470566  4.202024
H    -2.057080  -0.969260  2.001930
H    -0.734796  0.681855  4.035141
C    -2.692154  -0.081632  4.358023
C    -3.681987  -1.154097  4.035873
N    -5.030583  -0.987008  4.215720
C    -3.563670  -2.478671  3.540260
C    -5.651037  -2.152608  3.843485
N    -4.772931  -3.066199  3.434877
H    -3.059567  0.878490  3.958599
H    -2.641678  0.084943  5.450240
H    -5.499454  -0.150769  4.558056
H    -2.656131  -3.017683  3.276930
H    -6.729519  -2.281427  3.883145
N    -0.882182  -2.088180  5.504342
C    -0.115169  -3.083900  6.257367
H    -1.882724  -2.047196  5.680222
H    -0.529322  -3.150316  7.268228
H    0.934823  -2.779585  6.293326
H    -0.184128  -4.067100  5.772237
Hg    2.054358  0.318427  3.353806
