30
Energy: -573015.9003275  eV PBE+vdW (tier 2 basis)
C    2.077980  0.924306  1.530089
C    0.924646  0.395501  2.328416
O    1.164399  0.141841  3.555375
H    2.876208  0.170181  1.503759
H    1.811239  1.216903  0.508852
H    2.488928  1.797289  2.056568
N    -0.253071  0.263976  1.680513
C    -1.680894  0.083100  2.061958
C    -1.979284  0.467965  3.526798
O    -1.668572  -0.254985  4.509293
H    -0.167089  0.517852  0.697945
H    -2.199530  0.814146  1.425249
C    -2.286956  -1.304341  1.623149
C    -1.870113  -2.434259  2.499273
N    -2.612755  -2.888266  3.583321
C    -0.610157  -2.940525  2.700559
C    -1.809507  -3.526972  4.448292
N    -0.544247  -3.573538  3.968226
H    -1.980952  -1.486545  0.583657
H    -3.380322  -1.195789  1.603609
H    -3.613635  -2.749692  3.716667
H    0.255533  -2.917617  2.045423
H    -2.135708  -3.962069  5.388142
N    -2.650872  1.607088  3.691446
C    -3.061574  2.140566  4.991359
H    -2.930891  2.132507  2.867490
H    -2.933211  3.228024  4.983333
H    -2.442825  1.695964  5.774822
H    -4.116581  1.905752  5.184031
Hg    0.326818  -1.576362  4.582387
