30
Energy: -573015.5624532  eV PBE+vdW (tier 2 basis)
C    -0.848472  -1.776093  2.818763
C    -0.253702  -0.600698  2.138268
O    1.017448  -0.690734  1.862944
H    -0.742047  -2.669557  2.191074
H    -1.894142  -1.615076  3.098043
H    -0.266775  -1.955823  3.737663
N    -0.927416  0.540742  1.926858
C    -2.317049  0.686747  1.461293
C    -2.693089  -0.580974  0.652999
O    -1.823787  -1.109320  -0.055500
H    -0.330793  1.330552  1.681502
H    -2.991297  0.858335  2.312444
C    -2.424459  1.959858  0.516176
C    -1.355645  1.963753  -0.527896
N    -1.353073  1.191330  -1.686419
C    -0.049070  2.360657  -0.375202
C    -0.103012  1.036681  -2.136751
N    0.760437  1.735456  -1.355413
H    -2.326407  2.865003  1.131384
H    -3.436828  1.975333  0.092600
H    -2.171010  0.759929  -2.115049
H    0.377760  3.070769  0.328968
H    0.174517  0.455584  -3.011142
N    -3.968254  -0.980479  0.753617
C    -4.534271  -2.107059  0.010021
H    -4.580858  -0.494364  1.403658
H    -5.324646  -1.757755  -0.665800
H    -4.963355  -2.833693  0.709989
H    -3.736926  -2.583005  -0.566507
Hg    1.563219  0.348900  0.107417
