30
Energy: -573015.3443754  eV PBE+vdW (tier 2 basis)
C    -0.182387  -0.431859  -0.205022
C    -0.161344  -0.375831  1.293314
O    0.891236  -0.736420  1.884307
H    0.683101  0.123215  -0.591823
H    -1.100735  -0.018756  -0.636732
H    -0.057677  -1.476249  -0.521926
N    -1.271489  0.079797  1.920343
C    -1.388157  0.466451  3.328669
C    -1.972739  -0.704672  4.154549
O    -1.259205  -1.722522  4.396170
H    -2.059867  0.299073  1.316199
H    -0.364757  0.593073  3.715819
C    -2.117738  1.814602  3.470471
C    -1.346464  2.972037  2.925102
N    -1.849795  4.240112  2.857562
C    -0.018224  3.097978  2.430100
C    -0.864603  5.053654  2.346173
N    0.248355  4.369896  2.084888
H    -2.308072  1.993844  4.544032
H    -3.110656  1.775652  2.985862
H    -2.779953  4.544893  3.136326
H    0.733620  2.319691  2.330713
H    -1.010494  6.118410  2.183508
N    -3.225948  -0.662038  4.583961
C    -3.864503  -1.740257  5.349654
H    -3.807156  0.128682  4.322203
H    -3.129645  -2.191025  6.023590
H    -4.251527  -2.512519  4.672424
H    -4.689637  -1.313650  5.926687
Hg    1.035462  -1.783262  3.978876
