30
Energy: -573015.2294156  eV PBE+vdW (tier 2 basis)
C    -0.587111  -0.599438  -0.080143
C    -0.658773  -0.406043  1.396089
O    0.227268  -0.881662  2.187100
H    -0.447089  -1.667968  -0.292480
H    0.306211  -0.086359  -0.466285
H    -1.463764  -0.225993  -0.619699
N    -1.699737  0.268919  1.912477
C    -1.903897  0.554897  3.316892
C    -0.915907  1.645210  3.813745
O    0.078998  1.951127  3.106717
H    -2.407685  0.605759  1.264090
H    -2.927864  0.941960  3.392996
C    -1.785376  -0.717572  4.286316
C    -2.089680  -2.022256  3.676027
N    -3.328448  -2.482568  3.343858
C    -1.207262  -3.083818  3.280298
C    -3.172389  -3.739394  2.789183
N    -1.894431  -4.103213  2.740032
H    -2.468143  -0.519587  5.124716
H    -0.765359  -0.763614  4.682332
H    -4.221425  -2.030747  3.528012
H    -0.131780  -3.117504  3.423864
H    -4.017517  -4.337316  2.455410
N    -1.133999  2.248239  4.984702
C    -2.309152  2.237224  5.855709
H    -0.381228  2.885214  5.252471
H    -3.193538  1.871201  5.325025
H    -2.511210  3.264118  6.181007
H    -2.129775  1.620744  6.746385
Hg    2.002063  0.609440  2.615152
