30
Energy: -573015.3371714  eV PBE+vdW (tier 2 basis)
C    -1.470396  -2.052273  -0.862795
C    -0.901513  -1.390856  0.355162
O    0.324061  -1.565610  0.613343
H    -1.412952  -3.142178  -0.736060
H    -0.840518  -1.799614  -1.726651
H    -2.504433  -1.754711  -1.069167
N    -1.729080  -0.628785  1.104550
C    -1.354309  0.319009  2.154510
C    -1.524801  -0.329837  3.544229
O    -0.923628  -1.414974  3.816773
H    -2.705576  -0.627810  0.817079
H    -0.270119  0.493981  2.052207
C    -2.092445  1.667720  1.864695
C    -1.873660  2.762318  2.849270
N    -0.717870  3.475640  3.015532
C    -2.783395  3.357441  3.765293
C    -0.953450  4.428725  3.982057
N    -2.197852  4.363527  4.443029
H    -3.176240  1.485222  1.803673
H    -1.776642  1.986261  0.859899
H    0.142213  3.384213  2.480760
H    -3.841724  3.126366  3.883024
H    -0.191696  5.133408  4.305851
N    -2.308305  0.224170  4.457442
C    -2.487101  -0.284695  5.819632
H    -2.837622  1.057149  4.196449
H    -1.555010  -0.737492  6.170084
H    -3.281013  -1.043676  5.838635
H    -2.772718  0.551501  6.464926
Hg    1.048794  -2.000142  2.763570
