30
Energy: -573016.2564763  eV PBE+vdW (tier 2 basis)
C    -0.304308  2.810639  -0.409736
C    -0.863176  1.699552  0.427181
O    -0.015766  0.906970  0.940890
H    -1.069859  3.403621  -0.921410
H    0.275473  3.474924  0.248451
H    0.398941  2.395633  -1.141821
N    -2.212001  1.656278  0.556100
C    -3.179643  0.988550  1.476996
C    -2.716387  0.993908  2.953533
O    -1.873496  0.173921  3.383832
H    -2.659569  2.389797  0.012615
H    -4.045527  1.661910  1.426541
C    -3.808537  -0.359252  0.984085
C    -3.058029  -1.655390  0.829927
N    -3.150731  -2.400591  -0.283354
C    -2.266441  -2.492153  1.735175
C    -2.486587  -3.621062  -0.088095
N    -1.955979  -3.698720  1.091501
H    -4.293023  -0.137466  0.023034
H    -4.634521  -0.565744  1.688003
H    -3.631316  -2.131026  -1.142728
H    -2.416576  -2.499594  2.819288
H    -2.441824  -4.375770  -0.870267
N    -3.284772  1.910783  3.736329
C    -2.977766  2.072273  5.159997
H    -3.997331  2.520647  3.345004
H    -2.039198  1.559204  5.383526
H    -2.883948  3.139895  5.385676
H    -3.782277  1.643763  5.771292
Hg    -0.618826  -1.014498  1.714434
