30
Energy: -573015.5771276  eV PBE+vdW (tier 2 basis)
C    -0.562722  1.344704  1.317904
C    -0.150949  -0.082042  1.409442
O    1.120776  -0.322132  1.260603
H    -1.502088  1.549303  1.840983
H    -0.660260  1.633221  0.259450
H    0.237324  1.968192  1.738218
N    -1.001374  -1.074545  1.646698
C    -2.459599  -1.175822  1.552942
C    -2.821728  -2.254276  2.604232
O    -2.034057  -3.212957  2.703494
H    -0.621960  -1.991091  1.937613
H    -2.929844  -0.205314  1.736917
C    -2.912274  -1.724240  0.125429
C    -1.868026  -2.625083  -0.444674
N    -1.551837  -3.893822  0.035074
C    -0.799322  -2.269133  -1.226227
C    -0.322956  -4.242058  -0.362168
N    0.194013  -3.268394  -1.158717
H    -3.042815  -0.874993  -0.556750
H    -3.891744  -2.209367  0.229125
H    -2.120799  -4.435527  0.688254
H    -0.666111  -1.386577  -1.844251
H    0.170464  -5.176192  -0.111538
N    -3.959525  -2.142969  3.293324
C    -4.925507  -1.040684  3.291070
H    -4.116280  -2.902354  3.956375
H    -5.184817  -0.735721  2.270464
H    -4.553376  -0.177367  3.858808
H    -5.842938  -1.393832  3.770768
Hg    1.541327  -2.053928  0.055142
