30
Energy: -573015.9499539  eV PBE+vdW (tier 2 basis)
C    -3.627203  -0.144847  0.963091
C    -2.775532  -0.411611  2.165508
O    -3.258529  -0.524055  3.303826
H    -3.994391  0.890648  1.021765
H    -4.511428  -0.792766  0.999427
H    -3.107573  -0.278868  0.008262
N    -1.424244  -0.545455  1.947688
C    -0.382749  -0.705722  2.955037
C    -0.284048  -2.134263  3.547739
O    0.626074  -2.424157  4.402652
H    -1.099829  -0.379952  0.998561
H    0.558398  -0.628514  2.387932
C    -0.270540  0.485769  3.991919
C    -0.936223  0.403071  5.328574
N    -2.223808  0.197135  5.542631
C    -0.353303  0.555428  6.690097
C    -2.465701  0.253096  6.932572
N    -1.384470  0.451858  7.624491
H    -0.664408  1.374492  3.474444
H    0.794716  0.692725  4.157889
H    -2.855726  -0.070048  4.719766
H    0.492756  1.216274  6.909674
H    -3.469357  0.134240  7.336326
N    -1.048981  -3.076952  3.032602
C    -1.004764  -4.497451  3.379786
H    -1.673558  -2.795380  2.278478
H    -0.352659  -4.643114  4.243230
H    -0.611335  -5.069001  2.528994
H    -2.020413  -4.844253  3.602676
Hg    0.720828  -1.400328  6.376364
