30
Energy: -573015.8027400  eV PBE+vdW (tier 2 basis)
C    0.142850  0.618015  0.090215
C    0.103816  0.300264  1.549468
O    1.141330  0.064828  2.235682
H    0.631756  -0.213898  -0.436206
H    0.762789  1.510661  -0.081406
H    -0.846529  0.786934  -0.347053
N    -1.100591  0.232833  2.155328
C    -1.330844  -0.184102  3.513052
C    -2.759036  -0.840938  3.495642
O    -3.556184  -0.388900  2.675892
H    -1.969216  0.310194  1.608705
H    -0.540920  -0.874527  3.833544
C    -1.432607  1.043343  4.538743
C    -0.113402  1.667724  4.683570
N    0.349895  2.699489  3.942668
C    1.012000  1.249163  5.474299
C    1.706802  2.869902  4.227434
N    2.085096  1.972842  5.205551
H    -1.757854  0.634816  5.503684
H    -2.203284  1.733800  4.172832
H    -0.208668  3.300210  3.337742
H    1.024825  0.446296  6.208406
H    2.188888  3.841448  4.104536
N    -2.996531  -1.806664  4.387648
C    -4.275880  -2.520117  4.455652
H    -2.224802  -2.165148  4.942929
H    -5.067865  -1.861079  4.086900
H    -4.468379  -2.796709  5.497421
H    -4.248437  -3.428050  3.838830
Hg    2.878982  1.654366  2.484293
