30
Energy: -573015.3260301  eV PBE+vdW (tier 2 basis)
C    -0.141258  -0.604852  -0.126445
C    -0.126456  -0.415795  1.362281
O    0.900159  -0.778313  1.991177
H    0.128996  -1.641254  -0.362010
H    0.633813  0.038718  -0.567531
H    -1.109551  -0.359667  -0.578091
N    -1.214919  0.155414  1.932584
C    -1.311955  0.670940  3.297690
C    -1.860865  -0.419028  4.256370
O    -1.062079  -1.175853  4.879300
H    -2.002085  0.325466  1.311758
H    -0.287539  0.867945  3.644836
C    -2.096309  2.012738  3.342563
C    -1.329769  3.148486  2.753393
N    -0.850386  4.206775  3.471947
C    -0.939944  3.432752  1.413965
C    -0.216810  5.055912  2.592569
N    -0.267175  4.594062  1.343911
H    -2.350786  2.232736  4.388275
H    -3.052988  1.910706  2.801721
H    -0.968813  4.372375  4.469001
H    -1.163012  2.850581  0.524049
H    0.256851  5.981244  2.910190
N    -3.169819  -0.565813  4.401942
C    -3.789161  -1.589310  5.254914
H    -3.790819  0.097240  3.947379
H    -3.840670  -1.240639  6.294332
H    -3.193997  -2.506502  5.213207
H    -4.800036  -1.782873  4.885176
Hg    1.187381  -1.377188  4.248542
