30
Energy: -573016.1405035  eV PBE+vdW (tier 2 basis)
C    1.131420  2.152947  1.814645
C    -0.299018  2.339614  2.217438
O    -0.626475  3.492546  2.634405
H    1.785102  2.474392  2.635146
H    1.338811  2.821457  0.965711
H    1.375261  1.125671  1.523220
N    -1.118580  1.267478  2.090313
C    -2.596706  1.112550  2.049515
C    -3.298198  2.293772  1.336878
O    -3.773484  3.250181  1.991916
H    -0.625598  0.438098  1.769048
H    -2.732798  0.241291  1.394962
C    -3.297799  0.636019  3.365008
C    -3.338599  1.419698  4.649701
N    -2.922094  0.902817  5.815791
C    -3.917790  2.710510  5.037035
C    -3.228526  1.790611  6.860392
N    -3.812423  2.862383  6.426846
H    -2.877889  -0.353220  3.594031
H    -4.349250  0.452556  3.081977
H    -2.460392  0.000468  5.936906
H    -4.781954  3.144874  4.524224
H    -2.974962  1.562107  7.893434
N    -3.402264  2.243693  0.008427
C    -2.981172  1.187200  -0.916172
H    -3.876151  3.053751  -0.393233
H    -3.199424  1.524299  -1.933333
H    -3.538321  0.255920  -0.747147
H    -1.901682  1.002261  -0.850893
Hg    -2.373044  3.802056  3.888809
