30
Energy: -573015.4033892  eV PBE+vdW (tier 2 basis)
C    1.572392  1.147803  0.488941
C    1.000085  0.234240  1.537392
O    1.812192  -0.489183  2.173468
H    2.153251  1.933024  0.993408
H    2.273229  0.578226  -0.133652
H    0.809302  1.610623  -0.146520
N    -0.341228  0.258025  1.698725
C    -1.255609  -0.517817  2.566910
C    -1.217304  0.020120  4.021629
O    -0.305399  -0.277191  4.841937
H    -0.815915  0.919049  1.090050
H    -2.251453  -0.288836  2.166957
C    -1.087603  -2.053173  2.436751
C    -2.287420  -2.833246  2.778658
N    -2.662035  -3.985450  2.132391
C    -3.243412  -2.702020  3.828001
C    -3.779073  -4.466941  2.756117
N    -4.135376  -3.701333  3.794093
H    -0.238316  -2.409105  3.099822
H    -0.735856  -2.284810  1.421871
H    -2.220889  -4.396927  1.312606
H    -3.271298  -1.943860  4.606205
H    -4.303058  -5.357925  2.419212
N    -2.197087  0.845464  4.372326
C    -2.298499  1.495643  5.684162
H    -2.938653  1.028385  3.700962
H    -2.885411  0.875459  6.374379
H    -2.795232  2.462218  5.556584
H    -1.296268  1.642566  6.096338
Hg    1.558941  -1.549032  4.206278
