30
Energy: -573016.1414924  eV PBE+vdW (tier 2 basis)
C    1.174570  1.901352  1.786563
C    -0.238261  2.188572  2.192368
O    -0.465916  3.334044  2.688624
H    1.328700  0.879045  1.424862
H    1.843838  2.104045  2.632047
H    1.452459  2.605879  0.988462
N    -1.149496  1.206911  1.983942
C    -2.634843  1.190152  1.923941
C    -3.219715  2.479875  1.299505
O    -3.614784  3.423704  2.022712
H    -0.729137  0.361202  1.606789
H    -2.841581  0.386179  1.204943
C    -3.390903  0.683443  3.197104
C    -3.363097  1.365991  4.538402
N    -2.992443  0.727486  5.658894
C    -3.827376  2.668776  5.026539
C    -3.219550  1.556348  6.769896
N    -3.708408  2.704653  6.423124
H    -3.072049  -0.357092  3.348660
H    -4.452884  0.627285  2.900111
H    -2.611279  -0.218250  5.707520
H    -4.650048  3.214926  4.553945
H    -2.985922  1.228947  7.780770
N    -3.314116  2.538478  -0.029288
C    -2.982556  1.519006  -1.029042
H    -3.709947  3.415407  -0.370553
H    -1.927278  1.225105  -0.968959
H    -3.150558  1.952215  -2.019021
H    -3.630068  0.636617  -0.936971
Hg    -2.190354  3.706701  3.958105
