30
Energy: -573015.9014449  eV PBE+vdW (tier 2 basis)
C    0.194433  0.363872  0.532599
C    -0.033859  -0.221826  1.893282
O    0.928718  -0.105889  2.722045
H    0.440085  1.428907  0.654223
H    -0.667456  0.273655  -0.137557
H    1.073043  -0.110306  0.075540
N    -1.240169  -0.786512  2.116991
C    -2.027671  -1.209883  3.307088
C    -1.539114  -0.574718  4.626956
O    -0.504520  -0.952602  5.236380
H    -1.822239  -0.764738  1.281543
H    -3.025732  -0.796863  3.101808
C    -2.266244  -2.765884  3.389344
C    -1.069516  -3.521732  3.853206
N    -0.846705  -3.881893  5.177311
C    0.156516  -3.637788  3.246940
C    0.464998  -4.082334  5.378520
N    1.147955  -3.922905  4.220032
H    -2.578381  -3.106919  2.392526
H    -3.126824  -2.934242  4.051622
H    -1.563026  -3.969326  5.896933
H    0.417645  -3.551870  2.196482
H    0.908803  -4.355207  6.331188
N    -2.325271  0.378762  5.125671
C    -2.065818  1.088260  6.379779
H    -3.181700  0.613080  4.630833
H    -2.649845  0.645248  7.197168
H    -2.358696  2.136323  6.258815
H    -1.001366  1.021478  6.618385
Hg    1.474958  -1.685150  4.108347
