30
Energy: -573015.4739735  eV PBE+vdW (tier 2 basis)
C    0.201896  2.220518  1.065403
C    -0.425288  0.922140  0.708845
O    0.406756  -0.064672  0.522551
H    -0.540131  3.009347  1.224946
H    0.848114  2.106202  1.942102
H    0.838536  2.518962  0.215434
N    -1.729477  0.811418  0.371630
C    -2.855868  1.350497  1.150892
C    -2.382981  1.450077  2.639488
O    -1.419174  0.762268  3.004611
H    -1.948083  -0.029958  -0.158297
H    -3.145989  2.343328  0.778091
C    -4.106880  0.400855  1.016257
C    -3.715835  -1.048977  1.060852
N    -3.837791  -1.903928  -0.037423
C    -2.853760  -1.698330  1.909037
C    -3.021308  -2.962226  0.105182
N    -2.371670  -2.874203  1.292184
H    -4.622537  0.615465  0.070115
H    -4.815616  0.654049  1.815807
H    -4.497465  -1.784418  -0.807657
H    -2.496739  -1.396268  2.887450
H    -2.925336  -3.775497  -0.608172
N    -3.090463  2.272470  3.418788
C    -2.849700  2.450936  4.853376
H    -3.832131  2.827273  2.999041
H    -2.739335  3.518529  5.074540
H    -3.689694  2.049412  5.433442
H    -1.931978  1.922773  5.123806
Hg    -0.440074  -1.946043  0.928676
