30
Energy: -573015.6779014  eV PBE+vdW (tier 2 basis)
C    0.484081  -0.426645  1.120072
C    -0.186862  -0.454792  2.454236
O    -0.123223  -1.446872  3.241878
H    0.106790  -1.267587  0.520937
H    1.566497  -0.582583  1.241112
H    0.321951  0.506193  0.570514
N    -0.921226  0.613242  2.821528
C    -1.739748  0.703942  4.003351
C    -2.893744  1.697499  3.608756
O    -2.623721  2.492420  2.706334
H    -1.104404  1.384205  2.161194
H    -2.094877  -0.292675  4.287720
C    -0.990876  1.389729  5.239889
C    0.065741  0.497555  5.730746
N    1.356947  0.521935  5.333794
C    -0.039361  -0.665416  6.569624
C    1.999650  -0.603621  5.858076
N    1.113015  -1.307466  6.649116
H    -1.738458  1.543942  6.028744
H    -0.615451  2.369441  4.918098
H    1.805591  1.266871  4.802023
H    -0.930586  -1.010213  7.089610
H    3.075161  -0.599722  6.044878
N    -4.055816  1.653692  4.266117
C    -4.509692  0.741590  5.312732
H    -4.726246  2.354286  3.946515
H    -5.534010  0.421737  5.091432
H    -4.503938  1.241102  6.291609
H    -3.884524  -0.155171  5.356491
Hg    1.916339  -2.252617  4.090873
