30
Energy: -573015.4476581  eV PBE+vdW (tier 2 basis)
C    -1.099380  2.012267  -0.811698
C    -0.893688  0.940084  0.198521
O    0.275246  0.340717  0.156395
H    -1.089225  1.589436  -1.825727
H    -0.241451  2.699700  -0.757522
H    -2.020326  2.578145  -0.643239
N    -1.774268  0.602551  1.120090
C    -3.213327  0.792763  1.300747
C    -3.339029  0.659175  2.853006
O    -2.440346  0.016378  3.426119
H    -1.465419  0.112865  2.004562
H    -3.547487  1.774791  0.945964
C    -4.078321  -0.335776  0.586498
C    -3.318958  -1.612575  0.389386
N    -3.106471  -2.181425  -0.866047
C    -2.416519  -2.242299  1.210701
C    -2.074404  -3.039043  -0.820781
N    -1.597695  -3.104195  0.448654
H    -4.411984  0.035705  -0.391663
H    -4.987758  -0.490103  1.183829
H    -3.687783  -2.024441  -1.689903
H    -2.271072  -2.126939  2.280922
H    -1.708265  -3.619171  -1.662559
N    -4.405172  1.199300  3.436873
C    -4.680164  1.115498  4.875253
H    -5.046793  1.746836  2.869552
H    -4.721008  2.124365  5.301754
H    -3.877360  0.548998  5.353151
H    -5.639257  0.611807  5.043209
Hg    0.105685  -1.744413  0.525954
