30
Energy: -573015.3863838  eV PBE+vdW (tier 2 basis)
C    -1.424673  -2.323731  -0.506658
C    -0.878080  -1.599594  0.689092
O    0.295100  -1.879490  1.053956
H    -1.445100  -3.400122  -0.290438
H    -0.736523  -2.178370  -1.350297
H    -2.425843  -1.982514  -0.792647
N    -1.676440  -0.685656  1.286472
C    -1.286604  0.277240  2.321184
C    -1.518137  -0.323862  3.731016
O    -0.586661  -0.932464  4.333480
H    -2.613872  -0.603538  0.900298
H    -0.199828  0.423399  2.239285
C    -1.960558  1.634418  2.044795
C    -1.479171  2.756331  2.900260
N    -1.658845  4.071293  2.569454
C    -0.815904  2.802072  4.157756
C    -1.120028  4.832909  3.578131
N    -0.614260  4.072869  4.548417
H    -3.063060  1.549459  2.114282
H    -1.768976  1.879500  0.986668
H    -2.091797  4.434387  1.722876
H    -0.510362  1.967420  4.782959
H    -1.114635  5.919514  3.553277
N    -2.710007  -0.203704  4.299957
C    -3.059302  -0.774554  5.606274
H    -3.411185  0.370950  3.840131
H    -2.541686  -1.729674  5.736134
H    -4.141934  -0.926181  5.640083
H    -2.762226  -0.093230  6.414277
Hg    1.288601  -1.682075  3.149524
