30
Energy: -573015.7853604  eV PBE+vdW (tier 2 basis)
C    -0.354131  0.327025  0.208296
C    -0.098497  0.230726  1.682221
O    1.061974  0.584539  2.073597
H    -0.164404  1.363728  -0.105777
H    -1.373261  0.049569  -0.082356
H    0.369899  -0.300371  -0.328194
N    -1.127880  -0.190270  2.449853
C    -1.466087  -0.175272  3.897739
C    -0.648768  0.855304  4.700506
O    0.547826  0.658637  5.046743
H    -1.940352  -0.430641  1.884993
H    -2.509941  0.163192  3.903768
C    -1.525895  -1.604067  4.561176
C    -0.185527  -2.190941  4.838299
N    0.467803  -2.087656  6.061400
C    0.795764  -2.540499  3.944648
C    1.788460  -2.243388  5.884525
N    2.060901  -2.505374  4.583283
H    -2.101796  -2.254157  3.888015
H    -2.121620  -1.516576  5.480522
H    0.021767  -1.902734  6.958912
H    0.709040  -2.821281  2.899356
H    2.528695  -2.189100  6.677093
N    -1.270197  1.968784  5.089492
C    -2.656135  2.401560  4.872993
H    -0.677938  2.589041  5.643400
H    -2.922711  2.369452  3.810057
H    -2.734424  3.441188  5.203839
H    -3.363800  1.804210  5.462323
Hg    2.146234  -0.443627  3.651277
