30
Energy: -573015.9008345  eV PBE+vdW (tier 2 basis)
C    2.071514  0.779378  1.338375
C    0.948870  0.294317  2.205217
O    1.244421  0.061053  3.423970
H    2.515179  1.665175  1.814917
H    2.859250  0.014806  1.303421
H    1.762634  1.040330  0.320390
N    -0.263134  0.177647  1.620820
C    -1.673123  0.040892  2.079030
C    -1.884822  0.463963  3.548446
O    -1.543601  -0.246607  4.529877
H    -0.221859  0.407863  0.629576
H    -2.206494  0.771531  1.454125
C    -2.334120  -1.339663  1.702354
C    -1.899302  -2.461327  2.580411
N    -2.595446  -2.874485  3.710640
C    -0.642932  -2.994277  2.727976
C    -1.763964  -3.515054  4.547033
N    -0.526603  -3.602655  4.004032
H    -2.086863  -1.550758  0.652748
H    -3.424136  -1.204422  1.736645
H    -3.584505  -2.708320  3.891944
H    0.188073  -3.006132  2.029110
H    -2.051429  -3.922577  5.511561
N    -2.514885  1.625107  3.722744
C    -2.839765  2.195984  5.031131
H    -2.824986  2.140835  2.903519
H    -2.718649  3.282983  4.980873
H    -2.166633  1.778160  5.784129
H    -3.877753  1.963245  5.302999
Hg    0.421063  -1.614996  4.529988
