30
Energy: -573015.7938361  eV PBE+vdW (tier 2 basis)
C    1.348521  -0.210217  2.235325
C    0.302477  0.779468  2.635666
O    0.571903  1.835709  3.291278
H    0.936818  -1.117701  1.781939
H    2.033758  0.255593  1.509461
H    1.942223  -0.481232  3.118222
N    -0.974270  0.518614  2.307367
C    -2.143832  1.302882  2.637646
C    -3.308446  0.259093  2.697878
O    -3.191080  -0.738146  1.985518
H    -1.223038  -0.390314  1.891287
H    -1.986296  1.825653  3.589597
C    -2.534837  2.347087  1.494336
C    -1.458777  3.350005  1.387838
N    -1.366689  4.477971  2.198918
C    -0.244162  3.285933  0.724598
C    -0.146152  5.012000  2.062630
N    0.569931  4.300016  1.141890
H    -3.504818  2.793729  1.748038
H    -2.653921  1.794383  0.554153
H    -2.115733  4.872754  2.765513
H    0.070162  2.576385  -0.033299
H    0.188920  5.920206  2.555488
N    -4.358537  0.542117  3.478220
C    -5.493759  -0.370569  3.630092
H    -4.298653  1.333204  4.113148
H    -6.393582  0.219449  3.832599
H    -5.326262  -1.069495  4.461034
H    -5.613424  -0.942909  2.704558
Hg    2.199557  3.394329  2.578063
