30
Energy: -573015.6127914  eV PBE+vdW (tier 2 basis)
C    -2.219064  -0.133494  -0.157026
C    -1.551072  -0.664174  1.073415
O    -0.518657  -1.315120  1.107865
H    -1.807539  0.861781  -0.384456
H    -3.305950  -0.035847  -0.047270
H    -1.984319  -0.786696  -1.003299
N    -2.180973  -0.382224  2.310545
C    -1.398402  -0.674328  3.485142
C    -1.268469  -2.216474  3.668130
O    -0.257557  -2.772319  4.238130
H    -2.905506  0.330781  2.351940
H    -0.358848  -0.338309  3.293192
C    -1.982759  0.083152  4.716207
C    -1.058346  0.331867  5.874349
N    -1.464752  0.381786  7.143920
C    0.373525  0.675427  5.956417
C    -0.381178  0.750195  7.973157
N    0.705836  0.924733  7.295466
H    -2.901853  -0.404741  5.071321
H    -2.282650  1.086002  4.359887
H    -2.411709  0.187349  7.475685
H    0.874856  1.273935  5.186822
H    -0.501848  0.853589  9.049810
N    -2.253241  -2.966682  3.233202
C    -2.269919  -4.433477  3.256427
H    -2.983915  -2.472149  2.719115
H    -3.295107  -4.769152  3.080573
H    -1.923009  -4.797448  4.228156
H    -1.614152  -4.825514  2.467821
Hg    1.049574  -1.336448  5.216354
