30
Energy: -573015.3155217  eV PBE+vdW (tier 2 basis)
C    -0.720017  -1.206201  0.075168
C    -0.535351  -0.147608  1.121668
O    0.528607  0.535459  1.072258
H    -0.575799  -0.752984  -0.915094
H    -1.707105  -1.680159  0.117554
H    0.065104  -1.965186  0.196086
N    -1.516226  0.013105  2.031989
C    -1.725047  1.143138  2.945063
C    -1.118375  0.868435  4.343312
O    0.107383  0.567530  4.452197
H    -2.294894  -0.637425  1.948356
H    -1.127025  1.984835  2.555624
C    -3.192675  1.611483  2.889023
C    -4.246048  0.589886  3.172293
N    -5.572014  0.807144  2.901544
C    -4.220330  -0.711457  3.737882
C    -6.268118  -0.308884  3.291122
N    -5.460965  -1.235900  3.802747
H    -3.360943  2.032196  1.883541
H    -3.302888  2.480445  3.564370
H    -5.978237  1.641019  2.482067
H    -3.359924  -1.265829  4.106433
H    -7.345382  -0.397524  3.177493
N    -1.872155  0.969025  5.431690
C    -1.373327  0.775146  6.795864
H    -2.874712  1.096094  5.320298
H    -1.466694  -0.278689  7.091493
H    -1.967161  1.394933  7.474649
H    -0.318846  1.062863  6.839296
Hg    1.666162  1.315111  2.900013
