30
Energy: -573015.6779794  eV PBE+vdW (tier 2 basis)
C    0.458403  -0.707551  1.109535
C    -0.214856  -0.606682  2.438966
O    -0.235389  -1.555869  3.279689
H    0.001962  -1.536143  0.549255
H    1.520079  -0.962316  1.244583
H    0.387938  0.208544  0.514334
N    -0.859870  0.536735  2.742053
C    -1.672036  0.756827  3.910931
C    -2.741219  1.816947  3.454811
O    -2.401982  2.541908  2.517423
H    -0.975113  1.283452  2.040135
H    -2.106407  -0.191772  4.245022
C    -0.874160  1.446460  5.114222
C    0.105906  0.500418  5.660009
N    1.395727  0.398489  5.270500
C    -0.094602  -0.602314  6.560367
C    1.944079  -0.744215  5.859885
N    1.002034  -1.329865  6.682216
H    -1.609140  1.703022  5.888038
H    -0.420148  2.373977  4.742788
H    1.904501  1.074647  4.702160
H    -1.011746  -0.845284  7.092658
H    3.016137  -0.817726  6.051741
N    -3.907991  1.899900  4.100055
C    -4.451471  1.076129  5.176226
H    -4.518622  2.631889  3.733717
H    -4.510127  1.655402  6.107915
H    -3.838649  0.185620  5.342673
H    -5.460742  0.743383  4.907436
Hg    1.730503  -2.479009  4.185652
