30
Energy: -573015.3442660  eV PBE+vdW (tier 2 basis)
C    -0.608670  -0.581265  -0.403235
C    -0.467986  -0.549500  1.089145
O    0.597265  -0.995895  1.592658
H    -1.526328  -0.099105  -0.758046
H    -0.582316  -1.626794  -0.739126
H    0.261124  -0.081505  -0.851102
N    -1.488603  -0.022267  1.805640
C    -1.465668  0.350330  3.222402
C    -2.071569  -0.785945  4.080740
O    -1.423506  -1.860294  4.251204
H    -2.302694  0.264220  1.267303
H    -0.408463  0.393676  3.528654
C    -2.077437  1.746954  3.434616
C    -1.267223  2.852585  2.840428
N    -1.678074  4.155250  2.826982
C    0.022745  2.888269  2.240536
C    -0.678805  4.902129  2.245749
N    0.355284  4.142479  1.887837
H    -2.167403  1.923289  4.521716
H    -3.105808  1.789691  3.031179
H    -2.556837  4.524087  3.183973
H    0.703579  2.058204  2.072226
H    -0.757205  5.977303  2.106810
N    -3.278143  -0.652666  4.613125
C    -3.935021  -1.689031  5.419827
H    -3.814395  0.185159  4.407987
H    -4.667086  -1.206872  6.073738
H    -3.183820  -2.212038  6.019438
H    -4.444172  -2.413311  4.770901
Hg    0.821234  -2.089136  3.655697
