30
Energy: -573015.3369645  eV PBE+vdW (tier 2 basis)
C    -0.051588  -0.278238  -0.294718
C    -0.043119  0.190815  1.128120
O    0.932723  0.892968  1.520537
H    0.104948  0.588448  -0.951410
H    -0.983718  -0.781253  -0.575024
H    0.800333  -0.953995  -0.452414
N    -1.090317  -0.150501  1.911733
C    -1.439622  0.407390  3.218685
C    -0.949963  -0.526139  4.345726
O    0.276314  -0.849793  4.414791
H    -1.773619  -0.772589  1.484766
H    -0.849822  1.331854  3.337357
C    -2.953693  0.799878  3.179078
C    -3.523740  1.353721  4.437534
N    -3.258123  2.587350  4.966726
C    -4.489431  0.798074  5.320450
C    -4.030281  2.728504  6.098956
N    -4.775684  1.651596  6.322493
H    -3.552143  -0.081134  2.901067
H    -3.067051  1.521502  2.356121
H    -2.662148  3.309896  4.570704
H    -5.018770  -0.147146  5.203320
H    -4.008396  3.625152  6.713169
N    -1.799788  -1.011034  5.238700
C    -1.421658  -1.853831  6.375864
H    -2.791414  -0.795627  5.126040
H    -2.166618  -1.720401  7.166135
H    -0.428434  -1.567555  6.733792
H    -1.400825  -2.909711  6.073463
Hg    1.935643  0.517803  3.567240
