30
Energy: -573016.1415467  eV PBE+vdW (tier 2 basis)
C    1.365432  1.997389  2.063967
C    -0.079055  2.255702  2.364071
O    -0.369796  3.407734  2.809480
H    1.673561  2.674863  1.253475
H    1.572963  0.965920  1.759466
H    1.971514  2.258436  2.940325
N    -0.947496  1.243250  2.121980
C    -2.423972  1.180520  1.958714
C    -2.996956  2.429677  1.247666
O    -3.455365  3.392778  1.905216
H    -0.479220  0.399734  1.800540
H    -2.556172  0.346637  1.256566
C    -3.256017  0.693723  3.191810
C    -3.349706  1.421926  4.505834
N    -3.052232  0.831432  5.673505
C    -3.882248  2.727249  4.910177
C    -3.385805  1.690390  6.733613
N    -3.873806  2.812907  6.309698
H    -2.917485  -0.329825  3.404186
H    -4.290783  0.591782  2.820179
H    -2.652856  -0.101403  5.785039
H    -4.678775  3.234829  4.356666
H    -3.224182  1.403109  7.770439
N    -3.011318  2.432567  -0.085733
C    -2.597318  1.382810  -1.021200
H    -3.402264  3.286403  -0.486096
H    -2.734100  1.764853  -2.036613
H    -3.217027  0.481927  -0.918523
H    -1.536374  1.130938  -0.899794
Hg    -2.193142  3.771746  3.933346
