30
Energy: -573016.1413755  eV PBE+vdW (tier 2 basis)
C    1.132614  1.828361  1.930949
C    -0.280965  2.134862  2.319183
O    -0.496172  3.277702  2.827302
H    1.791771  2.004155  2.790316
H    1.436244  2.541258  1.149847
H    1.273875  0.809761  1.553915
N    -1.205895  1.172239  2.083959
C    -2.689971  1.182748  2.001574
C    -3.242988  2.492024  1.388977
O    -3.634386  3.430275  2.121307
H    -0.794487  0.324027  1.702534
H    -2.900363  0.393586  1.267299
C    -3.473899  0.670991  3.255906
C    -3.451336  1.331937  4.607975
N    -3.106304  0.669706  5.722888
C    -3.898806  2.635199  5.110833
C    -3.332863  1.485139  6.843922
N    -3.796867  2.647330  6.509267
H    -3.177717  -0.377906  3.395329
H    -4.532451  0.640672  2.943328
H    -2.742418  -0.283328  5.761390
H    -4.706127  3.202554  4.636680
H    -3.117991  1.137929  7.852355
N    -3.314240  2.573981  0.059908
C    -2.983347  1.565852  -0.951304
H    -3.691124  3.462550  -0.272697
H    -1.937722  1.243875  -0.871159
H    -3.115043  2.022297  -1.936323
H    -3.654952  0.698652  -0.892950
Hg    -2.231071  3.661570  4.079490
