30
Energy: -573015.3858005  eV PBE+vdW (tier 2 basis)
C    -1.338024  -2.161998  -0.351528
C    -0.789016  -1.379786  0.805889
O    0.412457  -1.581139  1.127980
H    -1.284232  -3.232704  -0.113787
H    -0.694358  -1.994128  -1.225598
H    -2.368789  -1.887866  -0.602680
N    -1.616510  -0.501235  1.416680
C    -1.243800  0.508445  2.412468
C    -1.381451  -0.070288  3.843802
O    -0.391123  -0.606826  4.420132
H    -2.571802  -0.483680  1.067706
H    -0.171997  0.716583  2.282009
C    -2.008453  1.816319  2.133537
C    -1.559939  2.986677  2.940714
N    -1.820529  4.280094  2.580067
C    -0.859969  3.104188  4.173387
C    -1.291270  5.098284  3.548779
N    -0.714388  4.394744  4.521921
H    -3.100109  1.668812  2.252330
H    -1.875780  2.044515  1.062760
H    -2.299922  4.595209  1.739351
H    -0.490097  2.305339  4.810423
H    -1.345092  6.182475  3.493676
N    -2.554701  -0.007797  4.459085
C    -2.816010  -0.566922  5.790984
H    -3.307442  0.512182  4.015991
H    -2.528164  0.149933  6.571111
H    -2.237054  -1.486367  5.919437
H    -3.885333  -0.781604  5.873046
Hg    1.476900  -1.273457  3.175329
