30
Energy: -573015.9014521  eV PBE+vdW (tier 2 basis)
C    0.318335  0.349185  0.596549
C    0.044747  -0.259819  1.938527
O    1.008033  -0.229173  2.774093
H    0.656561  1.383963  0.751385
H    -0.550130  0.355689  -0.071121
H    1.151010  -0.184373  0.118770
N    -1.195931  -0.754101  2.140023
C    -2.016156  -1.161331  3.313664
C    -1.498016  -0.592929  4.652421
O    -0.492887  -1.050242  5.256644
H    -1.770188  -0.670849  1.303022
H    -2.985624  -0.682357  3.114784
C    -2.350536  -2.701404  3.352318
C    -1.206915  -3.542231  3.803783
N    -1.016576  -3.948643  5.119506
C    0.013648  -3.720381  3.201449
C    0.278505  -4.236457  5.322821
N    0.978324  -4.091660  4.172506
H    -2.674536  -2.996112  2.344571
H    -3.225522  -2.833538  4.003863
H    -1.741880  -4.007780  5.832999
H    0.286893  -3.625315  2.154850
H    0.697616  -4.560212  6.270740
N    -2.225556  0.394951  5.172657
C    -1.926655  1.053618  6.445573
H    -3.063251  0.695353  4.681526
H    -2.177668  2.115795  6.359501
H    -0.863593  0.936618  6.671520
H    -2.520527  0.609408  7.255262
Hg    1.444471  -1.876676  4.118793
