30
Energy: -573015.6614823  eV PBE+vdW (tier 2 basis)
C    0.479133  0.023870  0.417358
C    0.134639  -0.056430  1.869004
O    0.973235  -0.425562  2.755051
H    -0.379603  0.262430  -0.218320
H    0.913120  -0.933291  0.098780
H    1.246397  0.799054  0.263964
N    -1.118574  0.243759  2.240563
C    -1.685475  0.176837  3.571674
C    -3.211690  -0.072174  3.324047
O    -3.643359  0.299353  2.228397
H    -1.847696  0.403944  1.527254
H    -1.198444  -0.623097  4.141089
C    -1.584915  1.556744  4.363600
C    -0.161576  1.861695  4.605154
N    0.574024  1.339626  5.665801
C    0.776672  2.449768  3.773441
C    1.875951  1.557955  5.440479
N    2.032677  2.258310  4.276819
H    -2.158955  1.465823  5.294985
H    -2.055091  2.337835  3.753438
H    0.192274  0.908134  6.505925
H    0.607487  3.005048  2.857021
H    2.675250  1.286995  6.124491
N    -3.967676  -0.615471  4.283743
C    -3.579790  -1.161601  5.580514
H    -4.951994  -0.698064  4.025337
H    -3.835602  -0.462096  6.389055
H    -2.508988  -1.384782  5.611644
H    -4.119359  -2.099763  5.750738
Hg    3.076928  0.583151  3.004952
