30
Energy: -573016.2563761  eV PBE+vdW (tier 2 basis)
C    -0.217508  2.779311  -0.421141
C    -0.821991  1.707549  0.434978
O    -0.005335  0.914148  0.995468
H    -0.957124  3.388466  -0.951585
H    0.382375  3.435573  0.226935
H    0.475433  2.322914  -1.138776
N    -2.174434  1.695579  0.529025
C    -3.178238  1.078697  1.446758
C    -2.746845  1.120274  2.932486
O    -1.940902  0.288780  3.408774
H    -2.592079  2.420033  -0.049380
H    -4.026925  1.769568  1.355896
C    -3.826386  -0.269219  0.980308
C    -3.102796  -1.586199  0.884462
N    -3.188487  -2.364710  -0.206269
C    -2.349963  -2.410794  1.833255
C    -2.556474  -3.592714  0.042213
N    -2.053247  -3.644038  1.235075
H    -4.282235  -0.066647  0.001124
H    -4.673853  -0.435045  1.669314
H    -3.644152  -2.112680  -1.084346
H    -2.524640  -2.380149  2.913322
H    -2.511764  -4.372876  -0.714669
N    -3.299532  2.082710  3.670670
C    -3.011603  2.286404  5.092960
H    -3.985693  2.699345  3.244347
H    -2.893022  3.358642  5.282556
H    -3.836560  1.900651  5.705555
H    -2.090551  1.757275  5.349836
Hg    -0.669472  -0.971846  1.804848
