30
Energy: -573015.7931600  eV PBE+vdW (tier 2 basis)
C    0.799236  -0.182621  0.784344
C    0.060926  0.698456  1.739660
O    0.652156  1.431320  2.594857
H    1.518278  -0.795200  1.343910
H    0.142733  -0.835758  0.200356
H    1.375388  0.440887  0.082413
N    -1.282326  0.686834  1.701515
C    -2.192749  1.410805  2.561308
C    -3.480606  0.522528  2.599881
O    -3.701552  -0.169616  1.605893
H    -1.773803  0.006357  1.104362
H    -1.739197  1.553064  3.550443
C    -2.636185  2.818474  1.951320
C    -1.450555  3.692784  1.880383
N    -0.984172  4.455452  2.947921
C    -0.443033  3.751247  0.931573
C    0.251009  4.888618  2.664946
N    0.609150  4.477828  1.411920
H    -3.431704  3.235961  2.581853
H    -3.055684  2.640428  0.953357
H    -1.508388  4.696795  3.787516
H    -0.433738  3.323187  -0.065072
H    0.841747  5.533664  3.309101
N    -4.265827  0.609594  3.680372
C    -5.483017  -0.190396  3.833219
H    -3.928914  1.119590  4.492127
H    -6.195591  0.369142  4.447955
H    -5.262766  -1.150445  4.319810
H    -5.904996  -0.384581  2.841838
Hg    2.330180  2.984602  1.994922
