30
Energy: -573015.7850749  eV PBE+vdW (tier 2 basis)
C    -0.398595  0.338611  0.142991
C    -0.101440  0.269868  1.610762
O    1.073480  0.620098  1.960096
H    -1.436380  0.095363  -0.109677
H    0.282447  -0.332961  -0.396893
H    -0.175719  1.357299  -0.205455
N    -1.111602  -0.127458  2.415669
C    -1.409991  -0.085177  3.871967
C    -0.566483  0.954345  4.634882
O    0.641139  0.762149  4.942823
H    -1.941874  -0.369913  1.878265
H    -2.451490  0.259253  3.899656
C    -1.459285  -1.501541  4.562665
C    -0.114783  -2.089279  4.816988
N    0.571678  -1.962398  6.019576
C    0.840495  -2.463628  3.905375
C    1.886407  -2.129299  5.810940
N    2.122507  -2.421321  4.509086
H    -2.054377  -2.161298  3.916162
H    -2.031474  -1.394394  5.494812
H    0.150807  -1.755855  6.924495
H    0.724298  -2.766988  2.869277
H    2.647890  -2.061514  6.582055
N    -1.175574  2.071673  5.032461
C    -2.568485  2.500955  4.856974
H    -0.565404  2.699074  5.558090
H    -2.863513  2.476935  3.801255
H    -2.641637  3.537263  5.199069
H    -3.257957  1.896249  5.460104
Hg    2.192909  -0.382108  3.528530
