30
Energy: -573015.7933692  eV PBE+vdW (tier 2 basis)
C    1.372455  -0.334178  2.202356
C    0.325895  0.669166  2.565358
O    0.571333  1.685367  3.289986
H    1.879879  -0.669092  3.116658
H    0.974373  -1.203366  1.668889
H    2.131250  0.143665  1.562683
N    -0.927278  0.463960  2.125502
C    -2.097345  1.268079  2.401943
C    -3.291122  0.259191  2.322182
O    -3.145796  -0.707430  1.573720
H    -1.167160  -0.416705  1.648000
H    -2.000748  1.741253  3.387395
C    -2.368449  2.375607  1.283884
C    -1.260440  3.348627  1.310839
N    -1.202102  4.433389  2.181788
C    0.000658  3.278353  0.741668
C    0.039495  4.935031  2.167639
N    0.806496  4.245678  1.271051
H    -3.343010  2.839699  1.482835
H    -2.427627  1.871213  0.311430
H    -1.982618  4.823920  2.707370
H    0.354555  2.596166  -0.023861
H    0.359185  5.807720  2.729981
N    -4.390449  0.538361  3.032986
C    -5.558094  -0.345351  3.054705
H    -4.358527  1.297510  3.707673
H    -5.620589  -0.872150  2.097069
H    -6.454882  0.262005  3.215061
H    -5.474486  -1.085216  3.862576
Hg    2.293146  3.223528  2.781636
