30
Energy: -573015.6135591  eV PBE+vdW (tier 2 basis)
C    -2.274285  -0.086100  -0.025466
C    -1.658304  -0.662073  1.211823
O    -0.674184  -1.383422  1.256131
H    -3.348037  0.110704  0.079478
H    -2.097646  -0.766909  -0.864256
H    -1.772713  0.864521  -0.262556
N    -2.280139  -0.337122  2.442545
C    -1.534218  -0.685742  3.625442
C    -1.527474  -2.232423  3.815146
O    -0.572720  -2.863428  4.403447
H    -2.953960  0.424264  2.477092
H    -0.469826  -0.433938  3.440799
C    -2.067054  0.120427  4.848780
C    -1.132772  0.307863  6.010489
N    -1.541940  0.404891  7.276376
C    0.321479  0.536806  6.099203
C    -0.437574  0.694977  8.109393
N    0.664231  0.774031  7.437768
H    -3.021760  -0.295257  5.201974
H    -2.289855  1.140491  4.484780
H    -2.503406  0.290474  7.603718
H    0.873774  1.084794  5.326851
H    -0.556475  0.820101  9.183920
N    -2.558821  -2.906672  3.364497
C    -2.686412  -4.367892  3.394167
H    -3.243659  -2.359536  2.840858
H    -3.715791  -4.628540  3.136057
H    -2.449240  -4.746472  4.393366
H    -1.999107  -4.816709  2.665095
Hg    0.838889  -1.530111  5.383083
