30
Energy: -573015.6669546  eV PBE+vdW (tier 2 basis)
C    0.298533  -0.161341  0.499514
C    -0.002073  -0.165163  1.963442
O    0.866705  -0.473179  2.842347
H    0.740819  -1.127392  0.222026
H    1.046827  0.616637  0.280387
H    -0.582066  0.026649  -0.123172
N    -1.249123  0.140922  2.354090
C    -1.775594  0.146459  3.703165
C    -3.302882  -0.143303  3.518567
O    -3.789489  0.199834  2.439116
H    -1.994344  0.263882  1.652099
H    -1.258782  -0.607788  4.307774
C    -1.679894  1.578579  4.399019
C    -0.256155  1.919955  4.580834
N    0.516482  1.483707  5.654185
C    0.649675  2.460735  3.684054
C    1.808101  1.703217  5.377100
N    1.921845  2.321980  4.163940
H    -2.231360  1.545653  5.347747
H    -2.178286  2.307658  3.748151
H    0.165142  1.108412  6.533598
H    0.446981  2.948628  2.736637
H    2.630122  1.489709  6.054393
N    -4.001168  -0.687721  4.524166
C    -3.503724  -1.301814  5.752719
H    -4.985064  -0.839400  4.297880
H    -4.330296  -1.345464  6.469269
H    -2.704982  -0.701837  6.203356
H    -3.142256  -2.324713  5.578084
Hg    2.962306  0.587498  2.972511
