30
Energy: -573015.6840232  eV PBE+vdW (tier 2 basis)
C    -2.351721  2.546243  1.464209
C    -1.553931  1.314581  1.216003
O    -0.266411  1.470887  1.128000
H    -1.753499  3.236291  2.072818
H    -2.546015  3.057641  0.508064
H    -3.302050  2.341084  1.967262
N    -2.101446  0.106731  1.106766
C    -3.474844  -0.331002  0.834496
C    -3.591809  -1.707442  1.533197
O    -2.646207  -2.498194  1.368899
H    -1.474963  -0.708940  1.149311
H    -4.192519  0.407239  1.209090
C    -3.710163  -0.550773  -0.725961
C    -2.440372  -0.943909  -1.402378
N    -1.788944  -2.161777  -1.228875
C    -1.503214  -0.119715  -1.970377
C    -0.506099  -2.050726  -1.589871
N    -0.271568  -0.798702  -2.069470
H    -4.516096  -1.284214  -0.858614
H    -4.055889  0.392431  -1.167066
H    -2.194028  -2.975116  -0.758130
H    -1.613436  0.897588  -2.333019
H    0.226626  -2.850364  -1.539102
N    -4.709205  -1.959939  2.216033
C    -4.979145  -3.227313  2.898554
H    -5.397077  -1.218393  2.318202
H    -4.215191  -3.953510  2.610128
H    -5.971793  -3.591808  2.610218
H    -4.951170  -3.082478  3.985745
Hg    0.670180  0.343596  -0.460128
