30
Energy: -573015.7335374  eV PBE+vdW (tier 2 basis)
C    -2.607716  0.040514  0.145006
C    -2.417407  -0.494093  1.529921
O    -3.321575  -1.062533  2.165144
H    -1.690952  0.427412  -0.312348
H    -3.355006  0.845848  0.183567
H    -3.030134  -0.751357  -0.486190
N    -1.177150  -0.336740  2.100855
C    -0.862726  -0.633790  3.496528
C    -0.857249  -2.156331  3.829179
O    0.154207  -2.697302  4.445240
H    -0.434640  0.070206  1.540242
H    0.183458  -0.318151  3.611647
C    -1.759149  0.239657  4.450461
C    -1.377892  0.349034  5.894839
N    -2.266385  0.367545  6.887759
C    -0.087371  0.564165  6.587075
C    -1.606553  0.608015  8.115849
N    -0.329415  0.724285  7.962047
H    -2.803372  -0.088511  4.361119
H    -1.726146  1.265238  4.042039
H    -3.276137  0.247002  6.781564
H    0.698747  1.185628  6.139853
H    -2.158682  0.674579  9.051455
N    -1.861064  -2.894845  3.432411
C    -1.982533  -4.339266  3.624423
H    -2.603351  -2.365217  2.905562
H    -1.618519  -4.861498  2.729038
H    -3.040882  -4.580783  3.765290
H    -1.394108  -4.661519  4.487644
Hg    0.781702  -1.423194  6.077781
