27
Energy: -606652.140658 eV PBE+vdW (tier 2 basis)
N    0.150273  -1.570912  2.373806
C    0.564444  -0.269316  1.841320
C    1.878377  -0.303543  1.074176
O    2.692600  -1.291792  1.191875
H    0.941741  -2.026846  2.836419
H    -1.137719  -1.659510  3.790109
H    -0.185545  0.059701  1.104550
C    0.646600  0.811627  2.962427
C    -0.622961  1.661023  3.116192
C    -1.905401  0.959290  3.576095
N    -1.877628  0.530740  4.981277
C    -2.005614  -0.727965  5.433178
N    -1.724860  -1.765372  4.641370
N    -2.408427  -0.930029  6.698924
H    1.473010  1.502751  2.749837
H    0.906260  0.301976  3.902987
H    -0.846667  2.151594  2.156489
H    -0.400932  2.481578  3.815327
H    -2.148294  0.085666  2.959695
H    -2.746685  1.657875  3.463712
H    -1.942955  1.266487  5.678467
H    -2.012205  -2.697201  4.915401
H    -2.305862  -1.833626  7.144492
H    -2.884961  -0.207749  7.225399
O    2.190839  0.677456  0.297591
H    -0.133084  -2.198532  1.617849
Pb    4.155433  -0.314477  -0.306455
