27
Energy: -606650.466727 eV PBE+vdW (tier 2 basis)
N    0.033864  1.411028  0.767119
C    0.441323  0.572196  1.889086
C    1.966603  0.481852  1.914874
O    2.587688  -0.315478  1.200358
H    0.402449  1.098459  -0.130477
H    0.228729  2.403127  0.890899
H    0.088574  1.062769  2.811334
C    -0.218020  -0.812385  1.773239
C    -0.114251  -1.746970  2.989401
C    1.225574  -2.442607  3.277404
N    1.628239  -3.357375  2.185190
C    2.760679  -3.384677  1.509171
N    3.067860  -4.166345  0.479118
N    3.851321  -2.492524  1.811734
H    0.155422  -1.306326  0.862469
H    -1.282495  -0.612470  1.593064
H    -0.886856  -2.525489  2.892247
H    -0.379173  -1.206990  3.911813
H    1.130549  -3.050015  4.188980
H    2.040815  -1.731134  3.444945
H    0.915555  -4.034318  1.906148
H    2.373462  -4.821266  0.115090
H    3.529843  -1.479152  1.633380
H    4.176252  -2.569451  2.781471
O    2.668831  1.315173  2.683618
H    2.089653  1.909149  3.199219
Pb    5.165083  -3.489597  -0.028188
