27
Energy: -606650.4178 eV PBE+vdW (tier 2 basis)
N    -0.361776  -0.667107  -0.148352
C    0.527057  -0.460005  0.993021
C    1.880557  -1.108370  0.717056
O    2.537902  -1.798754  1.506538
H    0.077344  -0.384489  -1.025012
H    -1.208577  -0.105465  -0.048078
H    0.809804  0.606501  1.145208
C    -0.132743  -0.922929  2.304954
C    -0.953922  -2.229026  2.252456
C    -0.407312  -3.460806  1.514512
N    0.321931  -4.506411  2.295274
C    1.309078  -4.431912  3.166190
N    1.977746  -5.449542  3.704361
N    1.827964  -3.177095  3.637924
H    -0.834145  -0.132898  2.608657
H    0.632583  -0.914269  3.093192
H    -1.889003  -2.000956  1.725259
H    -1.274989  -2.508236  3.267877
H    0.216333  -3.178723  0.655101
H    -1.255444  -4.014047  1.097096
H    0.058445  -5.455976  2.029882
H    1.739700  -6.408173  3.443192
H    1.133293  -2.675696  4.202202
H    2.093308  -2.526514  2.811416
O    2.338326  -0.803556  -0.487529
H    3.231558  -1.184187  -0.618619
Pb    3.582572  -4.391644  4.887527
