27
Energy: -606651.12815 eV PBE+vdW (tier 2 basis)
N    0.701727  0.340847  0.399589
C    0.329756  0.024624  1.747016
C    1.374655  -0.693858  2.606723
O    1.379520  -0.683713  3.866431
H    0.792494  -0.467108  -0.214032
H    1.530392  0.925596  0.316940
H    0.172922  0.978364  2.280778
C    -1.012242  -0.764421  1.725956
C    -1.687251  -1.055021  3.071207
C    -2.018222  0.210042  3.868891
N    -1.994975  -0.034943  5.356409
C    -1.709249  1.136565  6.138859
N    -0.421945  1.296361  6.325388
N    -2.710785  1.886541  6.589971
H    -0.855989  -1.715523  1.196644
H    -1.675070  -0.165380  1.084922
H    -1.048094  -1.722952  3.678182
H    -2.599664  -1.639024  2.887725
H    -2.996277  0.618465  3.577745
H    -1.273369  0.995382  3.691698
H    -2.841502  -0.521714  5.667072
H    -0.095593  2.140429  6.799258
H    -2.547375  2.676842  7.209672
H    -3.670904  1.732395  6.296634
O    2.321665  -1.303432  1.938716
H    2.972138  -1.725296  2.540394
Pb    0.395521  -0.874783  5.966757
