27
Energy: -606651.905504 eV PBE+vdW (tier 2 basis)
N    -1.537929  0.467720  1.200370
C    -0.407939  1.003027  1.942160
C    0.499639  1.829585  1.068822
O    1.710989  2.094893  1.429785
H    -0.965332  -5.502845  1.677349
H    -2.354713  0.373577  1.802975
H    -0.714286  1.775521  2.688045
C    0.315119  -0.091673  2.762215
C    0.802038  -1.287971  1.935090
C    1.164059  -2.468614  2.847741
N    1.658816  -3.655392  2.137855
C    0.930309  -4.715934  1.764036
N    -0.408119  -4.659925  1.748770
N    1.546433  -5.851681  1.403579
H    -0.414365  -0.434419  3.512495
H    1.141334  0.363231  3.325322
H    1.683517  -1.010369  1.336506
H    0.012202  -1.575256  1.224617
H    0.301725  -2.772551  3.458856
H    1.950718  -2.180688  3.558306
H    2.654433  -3.701299  1.947221
H    -0.901310  -3.777522  1.781143
H    1.049265  -6.589744  0.919363
H    2.511040  -6.032621  1.654069
O    0.048026  2.361414  -0.015767
H    -1.801732  1.065465  0.417417
Pb    1.975429  3.554874  -0.309621
