27
Energy: -606651.975126 eV PBE+vdW (tier 2 basis)
N    -0.471186  -1.833773  0.574420
C    -0.170702  -0.656998  1.440623
C    0.772577  -1.073020  2.572030
O    1.043536  -2.257239  2.823794
H    -1.468965  -2.052395  0.621419
H    -0.280510  -1.593185  -0.402099
H    0.389619  0.060007  0.820097
C    -1.428929  0.094836  1.981416
C    -2.135123  -0.386479  3.265423
C    -2.935964  -1.691607  3.216062
N    -2.039065  -2.839630  3.059142
C    -2.306376  -4.031180  2.477583
N    -1.255607  -4.768689  2.085014
N    -3.580925  -4.391556  2.260021
H    -2.142220  0.156508  1.144680
H    -1.126577  1.138862  2.152640
H    -2.843634  0.406452  3.543609
H    -1.425877  -0.430104  4.108985
H    -3.641968  -1.683307  2.372244
H    -3.527075  -1.778465  4.140949
H    -1.167035  -2.813786  3.579219
H    -1.473280  -5.756179  1.938431
H    -3.799792  -5.211803  1.704929
H    -4.340901  -4.000498  2.807548
O    1.303414  -0.153100  3.343597
H    1.073963  0.762914  3.089628
Pb    0.735830  -4.003449  1.230066
