27
Energy: -606651.401125 eV PBE+vdW (tier 2 basis)
N    -1.613614  -0.025859  0.132060
C    -0.371276  -0.416148  0.825212
C    0.761347  -0.640042  -0.167366
O    0.684826  -0.539632  -1.404427
H    -2.364791  0.020094  0.825328
H    -1.530968  0.927916  -0.231106
H    0.000162  0.409319  1.460562
C    -0.604745  -1.605273  1.798832
C    -0.696668  -3.056082  1.297580
C    -1.753285  -3.438532  0.234775
N    -1.149837  -3.581595  -1.103785
C    -1.235699  -2.778021  -2.154556
N    -0.568779  -2.877603  -3.294919
N    -2.017323  -1.582196  -2.108218
H    -1.516233  -1.352509  2.362505
H    0.204902  -1.578197  2.539558
H    -0.900168  -3.661185  2.191612
H    0.291376  -3.397976  0.951505
H    -2.582099  -2.724829  0.176018
H    -2.194985  -4.412246  0.479988
H    -0.509407  -4.369485  -1.199928
H    0.016107  -3.700632  -3.452476
H    -2.956715  -1.713035  -2.495043
H    -2.016346  -1.055965  -1.167981
O    1.894725  -0.923009  0.443485
H    2.633934  -0.995203  -0.196531
Pb    -0.327310  -0.610760  -3.643930
