27
Energy: -606650.39845 eV PBE+vdW (tier 2 basis)
N    0.479071  1.614491  0.764682
C    -0.069604  0.931308  1.913817
C    0.952551  0.497164  2.969211
O    0.827136  0.748372  4.178754
H    1.031843  2.438224  0.995364
H    1.027381  1.005529  0.157737
H    -0.703752  1.661725  2.444220
C    -0.960309  -0.233247  1.412737
C    -1.426442  -1.346332  2.369624
C    -1.971791  -0.982673  3.763987
N    -2.818477  0.228114  3.789622
C    -2.590369  1.331012  4.478768
N    -3.299152  2.454925  4.471787
N    -1.446304  1.450437  5.346729
H    -0.415892  -0.735413  0.600069
H    -1.821755  0.246571  0.927664
H    -0.606724  -2.054941  2.561050
H    -2.186970  -1.928327  1.831048
H    -1.153683  -0.822552  4.471335
H    -2.576863  -1.813986  4.151309
H    -3.649767  0.213661  3.196262
H    -4.128273  2.528234  3.879153
H    -1.474400  0.763508  6.110552
H    -0.504508  1.260885  4.818664
O    1.998322  -0.148952  2.485752
H    2.627293  -0.367267  3.205814
Pb    -2.146759  3.750586  5.927023
