27
Energy: -606651.459888 eV PBE+vdW (tier 2 basis)
N    0.563680  -0.365043  -0.277427
C    0.675014  -0.298037  1.205130
C    2.029116  -0.903574  1.588218
O    2.569537  -1.777573  0.891178
H    -0.413352  -0.257339  -0.557429
H    1.050188  0.442348  -0.682700
H    0.642620  0.757693  1.517622
C    -0.420683  -1.077643  2.015765
C    -1.868406  -1.119335  1.489168
C    -2.251843  -1.996530  0.279511
N    -2.108817  -3.462896  0.385452
C    -1.039215  -4.129351  -0.117770
N    0.205134  -3.632719  0.041395
N    -1.214484  -5.288262  -0.760469
H    -0.458556  -0.583964  2.997298
H    -0.076101  -2.094776  2.256638
H    -2.209010  -0.097729  1.254005
H    -2.489004  -1.433351  2.340913
H    -1.735522  -1.692951  -0.642165
H    -3.317445  -1.814337  0.089165
H    -2.975689  -3.985712  0.485850
H    0.213929  -3.101830  0.910851
H    -0.436936  -5.934119  -0.850117
H    -2.130505  -5.615417  -1.049967
O    2.616160  -0.566119  2.710131
H    2.167342  0.156422  3.192533
Pb    1.735643  -2.493323  -1.210235
