27
Energy: -606651.814206 eV PBE+vdW (tier 2 basis)
N    0.576682  1.485871  2.152015
C    0.245840  0.197103  2.716704
C    1.457359  -0.300630  3.505520
O    2.536563  0.314702  3.507833
H    -0.482766  -2.187365  -3.434297
H    -0.227807  1.966779  1.751899
H    -0.577520  0.290223  3.456053
C    -0.192549  -0.875170  1.668399
C    -1.497157  -0.495510  0.949438
C    -2.170532  -1.630907  0.168457
N    -1.447581  -1.997098  -1.057414
C    -1.988850  -2.643772  -2.103959
N    -1.291238  -2.765919  -3.242478
N    -3.223124  -3.153018  -2.025802
H    -0.339373  -1.840949  2.180183
H    0.640167  -1.012138  0.960930
H    -1.340680  0.360700  0.276804
H    -2.236288  -0.171282  1.698105
H    -3.175010  -1.295549  -0.125554
H    -2.284560  -2.515064  0.818505
H    -0.442265  -1.864546  -1.078747
H    -1.585004  -3.402758  -3.974086
H    -3.704683  -3.485351  -2.853655
H    -3.684621  -3.300858  -1.137143
O    1.398858  -1.410765  4.211872
H    0.510483  -1.814818  4.212027
Pb    2.503200  2.415331  2.476445
