27
Energy: -606651.790472 eV PBE+vdW (tier 2 basis)
N    1.680157  -0.360047  0.957619
C    0.817270  0.183158  1.982792
C    1.695926  0.530966  3.182570
O    2.845911  0.080663  3.303975
H    -5.029825  -4.232876  3.151223
H    1.205863  -0.490029  0.064609
H    0.340981  1.125666  1.645116
C    -0.316701  -0.826455  2.379197
C    -1.400944  -0.314874  3.338864
C    -2.529242  -1.317524  3.619201
N    -3.423804  -1.492313  2.465886
C    -4.319789  -2.488272  2.335274
N    -4.469371  -3.401415  3.301025
N    -5.046251  -2.582960  1.213290
H    0.163823  -1.726146  2.792072
H    -0.772365  -1.131766  1.425661
H    -1.842175  0.627802  2.970614
H    -0.969687  -0.089632  4.325258
H    -3.105033  -0.963773  4.489420
H    -2.097012  -2.297512  3.870404
H    -3.569719  -0.680118  1.873288
H    -4.138426  -3.237745  4.243591
H    -5.854627  -3.191839  1.158111
H    -4.826023  -2.037174  0.389320
O    1.250944  1.314871  4.147185
H    0.386426  1.713254  3.933954
Pb    3.747772  -0.851763  1.339007
