27
Energy: -606650.938428 eV PBE+vdW (tier 2 basis)
N    1.119342  -0.265978  -0.424831
C    0.915418  -0.022708  1.011253
C    1.760257  -0.950959  1.856636
O    2.721528  -1.628590  1.335433
H    2.069707  -0.583444  -0.626721
H    -0.112822  -0.990272  -1.101947
H    1.305533  0.974216  1.303406
C    -0.578445  -0.031677  1.403670
C    -1.375395  -1.297696  1.022298
C    -2.090953  -1.251767  -0.328371
N    -1.122564  -1.278583  -1.503691
C    -1.424908  -0.281150  -2.568159
N    -0.819533  0.828226  -2.412660
N    -2.281307  -0.737079  -3.510781
H    -1.040084  0.854786  0.945167
H    -0.636867  0.127354  2.487416
H    -2.170350  -1.438245  1.768054
H    -0.753517  -2.205641  1.090475
H    -2.671926  -0.326539  -0.422898
H    -2.778219  -2.098485  -0.437225
H    -1.053087  -2.225884  -1.892240
H    -1.056707  1.534319  -3.114182
H    -2.565401  -0.125941  -4.268978
H    -2.790741  -1.608055  -3.422277
O    1.570901  -1.008201  3.129396
H    0.942999  0.593151  -0.961736
Pb    3.427056  -2.305897  3.435694
