27
Energy: -606651.846922 eV PBE+vdW (tier 2 basis)
N    -0.738907  -0.546574  -0.578936
C    -0.092083  -0.523094  0.755859
C    1.134083  0.082959  0.723182
O    1.626705  0.553183  -0.433343
H    -0.074536  -0.078347  -1.228005
H    -0.911262  -1.503718  -0.924587
H    1.498399  0.057109  3.631640
C    -0.819936  -1.173397  1.886044
C    -1.833872  -0.269712  2.627220
C    -1.210368  0.663757  3.671573
N    -0.818141  -0.044927  4.896883
C    0.414094  -0.208326  5.399360
N    1.508374  -0.007018  4.656464
N    0.546928  -0.586600  6.681553
H    -0.084662  -1.579037  2.596382
H    -1.350372  -2.062159  1.506430
H    -2.592724  -0.897096  3.117910
H    -2.388569  0.354401  1.910191
H    -1.936579  1.435771  3.961363
H    -0.334605  1.192674  3.275150
H    -1.581397  -0.374303  5.480972
H    2.411997  0.022369  5.111900
H    1.424897  -0.942909  7.038905
H    -0.222810  -0.521693  7.336698
O    1.933551  0.250961  1.776791
H    -1.637603  -0.042213  -0.613484
Pb    3.540715  1.198392  0.472803
