27
Energy: -606651.855473 eV PBE+vdW (tier 2 basis)
N    1.683047  0.155770  0.159902
C    0.922635  -0.131183  1.355757
C    1.763615  -1.050790  2.242413
O    2.847286  -1.522118  1.858335
H    -3.106914  -0.949640  -2.355975
H    1.273155  0.895486  -0.408275
H    0.757280  0.792421  1.949220
C    -0.470823  -0.783071  1.094076
C    -1.452821  0.139110  0.356998
C    -2.864030  -0.471505  0.309430
N    -3.865764  0.420840  -0.284066
C    -4.505712  0.263502  -1.453641
N    -4.045444  -0.575983  -2.390400
N    -5.623471  0.962611  -1.691919
H    -0.919308  -1.072921  2.059203
H    -0.314261  -1.714002  0.528605
H    -1.103288  0.340449  -0.666830
H    -1.505388  1.112436  0.870673
H    -3.206735  -0.708348  1.327413
H    -2.874116  -1.423157  -0.238602
H    -4.174500  1.200315  0.289420
H    -4.626755  -0.854045  -3.172437
H    -6.003535  1.046501  -2.627819
H    -6.144226  1.404189  -0.943181
O    1.361921  -1.383009  3.451511
H    0.528692  -0.945185  3.709213
Pb    3.643457  -0.695840  -0.176109
