27
Energy: -606651.739177 eV PBE+vdW (tier 2 basis)
N    0.418587  -0.760637  -0.455138
C    0.565980  0.102370  0.745664
C    2.051668  0.215450  1.095123
O    2.928522  -0.501039  0.586671
H    -0.492289  -1.227868  -0.439237
H    0.412307  -0.180049  -1.299908
H    0.244586  1.128863  0.497531
C    -0.344553  -0.361397  1.922763
C    -0.344434  -1.856870  2.281977
C    0.743691  -2.338004  3.270439
N    1.093382  -3.743820  3.047116
C    1.765577  -4.154721  1.952197
N    2.530491  -3.289007  1.260569
N    1.653295  -5.424998  1.531009
H    -1.364716  -0.071621  1.634308
H    -0.121274  0.249308  2.810730
H    -0.280273  -2.467510  1.368998
H    -1.327737  -2.093855  2.708479
H    0.390783  -2.255225  4.304482
H    1.650927  -1.716763  3.228323
H    0.711586  -4.439009  3.682277
H    2.826546  -2.523160  1.868291
H    2.404133  -5.828843  0.981481
H    1.002614  -6.073397  1.961966
O    2.442649  1.112397  1.971820
H    1.724624  1.693703  2.292585
Pb    2.467408  -2.348951  -0.818988
