27
Energy: -606652.004784 eV PBE+vdW (tier 2 basis)
N    0.356988  -0.334879  -0.310159
C    0.231561  -0.339276  1.157605
C    1.433168  0.303677  1.811383
O    1.407260  0.587443  3.069361
H    -0.161372  -1.132714  -0.684837
H    -0.274624  1.181763  -1.520630
H    0.289920  -1.370966  1.568957
C    -1.108256  0.249953  1.655709
C    -1.481724  1.597073  1.011963
C    -2.435451  1.419913  -0.186773
N    -2.447536  2.547242  -1.117385
C    -1.589436  2.684172  -2.138812
N    -0.538170  1.863973  -2.252796
N    -1.789602  3.655029  -3.045112
H    -1.053328  0.338487  2.747118
H    -1.893439  -0.495632  1.461856
H    -0.575791  2.128948  0.683079
H    -1.960393  2.245332  1.757029
H    -3.465142  1.278944  0.164435
H    -2.183558  0.518904  -0.761443
H    -3.133287  3.281301  -0.976830
H    -0.016900  1.839470  -3.120787
H    -2.675531  4.141037  -3.112095
H    -1.094348  3.870873  -3.748422
O    2.523024  0.496295  1.153149
H    1.333406  -0.487399  -0.574669
Pb    3.622485  1.115737  3.088736
