27
Energy: -606652.095427 eV PBE+vdW (tier 2 basis)
N    0.483886  -1.038373  2.747223
C    0.538798  0.405750  3.002633
C    1.529054  1.155353  2.121871
O    1.826682  2.379979  2.395011
H    -1.154784  -1.836088  3.376051
H    0.562270  -1.232833  1.746186
H    0.912113  0.558062  4.027912
C    -0.855917  1.088446  2.960237
C    -1.689940  0.916944  1.681312
C    -2.448332  -0.411319  1.502403
N    -3.381858  -0.716060  2.590359
C    -3.233098  -1.681187  3.514492
N    -2.042955  -2.247073  3.728120
N    -4.302881  -2.065489  4.230618
H    -0.703103  2.159593  3.147816
H    -1.416794  0.717509  3.829981
H    -1.075501  1.062822  0.777707
H    -2.428709  1.731481  1.658457
H    -1.776614  -1.268971  1.393117
H    -3.034411  -0.360180  0.574594
H    -4.265645  -0.216537  2.593935
H    -1.985786  -3.092651  4.283222
H    -5.246527  -1.850360  3.932419
H    -4.201950  -2.639891  5.058420
O    2.083704  0.589353  1.108933
H    1.281632  -1.508110  3.179620
Pb    3.348632  2.485072  0.700512
