27
Energy: -606649.922671 eV PBE+vdW (tier 2 basis)
N    1.068801  -0.587003  0.053058
C    0.107833  -0.654013  1.234332
C    0.965107  -0.827970  2.489595
O    0.424524  -0.683798  3.626756
H    0.654414  -1.006850  -0.791405
H    1.350423  0.375632  -0.175617
H    -0.417891  0.308168  1.290677
C    -0.879901  -1.823410  1.060064
C    -1.907238  -1.660158  -0.073135
C    -3.102359  -0.743937  0.275969
N    -4.099532  -0.683651  -0.777809
C    -4.889486  -1.737971  -1.207340
N    -5.426093  -1.839119  -2.384852
N    -5.052616  -2.782611  -0.325720
H    -1.400843  -1.938076  2.021889
H    -0.300353  -2.750030  0.919996
H    -2.296709  -2.659993  -0.310120
H    -1.444228  -1.303704  -1.011043
H    -2.780846  0.289838  0.465938
H    -3.558284  -1.089750  1.217108
H    -4.057633  0.102618  -1.415914
H    -5.255423  -1.033508  -2.993912
H    -5.691866  -3.491755  -0.676747
H    -5.169076  -2.573541  0.660790
O    2.195249  -1.146362  2.353327
H    1.929152  -1.104128  0.320025
Pb    2.434109  -1.185414  4.768409
