27
Energy: -606651.74431 eV PBE+vdW (tier 2 basis)
N    0.091544  0.393827  0.317700
C    -0.098842  0.379004  1.797952
C    1.260305  0.235378  2.486552
O    2.206813  -0.332250  1.937939
H    -0.754340  0.045415  -0.142581
H    0.191985  1.363738  -0.000672
H    -0.562757  1.329626  2.104808
C    -1.022947  -0.767277  2.278751
C    -0.511748  -2.219041  2.244674
C    -0.458414  -2.919997  0.881122
N    0.919272  -2.989375  0.261289
C    0.845562  -3.377751  -1.134229
N    0.922776  -2.351460  -1.929784
N    0.717542  -4.672973  -1.435232
H    -1.970614  -0.683619  1.722890
H    -1.290723  -0.536791  3.320024
H    -1.214615  -2.792554  2.864082
H    0.455062  -2.317338  2.761871
H    -1.107780  -2.427140  0.145640
H    -0.832783  -3.948514  0.986156
H    1.490362  -3.648340  0.802054
H    0.827456  -2.524778  -2.932798
H    0.699057  -4.991202  -2.400541
H    0.596784  -5.385765  -0.723355
O    1.403110  0.646198  3.729694
H    0.627377  1.126485  4.079996
Pb    2.168582  -0.828860  -0.471034
