27
Energy: -606650.731891 eV PBE+vdW (tier 2 basis)
N    0.220159  1.183446  0.880008
C    0.153192  0.117601  1.934473
C    1.558649  -0.507014  2.141669
O    2.603461  0.270977  1.912251
H    0.033564  0.767152  -0.040924
H    -0.525176  1.872669  1.020927
H    -0.070636  0.643522  2.878097
C    -0.935983  -0.940167  1.646321
C    -1.728138  -1.493477  2.850361
C    -1.007726  -2.172559  4.013841
N    -0.163928  -3.370173  3.607268
C    -0.823817  -4.403582  2.691471
N    -0.398348  -4.646161  1.529305
N    -1.938823  -4.936646  3.254002
H    -0.495377  -1.758106  1.059799
H    -1.692880  -0.480617  0.993995
H    -2.480933  -2.185485  2.446651
H    -2.305317  -0.675732  3.309223
H    -1.748839  -2.515041  4.744838
H    -0.312610  -1.501558  4.535554
H    0.200991  -3.833965  4.452050
H    0.431118  -4.132890  1.231303
H    -2.372138  -5.690010  2.725640
H    -2.046995  -5.000221  4.260067
O    1.686934  -1.654226  2.539700
H    0.658710  -2.966793  3.102067
Pb    2.527317  2.143749  0.858882
