27
Energy: -606650.166262 eV PBE+vdW (tier 2 basis)
N    0.040925  0.338236  0.297573
C    0.131527  -0.286586  1.584953
C    1.576559  -0.565210  2.110161
O    1.802506  -1.328870  3.022959
H    0.467979  -0.173792  -0.472333
H    0.301701  1.320834  0.266006
H    -0.275900  0.420564  2.328859
C    -0.680797  -1.594839  1.647071
C    -2.191880  -1.351053  1.585738
C    -3.034776  -2.624640  1.583330
N    -2.899033  -3.369320  2.858124
C    -3.640864  -4.403791  3.215152
N    -4.610788  -4.987903  2.544361
N    -3.441379  -5.035128  4.508064
H    -0.375717  -2.105709  2.573880
H    -0.368696  -2.249188  0.816544
H    -2.439691  -0.805729  0.664236
H    -2.515291  -0.701928  2.415513
H    -2.733524  -3.293211  0.760909
H    -4.097967  -2.372377  1.453959
H    -2.154696  -3.072073  3.487361
H    -4.832554  -4.646138  1.607995
H    -2.526559  -5.494486  4.580883
H    -3.520841  -4.375013  5.289209
O    2.495216  0.159673  1.461018
H    3.372563  -0.016345  1.860930
Pb    -5.428492  -6.597479  3.979739
