27
Energy: -606652.306246 eV PBE+vdW (tier 2 basis)
N    -0.011284  0.550458  -0.225899
C    -0.488161  0.155074  1.139889
C    0.693713  0.161177  2.147543
O    1.650820  1.059971  1.928302
H    0.334972  -0.273225  -0.732149
H    -0.792032  0.908558  -0.784919
H    -1.140274  0.978199  1.476950
C    -1.303168  -1.142627  1.185261
C    -0.525096  -2.445628  0.876993
C    -0.838275  -3.588165  1.849802
N    -0.362812  -3.249169  3.193435
C    -0.370272  -4.068229  4.249450
N    0.204890  -3.670686  5.394854
N    -0.934412  -5.281455  4.175917
H    -2.164246  -1.042694  0.509806
H    -1.734663  -1.184241  2.195265
H    0.564240  -2.278859  0.895503
H    -0.763698  -2.805903  -0.131887
H    -0.341124  -4.505694  1.499757
H    -1.926016  -3.772896  1.863053
H    0.012960  -2.301681  3.320767
H    0.718731  -2.799753  5.445886
H    -0.876550  -5.937249  4.945342
H    -1.462934  -5.573171  3.364730
O    0.709112  -0.578109  3.114009
H    0.124630  -4.212256  6.246264
Pb    1.859524  2.166506  0.104547
