27
Energy: -606650.983816 eV PBE+vdW (tier 2 basis)
N    0.308863  0.629776  1.131671
C    -0.003384  0.108637  2.432159
C    1.148047  0.092729  3.447646
O    1.013655  0.293541  4.680323
H    0.720577  1.560951  1.136591
H    0.880170  0.008156  0.560769
H    -0.749132  0.798257  2.872366
C    -0.616828  -1.311720  2.254833
C    -1.196132  -2.082095  3.452689
C    -2.460452  -1.519149  4.112451
N    -2.115684  -0.316941  4.916166
C    -2.987467  0.315601  5.860137
N    -2.289879  1.002287  6.735601
N    -4.300131  0.126331  5.798396
H    0.158484  -1.942434  1.794740
H    -1.393818  -1.182213  1.486770
H    -0.431028  -2.264446  4.229297
H    -1.457604  -3.084368  3.084450
H    -2.896072  -2.263691  4.791100
H    -3.211354  -1.268993  3.345238
H    -1.737004  0.414851  4.305322
H    -2.781396  1.603933  7.398626
H    -4.740164  -0.334241  5.007484
H    -4.921193  0.502601  6.510531
O    2.330466  -0.118756  2.922781
H    3.034773  -0.100524  3.606056
Pb    -0.235571  -0.156715  6.644334
