27
Energy: -606651.03492 eV PBE+vdW (tier 2 basis)
N    0.227709  0.998572  0.576955
C    0.060518  0.242800  1.879970
C    1.495954  -0.124710  2.293117
O    2.447440  0.155768  1.586995
H    -0.159513  1.945428  0.624994
H    1.265702  1.051025  0.435510
H    -0.337804  0.944208  2.625199
C    -0.902092  -0.946586  1.743927
C    -0.414438  -2.176597  0.958151
C    0.170377  -1.942892  -0.448402
N    -0.626299  -1.004868  -1.246688
C    -1.219896  -1.384840  -2.315221
N    -1.319577  -2.577784  -2.965151
N    -1.985061  -0.398678  -3.113328
H    -1.843536  -0.563686  1.322409
H    -1.148878  -1.270493  2.763621
H    -1.268703  -2.864044  0.883757
H    0.350554  -2.712625  1.538574
H    0.307071  -2.920653  -0.935287
H    1.182491  -1.514116  -0.371215
H    -0.208786  0.466098  -0.230898
H    -0.853653  -3.388009  -2.556651
H    -1.395294  0.396218  -3.380400
H    -2.768363  -0.015213  -2.573986
O    1.529265  -0.751463  3.461198
H    2.459711  -0.939822  3.707652
Pb    -2.487171  -2.172597  -4.787870
