27
Energy: -606651.776382 eV PBE+vdW (tier 2 basis)
N    2.560836  -0.239226  0.852677
C    1.260166  -0.236390  1.481965
C    1.465284  -0.455240  2.981742
O    2.574223  -0.750651  3.455807
H    -2.987067  -2.084552  -1.350967
H    2.537621  0.021667  -0.131483
H    0.774715  0.757017  1.386033
C    0.291270  -1.336813  0.935685
C    -0.140624  -1.176963  -0.532168
C    -1.234137  -0.119164  -0.757838
N    -1.654800  0.000529  -2.158424
C    -2.732051  -0.568938  -2.724112
N    -3.398678  -1.552350  -2.105809
N    -3.153034  -0.138936  -3.920738
H    -0.607879  -1.392336  1.572434
H    0.806172  -2.300933  1.046958
H    -0.505646  -2.154961  -0.880098
H    0.727752  -0.953954  -1.170814
H    -0.893578  0.879549  -0.450465
H    -2.125340  -0.335754  -0.151195
H    -1.093504  0.593316  -2.761588
H    -4.309880  -1.850153  -2.435162
H    -3.810341  -0.677847  -4.473106
H    -2.856051  0.752261  -4.300633
O    0.460573  -0.350963  3.827636
H    -0.371469  -0.079088  3.397052
Pb    4.369604  -0.678792  1.957040
