27
Energy: -606649.70315 eV PBE+vdW (tier 2 basis)
N    -1.371727  0.916648  0.851919
C    -0.678769  -0.201905  1.550277
C    0.812726  0.101763  1.684409
O    1.293819  1.226749  1.408796
H    -1.604650  0.623171  -0.105521
H    -2.331454  1.041507  1.345552
H    -1.055774  -0.193125  2.589640
C    -0.953153  -1.599181  0.930366
C    -2.431038  -1.888277  0.623345
C    -3.403952  -1.870016  1.836212
N    -4.663403  -1.189528  1.557136
C    -4.782203  0.173548  1.377501
N    -5.577637  0.824622  0.618764
N    -3.863745  0.963705  2.159346
H    -0.578651  -2.367619  1.627633
H    -0.367869  -1.706875  0.003944
H    -2.470746  -2.867724  0.128712
H    -2.803045  -1.180965  -0.133936
H    -2.937779  -1.409216  2.719267
H    -3.646295  -2.893961  2.143459
H    -5.360157  -1.737492  1.059166
H    -6.190826  0.244479  0.039660
H    -4.251692  1.911602  2.145944
H    -3.839041  0.650927  3.134220
O    1.646339  -0.792323  2.131591
H    1.237056  -1.665367  2.303301
Pb    -0.010173  2.932086  0.666944
