27
Energy: -606650.082702 eV PBE+vdW (tier 2 basis)
N    1.012983  -1.463890  -0.388464
C    1.014204  -1.109657  1.018026
C    1.925048  -1.988558  1.925593
O    1.802241  -2.036798  3.127357
H    1.905084  -1.284101  -0.848558
H    0.762168  -2.439944  -0.551659
H    1.459593  -0.102997  1.105704
C    -0.403924  -1.071855  1.613168
C    -1.279694  0.088852  1.122507
C    -1.742692  -0.060959  -0.333573
N    -2.449935  1.141158  -0.811772
C    -3.705483  1.278500  -1.205739
N    -4.296487  2.366769  -1.670373
N    -4.641031  0.172239  -1.162165
H    -0.298343  -0.987582  2.702802
H    -0.902663  -2.038807  1.434182
H    -0.724003  1.034819  1.232019
H    -2.161092  0.171950  1.776080
H    -2.400296  -0.931674  -0.452813
H    -0.867886  -0.227058  -0.986394
H    -1.879674  1.987938  -0.840795
H    -3.745136  3.220220  -1.779163
H    -4.391171  -0.574077  -1.820694
H    -4.711422  -0.251678  -0.230922
O    2.862557  -2.638994  1.217587
H    3.432258  -3.134908  1.842237
Pb    -6.485625  1.787513  -1.982291
