27
Energy: -606650.461409 eV PBE+vdW (tier 2 basis)
N    0.686842  -1.046533  0.190506
C    0.113861  -0.405042  1.376092
C    1.329095  -0.021347  2.227751
O    1.791092  -0.654772  3.176711
H    1.216137  -0.394257  -0.388392
H    -0.032391  -1.477680  -0.390299
H    -0.418927  0.539014  1.146310
C    -0.872384  -1.370262  2.046464
C    -1.661191  -0.827358  3.251546
C    -1.037185  -1.007377  4.641784
N    -0.965648  -2.423420  5.073757
C    0.103634  -3.199698  5.031943
N    1.291498  -2.934948  4.530371
N    0.053444  -4.525634  5.635577
H    -0.356575  -2.315054  2.278296
H    -1.603838  -1.630419  1.267669
H    -2.660771  -1.285578  3.263710
H    -1.845579  0.251276  3.130698
H    -1.653641  -0.499017  5.394453
H    -0.026044  -0.592126  4.707454
H    -1.827703  -2.830809  5.433934
H    1.443835  -2.045470  3.973761
H    -0.351357  -4.530305  6.578354
H    -0.480596  -5.191821  5.065452
O    1.886435  1.098207  1.781484
H    2.701326  1.292414  2.290431
Pb    2.583856  -4.633189  5.220263
