27
Energy: -606649.981782 eV PBE+vdW (tier 2 basis)
N    0.428633  -0.018418  0.137643
C    0.232573  -0.102025  1.646108
C    1.568873  -0.549697  2.249430
O    1.619621  -0.853550  3.478789
H    0.136022  -0.898749  -0.313631
H    -0.111175  0.749458  -0.282389
H    0.083602  0.933472  1.991282
C    -0.992201  -0.943067  2.023325
C    -0.965327  -2.401154  1.551301
C    -2.255068  -3.155171  1.958660
N    -2.305197  -4.513994  1.452865
C    -2.418216  -4.868987  0.120707
N    -2.008061  -5.983420  -0.398283
N    -2.946897  -3.906019  -0.722787
H    -1.887279  -0.427839  1.640363
H    -1.067425  -0.894592  3.119223
H    -0.096397  -2.931101  1.970270
H    -0.890973  -2.474757  0.451583
H    -3.136030  -2.588451  1.621753
H    -2.330100  -3.207382  3.052709
H    -1.986005  -5.252317  2.070189
H    -1.621974  -6.645392  0.281220
H    -3.079229  -4.274510  -1.662719
H    -3.760965  -3.398384  -0.385417
O    2.610553  -0.538617  1.508330
H    1.438383  0.114853  -0.057862
Pb    3.973241  -1.083368  3.428560
