27
Energy: -606649.556657 eV PBE+vdW (tier 2 basis)
N    1.853683  -1.045271  1.869508
C    0.627589  -0.778574  2.684808
C    1.051579  -0.202786  4.042477
O    2.227529  0.130606  4.290725
H    2.054766  -2.052315  1.882161
H    1.669596  -0.815968  0.888097
H    0.083529  0.045278  2.190108
C    -0.295928  -2.024879  2.743009
C    -1.699862  -1.826577  3.341199
C    -2.639940  -3.022215  3.007491
N    -3.920988  -2.929019  3.662090
C    -4.973868  -2.100391  3.317267
N    -5.770230  -1.777839  4.292475
N    -5.045649  -1.697046  2.002803
H    0.228656  -2.835989  3.273313
H    -0.412490  -2.354681  1.698765
H    -2.168698  -0.905133  2.960067
H    -1.669489  -1.774057  4.443858
H    -2.169717  -3.963437  3.323968
H    -2.765403  -3.087793  1.917822
H    -3.990035  -3.231382  4.631319
H    -6.555881  -1.186402  4.005255
H    -4.774946  -2.357614  1.279097
H    -5.868621  -1.156194  1.756291
O    0.163048  0.010925  4.973655
H    -0.732650  -0.308186  4.726128
Pb    3.935213  0.114004  2.758506
