27
Energy: -606649.970193 eV PBE+vdW (tier 2 basis)
N    -0.783653  -1.157554  0.027530
C    -0.682051  -0.542125  1.386018
C    0.348893  0.576516  1.374916
O    0.752974  1.095798  0.304821
H    -0.267095  -2.045940  0.016443
H    -1.869741  -1.436807  -0.118920
H    -1.636117  0.009991  1.520829
C    -0.568815  -1.544030  2.577206
C    -1.616683  -1.318437  3.697444
C    -2.886487  -2.219077  3.634836
N    -3.339547  -2.564375  2.285795
C    -3.574977  -1.672323  1.287257
N    -3.372797  -1.899438  -0.001557
N    -3.896355  -0.386653  1.658358
H    0.448276  -1.510216  2.995757
H    -0.665179  -2.561861  2.173395
H    -1.915603  -0.259061  3.713413
H    -1.151612  -1.507009  4.674012
H    -3.693210  -1.751074  4.218164
H    -2.682687  -3.175201  4.129846
H    -3.141975  -3.510313  1.978660
H    -3.272700  -2.901684  -0.192220
H    -4.353329  0.138638  0.917240
H    -4.331227  -0.254089  2.567587
O    0.788245  1.108475  2.480503
H    0.472518  0.652996  3.287352
Pb    0.071409  0.254827  -1.697291
