27
Energy: -606651.731721 eV PBE+vdW (tier 2 basis)
N    0.194518  -0.418918  -0.026275
C    0.202042  -1.073551  1.304734
C    1.444532  -1.566246  1.620816
O    2.480971  -1.384941  0.786048
H    1.183953  -0.463406  -0.352567
H    -0.395289  -0.911325  -0.716191
H    -0.473121  2.269515  4.287454
C    -1.101359  -1.350295  1.983125
C    -1.605770  -0.343962  3.044435
C    -0.788554  -0.388766  4.345572
N    -1.483335  0.214271  5.491493
C    -1.345634  1.459119  5.963701
N    -0.672289  2.389178  5.270745
N    -1.872742  1.781496  7.153724
H    -1.029005  -2.341360  2.456658
H    -1.890701  -1.454172  1.220580
H    -2.648264  -0.604427  3.280580
H    -1.634206  0.679145  2.635604
H    0.195662  0.087112  4.238622
H    -0.586382  -1.433003  4.619959
H    -2.164825  -0.371546  5.964360
H    -0.411754  3.270483  5.696365
H    -1.989972  2.747730  7.435043
H    -2.186592  1.071395  7.804476
O    1.709357  -2.253491  2.719434
H    -0.104819  0.565995  -0.016894
Pb    3.813372  -2.646297  2.072620
