27
Energy: -606651.029714 eV PBE+vdW (tier 2 basis)
N    0.604827  -0.661554  -0.071676
C    0.148959  -0.027413  1.150232
C    1.194489  -0.138846  2.242505
O    1.764343  -1.218721  2.505878
H    -0.127832  -0.632088  -0.782007
H    1.409535  -0.176059  -0.471003
H    -0.103537  1.047615  1.045984
C    -1.121455  -0.743681  1.749720
C    -1.361798  -2.211272  1.350595
C    -0.283100  -3.277217  1.542382
N    -0.091321  -3.737999  2.979204
C    0.870760  -4.814431  3.069335
N    2.037284  -4.410821  3.503304
N    0.507387  -6.048203  2.729840
H    -1.997081  -0.173848  1.409961
H    -1.125045  -0.621485  2.845551
H    -1.592090  -2.247144  0.276706
H    -2.296961  -2.530010  1.839621
H    0.687938  -2.931712  1.174367
H    -0.574319  -4.156469  0.948042
H    -0.998337  -4.030766  3.360726
H    2.808069  -5.080142  3.544409
H    1.148039  -6.834186  2.812203
H    -0.403708  -6.249101  2.329122
O    1.424264  0.887024  3.038025
H    0.978223  1.703150  2.729500
Pb    1.537464  -2.377164  4.492604
