27
Energy: -606649.502448 eV PBE+vdW (tier 2 basis)
N    0.433128  0.110094  -0.122016
C    -0.304412  0.318951  1.155582
C    0.559301  1.165365  2.089833
O    1.801345  1.195874  1.990764
H    0.124675  -0.769272  -0.550417
H    0.202126  0.846891  -0.797298
H    -1.245422  0.857867  0.958736
C    -0.596134  -1.039440  1.848869
C    -1.675569  -1.907254  1.181571
C    -3.126401  -1.459232  1.475467
N    -4.122692  -2.400204  1.014491
C    -4.455720  -3.555033  1.691850
N    -3.957086  -3.957150  2.836173
N    -5.368068  -4.370306  1.101027
H    -0.880872  -0.846360  2.894675
H    0.355100  -1.595079  1.903650
H    -1.546105  -2.931535  1.559768
H    -1.530951  -1.983246  0.090634
H    -3.351986  -0.494519  0.998842
H    -3.248955  -1.300514  2.559859
H    -4.571443  -2.211838  0.125183
H    -3.332517  -3.272650  3.268651
H    -5.658985  -5.183121  1.633826
H    -5.925415  -4.101940  0.299788
O    0.019486  1.839279  3.072200
H    -0.957812  1.810111  3.088935
Pb    2.951790  0.181823  0.272040
