27
Energy: -606650.410183 eV PBE+vdW (tier 2 basis)
N    0.379830  0.484667  0.544988
C    0.360009  -0.124328  1.850028
C    1.360665  -1.273660  1.949550
O    1.535415  -1.952024  2.962349
H    -0.206623  1.310393  0.454810
H    1.294965  0.625366  0.126163
H    0.682430  0.567819  2.661407
C    -1.100572  -0.550652  2.170919
C    -1.389756  -0.986939  3.620544
C    -1.461007  -2.514326  3.772609
N    -1.442009  -2.949180  5.185118
C    -0.335281  -3.093785  5.894940
N    0.905539  -2.878148  5.515045
N    -0.407489  -3.580690  7.264463
H    -1.411144  -1.316690  1.445607
H    -1.716631  0.329705  1.945669
H    -2.345237  -0.557275  3.949481
H    -0.621344  -0.579445  4.294201
H    -0.621919  -3.009426  3.269053
H    -2.385846  -2.911410  3.337456
H    -2.335231  -3.099554  5.650295
H    1.097439  -2.480805  4.566697
H    -0.966864  -4.435457  7.359658
H    -0.799256  -2.881663  7.906071
O    2.067433  -1.457591  0.839437
H    2.711087  -2.182081  0.980673
Pb    2.156602  -3.667304  7.226971
