27
Energy: -606650.125137 eV PBE+vdW (tier 2 basis)
N    1.161196  0.175983  0.480397
C    0.098034  0.160497  1.457040
C    0.557600  0.835412  2.764519
O    0.323155  0.397690  3.870405
H    1.602767  1.083728  0.347838
H    0.929133  -0.257823  -0.410764
H    -0.765385  0.789475  1.139812
C    -0.449356  -1.252244  1.706411
C    0.599275  -2.252776  2.217934
C    -0.059371  -3.563131  2.641647
N    0.952096  -4.502049  3.179835
C    0.683265  -5.630414  3.812556
N    -0.491386  -6.166326  4.070736
N    1.761204  -6.448570  4.341156
H    -0.900414  -1.617846  0.771051
H    -1.265817  -1.161537  2.436112
H    1.115766  -1.819165  3.086450
H    1.350708  -2.444700  1.436943
H    -0.569309  -4.050439  1.795264
H    -0.800983  -3.376171  3.434292
H    1.929406  -4.245470  3.046960
H    -1.329810  -5.691828  3.731995
H    2.352366  -6.841803  3.600096
H    2.371593  -5.932705  4.984497
O    1.209851  1.980802  2.510884
H    1.449148  2.402611  3.361235
Pb    -0.015832  -8.043119  5.316840
