27
Energy: -606652.282515 eV PBE+vdW (tier 2 basis)
N    0.954531  -1.721385  0.438129
C    0.157843  -0.450844  0.160815
C    0.804477  0.650425  1.013286
O    0.421518  1.839864  0.810399
H    1.638316  -1.917229  -0.304910
H    1.485320  -1.536648  1.319010
H    0.262324  -0.217008  -0.905212
C    -1.332190  -0.587250  0.526338
C    -1.626574  -0.819240  2.028153
C    -2.749643  0.054883  2.617853
N    -2.541348  1.509071  2.491874
C    -1.525998  2.206758  3.017073
N    -0.581679  1.774153  3.825438
N    -1.317864  3.536908  2.595625
H    -1.781594  -1.375697  -0.094118
H    -1.786458  0.352188  0.182662
H    -0.713674  -0.686974  2.626519
H    -1.937969  -1.858455  2.201405
H    -2.903419  -0.208914  3.674731
H    -3.698082  -0.153782  2.108738
H    -3.291699  2.039505  2.058440
H    -0.723084  0.869443  4.272768
H    -1.429246  4.221297  3.345639
H    -1.802438  3.830000  1.747763
O    1.596712  0.306461  1.939105
H    0.361865  -2.553960  0.546985
Pb    1.338126  2.717959  2.838005
