27
Energy: -606651.660335 eV PBE+vdW (tier 2 basis)
N    -0.178198  -0.412696  0.725794
C    0.360591  -0.025820  2.057471
C    1.832444  -0.443184  2.118649
O    2.235604  -1.468695  1.545365
H    -0.032230  0.357296  0.064388
H    -1.192398  -0.531890  0.785441
H    0.264506  1.063894  2.184548
C    -0.301478  -0.738468  3.274005
C    -1.837283  -0.840445  3.341184
C    -2.472876  -2.105155  2.713730
N    -1.776970  -3.344853  3.068246
C    -0.763191  -3.885195  2.356720
N    -0.606321  -3.652156  1.041276
N    0.135729  -4.666130  2.983638
H    0.042176  -0.184467  4.158042
H    0.132968  -1.742406  3.380004
H    -2.330747  0.048657  2.918598
H    -2.103095  -0.829043  4.407257
H    -2.536604  -2.040481  1.620536
H    -3.510975  -2.192368  3.056425
H    -1.989618  -3.749204  3.977066
H    -1.508105  -3.445165  0.604641
H    0.634174  -5.366459  2.444811
H    0.125213  -4.789365  3.990794
O    2.684691  0.217139  2.863391
H    2.317291  1.033591  3.256761
Pb    1.004809  -2.528311  -0.170053
