27
Energy: -606650.764469 eV PBE+vdW (tier 2 basis)
N    0.887025  0.516055  0.665027
C    -0.153790  0.065075  1.648750
C    0.232715  -1.319093  2.232449
O    1.526291  -1.588498  2.326906
H    0.679685  0.132116  -0.265196
H    0.848022  1.534549  0.554621
H    -0.077404  0.761607  2.500607
C    -1.593794  0.115293  1.115798
C    -2.006472  -1.042121  0.175497
C    -3.273415  -1.764970  0.692060
N    -3.449883  -3.122772  0.181681
C    -2.858698  -4.255898  0.655523
N    -2.631528  -5.404836  0.179906
N    -2.462703  -4.172577  2.116454
H    -1.755023  1.093091  0.641197
H    -2.243769  0.121627  2.002672
H    -1.200281  -1.786862  0.092854
H    -2.187877  -0.675225  -0.843235
H    -4.174463  -1.195879  0.429714
H    -3.251987  -1.794621  1.789573
H    -3.812730  -3.210628  -0.763848
H    -2.868862  -5.531830  -0.807135
H    -2.074406  -5.106097  2.318508
H    -3.279927  -4.021058  2.724755
O    -0.624802  -2.095018  2.624092
H    -1.745345  -3.440539  2.331887
Pb    3.073129  -0.362530  1.457376
