27
Energy: -606652.167729 eV PBE+vdW (tier 2 basis)
N    0.395705  -0.262815  -0.051137
C    -0.051511  0.056941  1.306453
C    1.042171  0.578030  2.230143
O    0.720655  1.190092  3.318678
H    -1.434750  -0.935936  -3.085908
H    0.738922  0.577936  -0.520512
H    -0.791373  0.870950  1.240539
C    -0.754916  -1.141493  1.997188
C    -1.969584  -1.651998  1.201408
C    -1.635552  -2.818170  0.248884
N    -2.587554  -2.965959  -0.850326
C    -2.516132  -2.281042  -2.001828
N    -1.589350  -1.330249  -2.166101
N    -3.378769  -2.559512  -2.992055
H    -1.076516  -0.811390  2.992756
H    -0.026722  -1.953302  2.158475
H    -2.409150  -0.821758  0.629201
H    -2.749496  -1.977495  1.902065
H    -1.622797  -3.769773  0.794323
H    -0.635927  -2.704278  -0.189778
H    -3.395141  -3.562935  -0.708050
H    -0.975999  -1.005902  -1.401270
H    -3.439160  -1.978695  -3.818837
H    -3.972081  -3.379463  -2.963596
O    2.286513  0.408059  1.952718
H    1.187803  -0.910391  -0.025142
Pb    2.907038  1.499195  3.891523
