27
Energy: -606650.552668 eV PBE+vdW (tier 2 basis)
N    0.903163  -0.761939  -0.018285
C    0.376928  -0.033660  1.140142
C    1.544659  0.482408  1.970702
O    2.642969  -0.068386  2.081065
H    1.398421  -0.116659  -0.637002
H    0.120782  -1.118879  -0.571574
H    -0.216631  0.858352  0.877596
C    -0.567868  -0.940723  1.984389
C    -0.086781  -2.382707  2.211282
C    0.949239  -2.548924  3.342675
N    1.852615  -3.694676  3.099002
C    2.921948  -3.645827  2.325032
N    3.418139  -2.613130  1.675751
N    3.720367  -4.851915  2.121272
H    -1.517786  -0.992027  1.433634
H    -0.808805  -0.436103  2.930934
H    0.349552  -2.752026  1.272971
H    -0.954782  -3.018013  2.429356
H    0.467633  -2.733877  4.309459
H    1.584761  -1.665462  3.462630
H    1.590762  -4.595991  3.495287
H    2.972718  -1.644821  1.723808
H    4.071475  -5.248726  3.000714
H    3.199121  -5.592879  1.638030
O    1.246339  1.612393  2.600359
H    2.010958  1.901765  3.140753
Pb    5.270204  -3.394638  0.714702
