27
Energy: -606650.409624 eV PBE+vdW (tier 2 basis)
N    0.117824  -0.194306  0.422835
C    0.006822  0.309728  1.767548
C    0.974491  1.464675  2.016765
O    1.070190  2.067875  3.086065
H    -0.443735  -1.020486  0.233181
H    1.059270  -0.285681  0.051289
H    0.296077  -0.438387  2.540945
C    -1.479481  0.683006  2.030421
C    -1.864065  1.004799  3.487898
C    -1.981253  2.515229  3.744558
N    -2.059449  2.846800  5.182813
C    -1.002234  2.961432  5.969425
N    0.264456  2.797643  5.654558
N    -1.170430  3.347240  7.362588
H    -2.060545  -0.189495  1.704255
H    -1.764355  1.495091  1.345766
H    -1.126978  0.564352  4.175633
H    -2.826562  0.533076  3.726277
H    -2.886922  2.924807  3.281521
H    -1.124997  3.061966  3.331383
H    -2.982928  2.946177  5.600133
H    0.523748  2.473253  4.694724
H    -1.585287  2.596802  7.926948
H    -1.753934  4.182607  7.482025
O    1.747032  1.742373  0.971767
H    2.365326  2.464223  1.207924
Pb    1.388135  3.483787  7.494909
