27
Energy: -606651.939613 eV PBE+vdW (tier 2 basis)
N    -0.311873  -0.047431  1.208069
C    -0.516459  -0.562492  2.570264
C    0.149403  0.323444  3.595326
O    0.269915  -0.077817  4.815900
H    -0.489626  0.959639  1.186116
H    2.284706  0.222070  -1.204439
H    -1.578501  -0.465703  2.888885
C    -0.183203  -2.076188  2.709195
C    0.920132  -2.594182  1.781667
C    2.293709  -1.933315  1.975477
N    3.188700  -2.121460  0.833581
C    3.147614  -1.375207  -0.282930
N    2.224311  -0.418104  -0.421818
N    4.058464  -1.581264  -1.247238
H    -1.098633  -2.639329  2.486981
H    0.046300  -2.286312  3.762322
H    0.607413  -2.474713  0.735088
H    1.013567  -3.677938  1.938180
H    2.805172  -2.338438  2.857518
H    2.200610  -0.848835  2.136771
H    3.778712  -2.946594  0.823788
H    1.398186  -0.332853  0.199324
H    3.966688  -1.153208  -2.160076
H    4.859607  -2.183220  -1.101942
O    0.500973  1.528430  3.301218
H    -1.009449  -0.469638  0.590375
Pb    0.880830  2.000796  5.527344
