27
Energy: -606652.199589 eV PBE+vdW (tier 2 basis)
N    0.230478  0.910527  0.040728
C    0.162117  0.234200  1.376386
C    1.455685  -0.595738  1.611035
O    2.579047  -0.085937  1.104597
H    -0.117355  0.276302  -0.688800
H    -0.394507  1.722163  0.018778
H    0.195949  1.044600  2.124354
C    -1.113048  -0.600489  1.581116
C    -1.416468  -0.831664  3.071002
C    -2.428272  -1.943483  3.365444
N    -2.148245  -3.280785  2.790334
C    -1.226200  -4.163558  3.231176
N    -0.036297  -3.741829  3.670138
N    -1.514209  -5.472562  3.212517
H    -0.993988  -1.562660  1.059277
H    -1.964012  -0.082622  1.113468
H    -1.835980  0.086577  3.509497
H    -0.489981  -1.022049  3.625588
H    -3.412450  -1.669656  2.965759
H    -2.539625  -2.039694  4.454921
H    -2.923981  -3.698119  2.286293
H    0.582906  -4.390637  4.143581
H    -0.784809  -6.173850  3.278496
H    -2.472011  -5.803864  3.194519
O    1.447955  -1.627099  2.252913
H    0.391704  -2.894802  3.286679
Pb    2.630936  1.438127  -0.395672
