27
Energy: -606650.747546 eV PBE+vdW (tier 2 basis)
N    -0.372954  1.474315  1.068361
C    -0.014017  0.384319  2.004069
C    1.348841  -0.166697  1.553966
O    1.855368  0.137047  0.488840
H    -1.232755  1.934595  1.377993
H    0.358543  2.189159  1.050625
H    0.095278  0.769677  3.032327
C    -1.122607  -0.700870  2.029308
C    -1.294304  -1.618466  0.803403
C    -1.774902  -0.971088  -0.510857
N    -0.740166  -0.072510  -1.033018
C    0.016201  -0.235952  -2.074728
N    1.172514  0.393789  -2.320558
N    -0.312308  -1.115314  -3.195746
H    -2.073850  -0.192295  2.253514
H    -0.941554  -1.348973  2.898702
H    -2.048424  -2.373972  1.067585
H    -0.364960  -2.176194  0.607471
H    -2.684609  -0.376254  -0.342878
H    -2.024291  -1.751249  -1.241152
H    -0.492283  0.723614  -0.254878
H    1.607156  0.855380  -1.511988
H    -1.290187  -1.039936  -3.495402
H    -0.135498  -2.101767  -2.973345
O    1.966304  -1.032082  2.363046
H    1.513210  -1.141480  3.220173
Pb    1.665782  -0.076557  -4.428004
