27
Energy: -606651.821405 eV PBE+vdW (tier 2 basis)
N    0.496956  1.101739  0.985946
C    0.296665  0.038135  2.000182
C    0.772771  -1.290644  1.415279
O    1.018740  -1.451887  0.210396
H    -0.144638  1.880530  1.162319
H    1.440723  1.494912  1.066714
H    0.939978  0.235466  2.875260
C    -1.169131  0.018552  2.512380
C    -2.292618  0.089092  1.461184
C    -2.916022  -1.225185  0.996060
N    -2.026432  -2.224750  0.355001
C    -1.798583  -2.246539  -0.984754
N    -1.498416  -1.101607  -1.627715
N    -1.863563  -3.427000  -1.619967
H    -1.253888  0.888002  3.179332
H    -1.309076  -0.854635  3.167145
H    -1.999733  0.687108  0.585991
H    -3.121202  0.656448  1.909483
H    -3.741694  -0.994478  0.309023
H    -3.357138  -1.741049  1.858805
H    -2.052301  -3.143107  0.789893
H    -1.722537  -1.167999  -2.624770
H    -1.489792  -3.543407  -2.555798
H    -2.350599  -4.224592  -1.223050
O    0.947240  -2.320933  2.212918
H    0.820436  -2.108489  3.158972
Pb    0.437004  0.150012  -1.406972
