27
Energy: -606650.512285 eV PBE+vdW (tier 2 basis)
N    0.216401  -0.088984  0.392825
C    0.295069  -0.285661  1.828284
C    1.653015  -0.844639  2.238293
O    1.864103  -1.544975  3.229514
H    1.061625  0.304121  -0.016667
H    -0.584924  0.478359  0.120226
H    0.266639  0.674805  2.395051
C    -0.913332  -1.111310  2.323445
C    -1.123320  -2.461508  1.617485
C    -0.403083  -3.678981  2.206314
N    -0.957374  -4.119051  3.510049
C    -0.448029  -3.878606  4.705354
N    0.587298  -3.130202  5.026449
N    -1.023652  -4.530601  5.874171
H    -1.799168  -0.488757  2.135064
H    -0.867684  -1.207887  3.418069
H    -0.785680  -2.365221  0.573850
H    -2.197904  -2.687303  1.560702
H    0.670227  -3.510732  2.346249
H    -0.516105  -4.539792  1.534466
H    -1.821735  -4.657815  3.470147
H    1.038517  -2.512329  4.298756
H    -1.215874  -5.528605  5.735396
H    -1.897248  -4.083772  6.175963
O    2.634004  -0.430693  1.443334
H    3.493891  -0.755348  1.781754
Pb    1.015572  -3.660856  7.167716
