27
Energy: -606650.69687 eV PBE+vdW (tier 2 basis)
N    0.276284  -1.952446  0.067795
C    0.771840  -0.811819  0.875948
C    2.188415  -1.111988  1.396426
O    2.644249  -2.237596  1.557071
H    -0.667910  -1.733818  -0.263504
H    0.847537  -2.037650  -0.777913
H    0.855161  0.093312  0.248961
C    -0.220993  -0.459878  2.023270
C    -0.877476  -1.630470  2.770290
C    0.064354  -2.470491  3.665502
N    -0.207353  -3.922056  3.595129
C    0.152188  -4.731658  2.612130
N    -0.080991  -6.039263  2.530337
N    0.880896  -4.263735  1.476728
H    -1.029495  0.135523  1.575603
H    0.278544  0.217902  2.731078
H    -1.378342  -2.294464  2.052026
H    -1.686172  -1.218335  3.387326
H    -0.045217  -2.196607  4.720064
H    1.120423  -2.319701  3.419079
H    -0.729604  -4.332147  4.368477
H    -0.600131  -6.513831  3.270676
H    1.735917  -3.685545  1.705800
H    0.390760  -3.481114  0.883599
O    2.944528  -0.066773  1.720031
H    2.534768  0.789460  1.491669
Pb    1.107152  -6.559586  0.686250
