27
Energy: -606649.376611 eV PBE+vdW (tier 2 basis)
N    0.046080  -0.439017  -0.401689
C    -0.207837  0.144135  0.949099
C    1.088399  0.760928  1.475073
O    2.209734  0.420350  1.048869
H    -0.543604  -1.265881  -0.536386
H    -0.223801  0.224972  -1.135541
H    -0.957131  0.948827  0.864611
C    -0.711993  -0.927830  1.959133
C    -2.237483  -1.101118  2.044491
C    -2.933283  -1.603828  0.773716
N    -4.329929  -1.872338  1.040016
C    -5.287346  -1.951784  0.041933
N    -5.104624  -1.770854  -1.240979
N    -6.548089  -2.253240  0.450522
H    -0.352308  -0.665188  2.964107
H    -0.214763  -1.883021  1.718540
H    -2.705739  -0.158267  2.364878
H    -2.415358  -1.819753  2.859313
H    -2.411064  -2.504532  0.386333
H    -2.894252  -0.831318  -0.012437
H    -4.533722  -2.359400  1.908607
H    -4.130588  -1.583023  -1.486486
H    -6.849281  -2.198222  1.415579
H    -7.258300  -2.313389  -0.271377
O    1.060010  1.642066  2.440055
H    0.160303  1.900809  2.724114
Pb    2.522078  -0.983061  -0.739370
