27
Energy: -606651.31165 eV PBE+vdW (tier 2 basis)
N    0.919786  -0.073522  0.130779
C    0.425937  0.164214  1.499303
C    1.599014  0.521929  2.412089
O    2.735935  0.052959  2.265574
H    0.118757  -0.242031  -0.483122
H    1.355939  0.777775  -0.235500
H    -0.299671  0.995296  1.515472
C    -0.249063  -1.096402  2.148871
C    -0.923579  -2.137347  1.235566
C    -0.005520  -3.129960  0.479031
N    1.119503  -3.600914  1.302792
C    2.350331  -3.090346  1.306156
N    3.299068  -3.268260  2.201911
N    2.759334  -2.179708  0.271312
H    -1.010048  -0.723480  2.846066
H    0.488375  -1.614414  2.779736
H    -1.595583  -1.668772  0.500960
H    -1.586496  -2.721744  1.889698
H    0.406546  -2.702163  -0.439667
H    -0.588729  -4.008355  0.176859
H    0.885503  -4.234029  2.067318
H    3.119161  -3.879201  3.000866
H    2.990944  -2.669880  -0.598890
H    2.041750  -1.399271  0.090335
O    1.387224  1.302632  3.450232
H    0.486414  1.683135  3.469898
Pb    4.588505  -1.384769  1.750193
