27
Energy: -606650.944073 eV PBE+vdW (tier 2 basis)
N    -0.780712  0.306165  -0.126672
C    -0.538548  0.291243  1.323355
C    0.974299  0.480713  1.488087
O    1.503422  0.755852  2.580033
H    -1.110167  1.212136  -0.462129
H    -1.451024  -0.400424  -0.428740
H    -1.043402  1.108165  1.859608
C    -0.988769  -1.067755  1.930166
C    -0.457113  -1.400309  3.338191
C    0.873434  -2.187618  3.306428
N    1.667309  -1.986168  4.535341
C    2.754718  -1.247560  4.679181
N    3.366542  -0.934302  5.817956
N    3.414452  -0.637076  3.558563
H    -0.716545  -1.871067  1.226061
H    -2.085855  -1.046915  1.961430
H    -1.207101  -1.999757  3.869825
H    -0.322235  -0.475987  3.915111
H    1.498163  -1.902173  2.453661
H    0.689594  -3.266024  3.213980
H    1.266651  -2.377596  5.389119
H    2.976742  -1.247868  6.708532
H    2.713947  0.052109  3.032965
H    3.733458  -1.324068  2.865833
O    1.655271  0.253304  0.398615
H    0.878795  0.141190  -0.291648
Pb    5.056813  0.368361  5.078130
