27
Energy: -606651.175913 eV PBE+vdW (tier 2 basis)
N    1.254392  -0.726157  1.281418
C    0.013769  -0.242946  1.897968
C    0.118606  -0.378613  3.415064
O    1.125984  -0.810503  3.996380
H    1.189817  -0.622603  0.265347
H    2.043159  -0.138696  1.562299
H    -0.127492  0.847696  1.750964
C    -1.234327  -0.921868  1.241440
C    -1.085673  -2.376077  0.755842
C    -1.421775  -3.521021  1.718024
N    -0.825087  -3.478859  3.076537
C    0.446522  -3.618921  3.448491
N    0.884585  -3.857587  4.669797
N    1.522819  -3.343489  2.547209
H    -1.468478  -0.309771  0.360691
H    -2.112117  -0.821569  1.897905
H    -0.098234  -2.532451  0.303315
H    -1.788074  -2.509500  -0.079689
H    -1.166633  -4.481390  1.248239
H    -2.502563  -3.539577  1.901215
H    -1.499187  -3.558288  3.835731
H    0.208794  -4.119773  5.390231
H    1.372506  -2.562410  1.858480
H    1.929283  -4.182901  2.126054
O    -0.879294  0.041470  4.169032
H    -1.600253  0.456256  3.654181
Pb    2.729957  -2.463229  4.597514
