27
Energy: -606651.975719 eV PBE+vdW (tier 2 basis)
N    0.259486  0.693320  1.578673
C    1.431787  -0.069954  1.947940
C    2.766862  0.558306  1.560914
O    3.849927  0.207754  2.171167
H    0.143240  1.534382  2.141328
H    0.264684  0.968575  0.596584
H    1.471514  -0.142258  3.047629
C    1.341040  -1.520150  1.396062
C    0.227749  -2.297324  2.110253
C    -0.041361  -3.703396  1.556273
N    -0.762328  -3.744342  0.274404
C    -2.090742  -3.853679  0.129551
N    -2.604937  -4.183701  -1.065423
N    -2.914497  -3.636689  1.162385
H    2.303975  -2.033847  1.533273
H    1.150143  -1.458731  0.312071
H    -0.691737  -1.692715  2.092365
H    0.502004  -2.419664  3.169262
H    -0.617450  -4.292954  2.282812
H    0.897996  -4.251921  1.404115
H    -0.212610  -3.765696  -0.577322
H    -2.039614  -4.625540  -1.780142
H    -3.887794  -3.914840  1.121983
H    -2.596365  -3.187031  2.010810
O    2.836902  1.462038  0.645903
H    -3.595473  -4.089011  -1.255654
Pb    5.084537  1.739690  1.020092
