27
Energy: -606649.981782 eV PBE+vdW (tier 2 basis)
N    -0.452551  0.059252  -0.281223
C    -0.785805  0.139216  1.117554
C    0.289143  0.975091  1.818619
O    1.168528  1.561654  1.233460
H    -1.233363  0.025070  -0.930055
H    0.281756  0.712070  -0.561101
H    -1.735646  0.684991  1.281627
C    -0.967645  -1.269270  1.748977
C    0.315835  -2.104873  1.674129
C    0.151246  -3.569624  2.072214
N    -0.163780  -3.704981  3.518539
C    0.084838  -4.732930  4.310729
N    -0.148317  -4.846397  5.606357
N    0.668646  -5.951900  3.787312
H    -1.777578  -1.775633  1.201990
H    -1.318644  -1.122240  2.782682
H    1.120228  -1.652376  2.274892
H    0.670017  -2.101018  0.632315
H    1.080912  -4.117476  1.869268
H    -0.661661  -4.039817  1.496356
H    -0.635625  -2.901648  3.937170
H    -0.524168  -4.042798  6.113163
H    1.662134  -5.832830  3.556437
H    0.199449  -6.290053  2.940092
O    0.122311  0.985044  3.162596
H    0.783541  1.607088  3.529067
Pb    0.294260  -7.041903  6.098934
