27
Energy: -606651.818821 eV PBE+vdW (tier 2 basis)
N    0.842119  -0.965693  -0.516727
C    0.765812  -0.340998  0.835163
C    1.891116  -0.873198  1.725985
O    2.472336  -1.945238  1.492972
H    -0.084379  -1.348031  -0.771492
H    1.096333  -0.264646  -1.217570
H    0.892403  0.747000  0.728708
C    -0.590124  -0.615016  1.531763
C    -0.907393  -2.096259  1.833138
C    -1.900577  -2.774029  0.895243
N    -1.498484  -2.907474  -0.548644
C    -0.824256  -4.055193  -0.940588
N    0.394303  -4.295004  -0.455083
N    -1.433729  -4.864840  -1.819099
H    -1.373540  -0.155477  0.910283
H    -0.600593  -0.041811  2.469216
H    -1.367035  -2.152835  2.829809
H    0.005419  -2.703036  1.914944
H    -2.836867  -2.201478  0.876578
H    -2.142511  -3.770148  1.291395
H    -2.292825  -2.715951  -1.158113
H    0.666996  -5.271380  -0.601230
H    -0.937432  -5.624908  -2.274786
H    -2.436074  -4.823931  -1.977607
O    2.223167  -0.228273  2.817670
H    1.754523  0.621569  2.937638
Pb    2.332375  -2.958632  -0.613681
