27
Energy: -606650.30755 eV PBE+vdW (tier 2 basis)
N    1.635462  0.376371  1.025513
C    1.162158  -0.377316  2.176285
C    2.315089  -1.234515  2.713662
O    2.495203  -2.437643  2.488233
H    2.239978  1.160390  1.263605
H    2.066598  -0.188815  0.295511
H    0.911411  0.351551  2.961598
C    -0.107086  -1.158694  1.782345
C    -0.933638  -1.767131  2.929468
C    -0.408130  -2.986237  3.690083
N    -0.727655  -4.306218  3.040482
C    -0.203783  -4.664132  1.728162
N    -1.122369  -5.342408  1.051568
N    1.010206  -4.331213  1.369178
H    0.139641  -1.899421  1.008221
H    -0.740343  -0.415747  1.280173
H    -1.945638  -2.004242  2.540270
H    -1.116283  -0.984444  3.681520
H    -0.898804  -3.050630  4.669746
H    0.671456  -2.933547  3.880483
H    -0.438934  -5.051092  3.688914
H    -0.877436  -5.736504  0.140927
H    1.339377  -4.584051  0.438021
H    1.602548  -3.613318  1.891380
O    3.181406  -0.512537  3.412770
H    3.958492  -1.060483  3.652079
Pb    -3.018577  -4.947133  2.215906
