27
Energy: -606650.597134 eV PBE+vdW (tier 2 basis)
N    -0.033115  -0.631672  0.027926
C    0.125836  -0.406310  1.475080
C    1.576311  -0.401219  1.939646
O    1.868457  0.069800  3.101280
H    0.229092  0.198385  -0.508487
H    -1.670438  -1.246808  -0.222761
H    -0.263452  0.593611  1.723549
C    -0.673189  -1.468473  2.278199
C    -2.176395  -1.178372  2.464635
C    -3.005087  -0.737197  1.253783
N    -2.699547  -1.495404  -0.014218
C    -2.899596  -3.016240  0.026922
N    -3.730430  -3.620435  0.750422
N    -1.979164  -3.621848  -0.786249
H    -0.247017  -1.566997  3.284977
H    -0.520616  -2.442022  1.786276
H    -2.303351  -0.381861  3.212344
H    -2.617510  -2.078451  2.912139
H    -2.819130  0.314505  0.997616
H    -4.077251  -0.825617  1.467289
H    -3.283883  -1.119511  -0.773522
H    -4.316106  -3.061227  1.369559
H    -2.133008  -4.622492  -0.897891
H    -1.696911  -3.158475  -1.645059
O    2.510579  -0.872697  1.195552
H    0.595031  -1.380235  -0.278800
Pb    4.097920  -0.365085  2.813169
