27
Energy: -606650.189512 eV PBE+vdW (tier 2 basis)
N    -0.411321  -0.033963  -0.140006
C    -0.000881  -0.056050  1.239889
C    1.439131  -0.509411  1.526946
O    2.151270  0.041535  2.372579
H    0.123585  0.603545  -0.726567
H    -0.448244  -0.953882  -0.577419
H    -0.007202  0.991744  1.586681
C    -1.049745  -0.875946  2.046604
C    -0.745928  -1.413308  3.461948
C    -0.122082  -0.478855  4.504778
N    -0.693138  0.926444  4.467576
C    0.255075  2.017098  4.670969
N    -0.207685  2.875748  5.568389
N    1.384380  2.037764  4.007178
H    -1.305733  -1.756969  1.440794
H    -1.972320  -0.272453  2.039058
H    -0.061967  -2.272466  3.398109
H    -1.688202  -1.826988  3.848113
H    0.959646  -0.406833  4.357679
H    -0.279674  -0.879143  5.514928
H    -1.150384  1.053932  3.553949
H    0.340035  3.710890  5.786428
H    2.064398  2.777377  4.179340
H    1.661220  1.272222  3.312940
O    1.845159  -1.531000  0.792193
H    2.776946  -1.751106  1.005832
Pb    -2.089157  1.884913  6.325836
