27
Energy: -606651.970702 eV PBE+vdW (tier 2 basis)
N    0.695812  0.553103  0.185699
C    -0.306004  0.463290  1.232135
C    -0.428044  1.697135  2.125548
O    -1.459966  1.841193  2.889027
H    0.464278  1.263128  -0.508771
H    1.615289  0.786831  0.562437
H    -1.298952  0.377383  0.758071
C    -0.105938  -0.801964  2.109798
C    -0.561236  -2.108161  1.435551
C    0.290811  -2.649819  0.283340
N    1.536477  -3.256918  0.780181
C    2.560858  -3.639738  0.003981
N    3.655194  -4.185816  0.557388
N    2.513087  -3.456257  -1.320625
H    -0.688795  -0.688651  3.033844
H    0.953139  -0.852861  2.409796
H    -1.581044  -1.974587  1.046367
H    -0.655982  -2.888137  2.208552
H    0.552088  -1.827047  -0.397306
H    -0.294078  -3.407715  -0.262447
H    1.510117  -3.644464  1.718936
H    4.357534  -4.646979  -0.008118
H    3.322611  -3.625854  -1.905084
H    1.651688  -3.198926  -1.784570
O    0.472478  2.616089  2.120123
H    3.773038  -4.232336  1.561500
Pb    -0.742589  3.877500  3.613269
