27
Energy: -606651.318817 eV PBE+vdW (tier 2 basis)
N    -0.557491  0.358776  1.328636
C    0.303529  -0.431865  2.263587
C    1.709948  0.157297  2.090718
O    1.811420  1.393234  2.127884
H    -1.521092  0.027879  1.402190
H    -0.267469  0.210774  0.355063
H    0.083854  -0.055782  3.273091
C    -0.005304  -1.938425  2.306465
C    -0.892288  -2.302816  3.520953
C    -2.296552  -1.672778  3.624927
N    -2.324080  -0.192247  3.621423
C    -1.734047  0.649432  4.519045
N    -1.380300  1.875865  4.104001
N    -1.474645  0.190596  5.754411
H    0.917629  -2.532379  2.405476
H    -0.458773  -2.261452  1.357593
H    -0.323217  -2.089763  4.438965
H    -1.047291  -3.390826  3.521812
H    -2.802393  -2.078694  4.514427
H    -2.917518  -1.977184  2.772105
H    -3.000808  0.260304  3.015968
H    -1.250070  2.520155  4.889007
H    -0.920685  0.734911  6.407433
H    -2.000411  -0.585332  6.145545
O    2.790143  -0.570876  1.980461
H    2.605345  -1.530565  1.934291
Pb    -0.283752  2.683389  2.161771
