27
Energy: -606650.111793 eV PBE+vdW (tier 2 basis)
N    0.015506  -0.381857  -0.182688
C    -0.040998  -0.214784  1.242271
C    1.329919  -0.387712  1.927496
O    2.198850  -1.148809  1.620584
H    0.558309  0.317291  -0.684299
H    0.264809  -1.320268  -0.492591
H    -0.381118  0.815031  1.443028
C    -1.049695  -1.235151  1.829439
C    -1.294294  -1.249765  3.344774
C    -1.975749  -0.020374  3.951655
N    -1.033903  1.105252  4.164826
C    -1.357139  2.236353  4.746797
N    -2.531210  2.625973  5.219653
N    -0.354500  3.273257  4.950009
H    -0.705316  -2.239548  1.541137
H    -1.997398  -1.070424  1.296818
H    -0.376987  -1.478963  3.909208
H    -1.966978  -2.093982  3.550900
H    -2.403464  -0.283774  4.931400
H    -2.795266  0.330949  3.303800
H    -0.050564  0.956163  3.858554
H    -3.325952  1.989123  5.142398
H    0.059049  3.594696  4.067286
H    0.417231  2.954632  5.546924
O    1.463829  0.475067  3.029889
H    2.343495  0.276480  3.414693
Pb    -2.166843  4.716214  6.044893
