27
Energy: -606651.996635 eV PBE+vdW (tier 2 basis)
N    0.549739  0.701817  2.806141
C    0.777098  -0.723444  2.562392
C    2.222458  -1.031379  2.913233
O    2.516925  -1.431197  4.106753
H    -4.071477  1.407098  -1.579976
H    0.539791  0.949410  3.794416
H    0.161130  -1.283112  3.280612
C    0.385295  -1.114279  1.128844
C    -1.135080  -1.037425  0.933809
C    -1.622941  -1.391710  -0.477879
N    -1.361755  -0.372436  -1.505979
C    -2.223754  0.572259  -1.907993
N    -3.314641  0.860190  -1.187029
N    -1.990925  1.244268  -3.046278
H    0.734871  -2.138028  0.923871
H    0.913661  -0.453120  0.423561
H    -1.488205  -0.035672  1.221990
H    -1.621627  -1.746339  1.621475
H    -2.703527  -1.589379  -0.469599
H    -1.152522  -2.319635  -0.830831
H    -0.483946  -0.426191  -2.010989
H    -3.427673  0.528553  -0.238162
H    -1.360300  0.884672  -3.752450
H    -2.512502  2.081106  -3.278573
O    3.185793  -0.820940  2.078153
H    1.199608  1.306871  2.304415
Pb    4.736192  -1.514470  3.623099
