27
Energy: -606650.959568 eV PBE+vdW (tier 2 basis)
N    -0.587592  0.979082  0.910469
C    -0.321228  -0.077946  1.900646
C    1.068660  -0.628480  1.560027
O    1.622198  -1.509060  2.241571
H    -1.491762  0.888622  0.448485
H    -0.544511  1.913290  1.318019
H    -0.277715  0.325440  2.922818
C    -1.345362  -1.239014  1.911158
C    -1.588698  -2.013314  0.600888
C    -0.485909  -2.941807  0.060249
N    -0.154758  -4.050149  0.981478
C    1.029138  -4.396389  1.459241
N    1.286427  -5.363754  2.334634
N    2.231353  -3.698249  1.105215
H    -2.308524  -0.816436  2.229525
H    -1.045111  -1.927696  2.713562
H    -1.826251  -1.330223  -0.229210
H    -2.505236  -2.608582  0.733552
H    0.435852  -2.399991  -0.174067
H    -0.837245  -3.394985  -0.877923
H    -0.948062  -4.619682  1.280500
H    0.519258  -5.902802  2.739423
H    2.164105  -2.667679  1.526433
H    2.381659  -3.623593  0.093656
O    1.562346  -0.163903  0.445650
H    0.816733  0.530091  0.187368
Pb    3.536301  -5.228655  2.506181
