27
Energy: -606650.253301 eV PBE+vdW (tier 2 basis)
N    0.491779  -0.863226  -0.231062
C    -0.042945  -0.094715  0.884086
C    1.069997  0.232102  1.857130
O    2.273603  0.352369  1.452419
H    -0.221762  -0.982971  -0.951697
H    1.278838  -0.388444  -0.674829
H    -0.402200  0.926104  0.608267
C    -1.252519  -0.801744  1.539842
C    -1.112169  -2.319858  1.773367
C    0.176320  -2.797241  2.426965
N    0.365839  -2.176444  3.819487
C    1.667481  -2.423476  4.529071
N    1.817835  -2.891954  5.675866
N    2.790393  -1.943715  3.785993
H    -2.118247  -0.655865  0.879889
H    -1.517511  -0.269464  2.464558
H    -1.144553  -2.851903  0.812228
H    -1.986726  -2.678050  2.337400
H    1.031219  -2.495950  1.805289
H    0.199131  -3.885319  2.560716
H    -0.393922  -2.497909  4.434524
H    0.993129  -3.179004  6.210298
H    3.628903  -2.322289  4.242538
H    2.790391  -2.249726  2.806454
O    0.823106  0.402834  3.124859
H    0.274574  -1.126679  3.702448
Pb    3.117142  0.726750  3.573605
