27
Energy: -606651.821356 eV PBE+vdW (tier 2 basis)
N    0.854359  1.434368  1.581406
C    0.571245  0.530010  2.674480
C    1.891036  -0.059467  3.162199
O    2.976815  0.218520  2.625603
H    -2.205011  -2.075985  -1.343794
H    0.034041  1.967729  1.293008
H    0.164215  1.086366  3.544575
C    -0.476743  -0.578968  2.350164
C    -0.081660  -1.576108  1.252951
C    -1.152964  -2.668289  1.095930
N    -0.800432  -3.702260  0.116331
C    -1.406684  -3.953007  -1.055177
N    -2.197955  -3.043026  -1.637947
N    -1.209506  -5.132857  -1.658953
H    -1.407003  -0.057876  2.078756
H    -0.718021  -1.120152  3.281090
H    0.877781  -2.058914  1.500866
H    0.067899  -1.052115  0.297906
H    -2.124236  -2.238824  0.816191
H    -1.317827  -3.177000  2.057357
H    -0.089253  -4.370240  0.398853
H    -2.817035  -3.300444  -2.397801
H    -1.461544  -5.276654  -2.630146
H    -0.848037  -5.934076  -1.154801
O    1.919820  -0.896052  4.180961
H    1.041912  -1.017870  4.590712
Pb    2.878919  1.904642  0.994859
