27
Energy: -606650.500132 eV PBE+vdW (tier 2 basis)
N    1.323458  0.339608  1.034187
C    0.386008  0.351140  2.175648
C    1.123909  0.284324  3.497448
O    0.460673  0.127754  4.588951
H    1.460691  -1.168189  0.375348
H    0.954779  0.921081  0.277584
H    -0.126550  1.331730  2.249017
C    -0.738682  -0.702183  2.050744
C    -0.329760  -2.184414  1.923438
C    0.003824  -2.688816  0.516886
N    1.359818  -2.215033  0.046139
C    1.703563  -2.323317  -1.432786
N    2.712062  -2.939232  -1.869728
N    0.880102  -1.542443  -2.195887
H    -1.360811  -0.413044  1.190151
H    -1.386753  -0.586622  2.928963
H    -1.185652  -2.787516  2.257894
H    0.484760  -2.441667  2.621674
H    -0.748033  -2.333292  -0.198167
H    0.005024  -3.784210  0.474667
H    2.079775  -2.755388  0.537772
H    3.323580  -3.392821  -1.190323
H    1.076074  -1.605385  -3.192998
H    -0.109646  -1.487725  -1.982337
O    2.396112  0.459752  3.553883
H    2.224769  0.746451  1.298718
Pb    2.311559  0.521661  5.879114
