27
Energy: -606651.563572 eV PBE+vdW (tier 2 basis)
N    0.441896  -1.221829  1.090307
C    -0.086940  0.097687  1.541011
C    0.954348  0.801837  2.413489
O    2.005433  0.259216  2.781783
H    -0.124810  -1.997150  1.462326
H    0.376562  -1.284284  0.070990
H    -0.176311  0.719959  0.636309
C    -1.515492  0.060845  2.191272
C    -1.723239  -0.028354  3.719722
C    -1.533273  -1.366961  4.449481
N    -0.124590  -1.772308  4.523295
C    0.508610  -2.699875  3.796228
N    1.848721  -2.817410  3.743926
N    -0.204994  -3.515925  2.958655
H    -2.074502  -0.735806  1.676723
H    -2.019129  0.983914  1.868621
H    -2.771196  0.257970  3.893592
H    -1.137063  0.744093  4.242508
H    -2.129176  -2.160720  3.982125
H    -1.911721  -1.271057  5.475665
H    0.476479  -1.169936  5.080865
H    2.305746  -2.406886  4.564544
H    0.273587  -4.385508  2.732270
H    -1.197216  -3.645959  3.137340
O    0.740600  2.038465  2.805547
H    -0.082242  2.432438  2.454105
Pb    2.799669  -1.792437  1.878359
