27
Energy: -606651.074419 eV PBE+vdW (tier 2 basis)
N    0.268762  -0.295472  0.427766
C    0.167854  0.072798  1.824753
C    1.533984  0.197657  2.470924
O    1.740753  0.194795  3.710452
H    0.914767  0.292846  -0.097099
H    -0.641920  -0.225398  -0.026322
H    -0.248184  1.095576  2.003823
C    -0.743613  -0.911838  2.583917
C    -0.280764  -2.371684  2.496205
C    -1.070712  -3.340228  3.388305
N    -1.247837  -2.859179  4.780988
C    -0.283831  -2.387213  5.559474
N    1.023032  -2.514424  5.400179
N    -0.608207  -1.513759  6.633185
H    -1.757618  -0.809169  2.170076
H    -0.818299  -0.568910  3.626804
H    0.797548  -2.439944  2.706823
H    -0.382032  -2.736022  1.465846
H    -0.604736  -4.335892  3.398658
H    -2.088268  -3.475500  3.003049
H    -2.199493  -2.831128  5.138935
H    1.348240  -3.210885  4.729975
H    -0.411754  -1.915318  7.554173
H    -1.548169  -1.114203  6.617661
O    2.512603  0.393011  1.622312
H    3.365036  0.558592  2.078049
Pb    1.803966  -0.419161  5.956055
