27
Energy: -606652.185677 eV PBE+vdW (tier 2 basis)
N    0.709401  1.054682  1.392480
C    0.107339  -0.063178  2.192002
C    1.165170  -1.157845  2.466605
O    2.144659  -1.287729  1.574331
H    -0.013130  1.524291  0.836900
H    1.081949  1.773367  2.023285
H    -0.207435  0.334001  3.166930
C    -1.117525  -0.651112  1.443286
C    -2.260067  -1.260702  2.281843
C    -2.054599  -2.650137  2.917597
N    -1.456912  -2.635927  4.251905
C    -2.036129  -3.016374  5.394956
N    -1.263015  -3.275736  6.461601
N    -3.367028  -3.137406  5.511572
H    -0.779180  -1.380201  0.689008
H    -1.574789  0.177792  0.879485
H    -3.109156  -1.354255  1.589710
H    -2.581152  -0.545236  3.054039
H    -1.419799  -3.279259  2.275515
H    -3.019229  -3.168355  2.973759
H    -0.456006  -2.404179  4.268870
H    -1.654244  -3.353255  7.392500
H    -3.780558  -3.612662  6.304637
H    -4.000267  -2.754946  4.822586
O    1.068496  -1.896522  3.428752
H    -0.267888  -3.433211  6.359246
Pb    2.612094  0.153097  0.063603
