27
Energy: -606650.055909 eV PBE+vdW (tier 2 basis)
N    0.182044  -0.258586  -0.032639
C    0.190835  0.282700  1.301303
C    1.625046  0.702208  1.635850
O    2.524141  0.715566  0.829418
H    -0.666221  -0.118806  -0.573586
H    1.038647  -0.070182  -0.556260
H    -0.405969  1.214404  1.367682
C    -0.415122  -0.706392  2.333537
C    0.381622  -2.013058  2.425002
C    -0.248971  -3.087535  3.304717
N    -0.223142  -2.705458  4.739048
C    -0.595720  -3.489514  5.734270
N    -1.074865  -4.715397  5.674771
N    -0.491238  -3.034133  7.110180
H    -1.448742  -0.921302  2.022117
H    -0.476170  -0.181615  3.299251
H    1.414132  -1.828153  2.763044
H    0.469589  -2.441453  1.415957
H    0.304907  -4.033309  3.202530
H    -1.297834  -3.264816  3.017395
H    0.114222  -1.769568  4.960813
H    -1.207462  -5.145218  4.757822
H    -1.105734  -2.235842  7.306079
H    0.464035  -2.760380  7.365576
O    1.755403  1.070537  2.934141
H    2.666284  1.413048  3.041724
Pb    -1.354083  -5.344922  7.868777
