27
Energy: -606649.543856 eV PBE+vdW (tier 2 basis)
N    -0.612869  -0.441435  0.036843
C    -0.050299  0.542883  1.006985
C    1.345484  0.969385  0.531651
O    1.769756  0.708991  -0.608668
H    -0.447265  -1.394776  0.379054
H    -1.630850  -0.334097  -0.004712
H    -0.659034  1.459758  0.912967
C    -0.114070  0.079823  2.481591
C    0.761454  -1.128142  2.844829
C    0.610587  -1.518457  4.326956
N    1.434568  -2.659546  4.644689
C    2.139107  -2.894560  5.804450
N    3.013428  -3.861889  5.727479
N    1.880272  -2.090945  6.880544
H    -1.171269  -0.124225  2.710193
H    0.136063  0.939601  3.127156
H    1.824197  -0.923528  2.641398
H    0.486386  -2.004306  2.231927
H    -0.455422  -1.713296  4.549883
H    0.923783  -0.676743  4.964515
H    1.606348  -3.376784  3.945380
H    3.524843  -4.016945  6.601526
H    2.401896  -2.275034  7.730435
H    0.953897  -1.704961  7.029998
O    2.117992  1.682982  1.310633
H    1.727903  1.857900  2.190126
Pb    0.487464  -0.282829  -2.256952
