27
Energy: -606650.55399 eV PBE+vdW (tier 2 basis)
N    0.007231  -0.207784  -0.148212
C    0.156036  -0.064670  1.310941
C    1.606117  -0.067369  1.778835
O    1.891786  0.330012  2.968529
H    -1.566876  -0.873895  -0.452784
H    0.184233  0.674506  -0.633359
H    -0.247429  0.913331  1.616990
C    -0.631368  -1.183296  2.046545
C    -2.153150  -0.952387  2.192979
C    -2.939041  -0.410143  0.993640
N    -2.606250  -1.135989  -0.284259
C    -3.394919  -0.848536  -1.567380
N    -3.571901  -1.720454  -2.457462
N    -3.725382  0.469341  -1.681527
H    -0.232129  -1.311363  3.061017
H    -0.425218  -2.128942  1.520354
H    -2.334702  -0.244121  3.014172
H    -2.598063  -1.902991  2.522227
H    -2.701985  0.646406  0.814090
H    -4.016319  -0.497637  1.180672
H    -2.673522  -2.149680  -0.137555
H    -3.167353  -2.645837  -2.312206
H    -4.243016  0.682072  -2.531989
H    -4.041155  0.989345  -0.870314
O    2.545959  -0.474092  1.004460
H    0.693835  -0.875262  -0.511484
Pb    4.131620  -0.041339  2.645443
