27
Energy: -606650.662708 eV PBE+vdW (tier 2 basis)
N    -0.926311  -2.379943  1.276744
C    -0.596117  -0.963692  1.522438
C    0.857729  -0.626346  1.215930
O    1.223391  0.607610  1.168376
H    -0.368384  -2.977334  1.894486
H    -2.553053  -2.859579  1.374782
H    -1.188926  -0.345782  0.829689
C    -0.931781  -0.537072  2.983588
C    -2.278829  0.161454  3.223349
C    -3.567714  -0.634960  2.984866
N    -3.987446  -0.678030  1.572854
C    -4.277604  -1.767215  0.804429
N    -4.881997  -1.930369  -0.296224
N    -3.633209  -3.025873  1.299575
H    -0.155255  0.155253  3.334036
H    -0.844254  -1.431892  3.620650
H    -2.321948  1.098415  2.646866
H    -2.284454  0.469097  4.279371
H    -4.381173  -0.179067  3.566979
H    -3.461823  -1.655271  3.376744
H    -4.430586  0.174675  1.239603
H    -5.338127  -1.098011  -0.678233
H    -3.852040  -3.726265  0.577151
H    -4.018437  -3.354372  2.193658
O    1.726771  -1.549113  1.007144
H    -0.658117  -2.647802  0.324971
Pb    3.389176  0.037491  0.694174
