27
Energy: -606652.336167 eV PBE+vdW (tier 2 basis)
N    0.385378  -2.040242  1.143563
C    0.404087  -0.597289  0.734094
C    1.385052  -0.377747  -0.450553
O    2.404453  -1.231044  -0.548499
H    -0.353595  -2.533329  0.626805
H    0.127555  -2.126546  2.131622
H    0.852637  -0.047917  1.578912
C    -1.013354  -0.057328  0.470509
C    -1.102971  1.485432  0.349686
C    -1.656576  1.925402  -1.016843
N    -1.541240  3.362288  -1.260989
C    -0.522019  3.960984  -1.899016
N    0.586700  3.282267  -2.207767
N    -0.625891  5.257880  -2.229017
H    -1.658330  -0.394161  1.293482
H    -1.404832  -0.535053  -0.442477
H    -0.115908  1.941565  0.500138
H    -1.746495  1.879886  1.146885
H    -2.720719  1.668009  -1.101776
H    -1.141674  1.397888  -1.830120
H    -2.277946  3.962488  -0.905393
H    1.264076  3.676851  -2.848896
H    -1.515898  5.740383  -2.210006
H    0.174598  5.782929  -2.558795
O    1.256390  0.558522  -1.214036
H    0.774344  2.344907  -1.850837
Pb    2.579068  -3.054567  0.557257
