27
Energy: -606650.356747 eV PBE+vdW (tier 2 basis)
N    0.821925  -0.848861  0.667391
C    0.257598  0.097214  1.643644
C    1.398825  0.526489  2.579779
O    1.685561  -0.028154  3.641850
H    0.140040  -1.037329  -0.069842
H    1.646675  -0.470783  0.197942
H    -0.113819  1.031275  1.175736
C    -0.943187  -0.517288  2.414450
C    -1.073892  -2.052408  2.494428
C    0.128530  -2.875211  2.982673
N    0.708867  -2.341140  4.218900
C    0.904560  -2.914589  5.365967
N    1.501865  -2.380373  6.442322
N    0.497122  -4.284371  5.668312
H    -1.860668  -0.163091  1.925864
H    -0.973251  -0.076544  3.421325
H    -1.315623  -2.460944  1.503300
H    -1.947030  -2.267603  3.127996
H    0.925049  -2.811016  2.223881
H    -0.155024  -3.928122  3.107126
H    1.090429  -1.330754  4.062577
H    1.852971  -1.422380  6.367217
H    -0.517573  -4.415107  5.585434
H    0.937461  -4.966500  5.040107
O    2.143658  1.560781  2.211920
H    1.808790  1.985915  1.399317
Pb    1.491039  -3.981542  7.988106
