27
Energy: -606652.057801 eV PBE+vdW (tier 2 basis)
N    0.696748  -0.302709  -0.279973
C    0.238533  0.020368  1.055692
C    1.325468  0.515415  2.003025
O    1.023503  1.273321  3.003157
H    -3.008287  -4.851805  -1.908016
H    0.919453  0.525713  -0.829339
H    -0.484005  0.849554  0.990734
C    -0.491115  -1.192457  1.696730
C    -1.784543  -1.517325  0.937673
C    -2.394014  -2.855443  1.378092
N    -3.695180  -3.141587  0.760241
C    -3.907421  -3.846457  -0.359004
N    -2.893751  -4.159355  -1.177696
N    -5.147880  -4.258028  -0.659672
H    -0.713198  -0.978373  2.752416
H    0.196087  -2.054201  1.677776
H    -1.568112  -1.526163  -0.141178
H    -2.519864  -0.715269  1.103625
H    -2.559417  -2.867430  2.463985
H    -1.719304  -3.696669  1.162690
H    -4.517617  -2.764770  1.220511
H    -2.009184  -3.670949  -1.134379
H    -5.383164  -4.588009  -1.588134
H    -5.884919  -4.269641  0.035083
O    2.560626  0.198587  1.816378
H    1.517900  -0.908191  -0.273666
Pb    3.213334  1.453436  3.620298
