27
Energy: -606651.155514 eV PBE+vdW (tier 2 basis)
N    0.409759  -0.119843  -0.102400
C    -0.069483  0.105321  1.244283
C    1.058222  -0.017956  2.268968
O    1.519825  0.940798  2.941682
H    1.168950  0.492349  -0.396071
H    0.657803  -1.090496  -0.293986
H    -0.400253  1.153279  1.303805
C    -1.242699  -0.847547  1.552379
C    -1.925837  -0.694499  2.921439
C    -3.045511  0.353497  3.019436
N    -2.653134  1.731032  2.639830
C    -1.732059  2.461384  3.254948
N    -1.103120  2.203953  4.383806
N    -1.207147  3.622617  2.607936
H    -0.866775  -1.876978  1.463029
H    -1.965382  -0.719266  0.733237
H    -1.178034  -0.550361  3.717759
H    -2.411729  -1.647194  3.175079
H    -3.475027  0.368827  4.032008
H    -3.865326  0.089858  2.341034
H    -3.156871  2.156545  1.865357
H    -1.466022  1.453951  4.972115
H    -1.374923  3.682810  1.601305
H    -1.512016  4.492599  3.055597
O    1.596851  -1.211347  2.354728
H    2.375320  -1.216479  2.951973
Pb    1.034505  2.992543  3.936661
