27
Energy: -606651.132333 eV PBE+vdW (tier 2 basis)
N    0.899989  -1.596188  0.445891
C    0.299718  -0.530461  1.260266
C    1.291553  0.186061  2.160105
O    0.911084  1.212897  2.839576
H    -0.335354  -2.189410  -0.403511
H    1.562314  -1.213251  -0.232105
H    -0.075041  0.233113  0.555206
C    -0.908806  -1.044768  2.084291
C    -2.199810  -1.304856  1.285419
C    -2.256965  -2.545328  0.398941
N    -1.334418  -2.467232  -0.808199
C    -1.685293  -1.438060  -1.823795
N    -1.031930  -0.349719  -1.709944
N    -2.653924  -1.836356  -2.680757
H    -1.144645  -0.286356  2.841840
H    -0.605979  -1.950818  2.634969
H    -2.472012  -0.410989  0.706401
H    -3.010320  -1.438939  2.016806
H    -3.278158  -2.708229  0.033814
H    -1.945811  -3.444585  0.948065
H    -1.265998  -3.393980  -1.246789
H    -1.286726  0.351571  -2.411215
H    -2.954910  -1.218450  -3.426240
H    -3.061464  -2.763585  -2.673123
O    2.513101  -0.205839  2.247896
H    1.411185  -2.269117  1.022641
Pb    3.001662  1.516299  3.711579
