27
Energy: -606652.113867 eV PBE+vdW (tier 2 basis)
N    0.530943  -0.921864  0.968589
C    -0.672152  -0.266209  1.634767
C    -0.172282  0.349221  2.941675
O    -1.028750  0.771785  3.769695
H    0.483275  -0.879011  -0.057892
H    0.628096  -1.910142  1.239209
H    -1.421475  -1.045330  1.815811
C    -1.263100  0.874158  0.782510
C    -0.361466  2.123075  0.660901
C    -1.082253  3.459019  0.880431
N    -1.900136  3.567293  2.106726
C    -1.496000  4.152648  3.260355
N    -0.262060  3.935145  3.763901
N    -2.379424  4.954072  3.884819
H    -2.203709  1.129025  1.289899
H    -1.552855  0.477301  -0.201331
H    0.097306  2.174201  -0.336525
H    0.478322  2.078533  1.366874
H    -1.771883  3.655578  0.049433
H    -0.339478  4.266882  0.878511
H    -2.901685  3.613376  1.943837
H    0.022458  4.741519  4.328985
H    -3.168225  5.366749  3.397115
H    -2.241574  5.237928  4.848124
O    1.080306  0.545560  3.061994
H    1.377656  -0.423015  1.309631
Pb    0.577887  2.087967  4.921550
