27
Energy: -606652.019972 eV PBE+vdW (tier 2 basis)
N    0.302523  0.268831  -0.541793
C    0.234800  0.225381  0.951358
C    1.656581  0.332083  1.587226
O    2.567406  1.023272  0.876577
H    0.403052  -0.681334  -0.917045
H    -0.564920  0.636878  -0.941129
H    -0.280653  1.150273  1.260126
C    -0.509076  -0.987807  1.523533
C    -2.019379  -1.019777  1.275464
C    -2.749370  -2.138519  2.035582
N    -2.811339  -1.925861  3.489629
C    -2.272429  -2.691392  4.452656
N    -1.255527  -3.523454  4.193001
N    -2.755834  -2.616408  5.700208
H    -0.294131  -0.963819  2.602141
H    -0.035494  -1.907979  1.137787
H    -2.246454  -1.168637  0.208337
H    -2.470312  -0.052586  1.551135
H    -2.290767  -3.118121  1.846398
H    -3.784020  -2.211774  1.673498
H    -3.458927  -1.210737  3.808361
H    -0.979842  -4.233070  4.861756
H    -2.237601  -2.985033  6.489512
H    -3.670106  -2.224265  5.892880
O    1.888235  -0.134521  2.673320
H    -0.693323  -3.432415  3.357745
Pb    2.357906  1.589131  -1.154407
