27
Energy: -606649.456533 eV PBE+vdW (tier 2 basis)
N    -0.072395  1.390965  0.566155
C    -0.186885  0.100039  1.308351
C    1.192877  -0.274888  1.872644
O    2.158520  0.510820  1.850491
H    -0.061314  1.202785  -0.443098
H    -0.904366  1.963921  0.730981
H    -0.809188  0.293587  2.200120
C    -0.824074  -1.023789  0.455405
C    -2.288450  -0.794925  0.045695
C    -3.315206  -1.056584  1.156863
N    -4.649168  -0.809796  0.662823
C    -5.771739  -0.510052  1.401783
N    -6.781161  -0.053631  0.714047
N    -5.691690  -0.682049  2.760798
H    -0.764702  -1.981953  0.997911
H    -0.204114  -1.163327  -0.444377
H    -2.497079  -1.476753  -0.791729
H    -2.434680  0.220245  -0.356559
H    -3.143177  -0.404374  2.032866
H    -3.201578  -2.099962  1.510280
H    -4.820603  -0.761205  -0.338120
H    -7.603945  0.155141  1.287500
H    -6.534722  -0.487509  3.290745
H    -5.131830  -1.437785  3.143241
O    1.385295  -1.432802  2.448721
H    0.607975  -2.024774  2.415192
Pb    2.077048  2.675408  1.082001
