27
Energy: -606651.788863 eV PBE+vdW (tier 2 basis)
N    0.968577  -1.341512  0.464275
C    0.532903  -0.968192  1.790361
C    1.710268  -1.173414  2.745633
O    2.766937  -1.712194  2.377809
H    -5.116183  2.697661  1.075278
H    0.287548  -1.128190  -0.262336
H    0.292059  0.114400  1.839263
C    -0.691115  -1.788763  2.312172
C    -1.995839  -1.635514  1.515743
C    -2.742377  -0.314009  1.738853
N    -4.048856  -0.369019  1.071328
C    -4.864256  0.673599  0.843199
N    -4.584373  1.880303  1.352432
N    -5.950006  0.510731  0.076164
H    -0.886628  -1.540720  3.368808
H    -0.402078  -2.848710  2.294149
H    -2.653319  -2.460895  1.831095
H    -1.815512  -1.785662  0.440488
H    -2.180776  0.537941  1.325803
H    -2.877598  -0.146043  2.821204
H    -4.426360  -1.292535  0.880304
H    -3.958224  1.988976  2.139883
H    -6.689692  1.203345  0.054052
H    -6.077924  -0.315728  -0.495612
O    1.639257  -0.794044  4.005022
H    0.793105  -0.361223  4.224549
Pb    2.927767  -2.184138  0.093721
