27
Energy: -606651.929164 eV PBE+vdW (tier 2 basis)
N    0.166328  -0.141946  0.239589
C    0.037040  -0.266885  1.751610
C    1.041717  -1.368243  2.134047
O    1.242165  -2.279552  1.291225
H    -0.701075  0.179153  -0.211375
H    0.923400  0.499563  -0.033640
H    0.311398  0.695623  2.198683
C    -1.422784  -0.648539  2.089406
C    -1.865746  -0.576987  3.573213
C    -2.005454  -1.887786  4.379166
N    -0.785659  -2.318334  5.071693
C    0.080853  -3.280426  4.753748
N    1.218486  -3.567988  5.354644
N    -0.078660  -4.040716  3.569651
H    -1.643137  -1.638943  1.658345
H    -2.058701  0.062019  1.538948
H    -2.868136  -0.129123  3.574625
H    -1.236490  0.130733  4.132496
H    -2.386286  -2.710888  3.759377
H    -2.765486  -1.732886  5.156160
H    -0.496329  -1.722842  5.845167
H    1.394007  -3.113973  6.252697
H    -0.123938  -5.043274  3.763428
H    -0.822533  -3.765711  2.931449
O    1.547024  -1.330014  3.300056
H    0.420344  -1.095551  -0.100164
Pb    2.529986  -3.507095  3.364196
