27
Energy: -606650.966783 eV PBE+vdW (tier 2 basis)
N    0.053722  0.729465  0.385666
C    0.087290  0.281875  1.785162
C    1.461824  0.387631  2.433371
O    1.571298  0.290619  3.713261
H    -1.331352  0.087229  -0.355135
H    0.235722  1.731252  0.299357
H    -0.564511  0.937815  2.385113
C    -0.417839  -1.181212  1.890678
C    -1.950187  -1.390146  1.855095
C    -2.817338  -0.525412  0.940490
N    -2.293269  -0.411689  -0.478324
C    -2.055522  -1.683774  -1.224326
N    -0.826739  -1.987516  -1.337901
N    -3.201049  -2.295640  -1.610964
H    -0.059875  -1.622034  2.829607
H    0.051703  -1.742768  1.070646
H    -2.363778  -1.234521  2.862253
H    -2.123151  -2.451157  1.626610
H    -2.875985  0.512607  1.294885
H    -3.839552  -0.920763  0.909871
H    -2.907754  0.209602  -1.021148
H    -0.663025  -2.851635  -1.862339
H    -3.149451  -3.139136  -2.171899
H    -4.109786  -1.849719  -1.563877
O    2.517031  0.566063  1.722896
H    0.767812  0.243562  -0.164668
Pb    3.839990  0.568762  3.620500
