27
Energy: -606650.457929 eV PBE+vdW (tier 2 basis)
N    1.227014  -1.523040  0.943158
C    0.071016  -0.658836  0.712787
C    0.481626  0.793758  0.965870
O    1.256038  1.131244  1.863640
H    1.973063  -1.311711  0.277690
H    0.969234  -2.497443  0.775474
H    -0.309006  -0.704975  -0.326517
C    -1.127571  -1.063469  1.629969
C    -0.823513  -1.673353  3.010412
C    -0.270325  -0.770810  4.125080
N    1.134599  -0.395550  3.923965
C    2.148958  -0.569823  4.711688
N    3.412842  -0.179899  4.482142
N    2.073883  -1.223201  6.015863
H    -1.697887  -1.823563  1.078182
H    -1.810903  -0.207041  1.733901
H    -0.172568  -2.552647  2.911531
H    -1.782689  -2.049894  3.395463
H    -0.384576  -1.278781  5.091267
H    -0.841905  0.169221  4.180320
H    1.309702  0.157875  2.996372
H    3.609144  0.291287  3.595653
H    1.387723  -0.780420  6.637340
H    1.814530  -2.213395  5.939041
O    -0.043883  1.741580  0.204997
H    -0.595814  1.371848  -0.511075
Pb    4.541614  -0.697855  6.324404
