27
Energy: -606652.26338 eV PBE+vdW (tier 2 basis)
N    0.652531  0.430620  -0.316722
C    -0.096518  -0.081210  0.879855
C    0.827566  -0.992985  1.726276
O    2.127068  -0.703267  1.714535
H    0.553342  -0.234158  -1.093924
H    0.233577  1.303855  -0.651522
H    -0.278385  0.802046  1.515337
C    -1.450886  -0.728150  0.508743
C    -2.613427  -0.445626  1.483180
C    -2.756467  -1.327004  2.729782
N    -3.212254  -2.689482  2.411578
C    -2.716609  -3.842271  2.899404
N    -1.451159  -3.927357  3.312608
N    -3.509324  -4.925143  2.941752
H    -1.315465  -1.809899  0.363069
H    -1.752224  -0.319989  -0.466963
H    -3.551145  -0.507679  0.910825
H    -2.563519  0.599469  1.825973
H    -3.502137  -0.868190  3.395984
H    -1.822578  -1.393589  3.294685
H    -4.132339  -2.757595  1.985240
H    -1.138464  -4.728770  3.846829
H    -4.518378  -4.846417  2.904655
H    -3.124402  -5.852248  3.078337
O    0.374953  -1.893011  2.405203
H    -0.761339  -3.218467  3.057977
Pb    3.058914  0.603298  0.296061
