27
Energy: -606651.207487 eV PBE+vdW (tier 2 basis)
N    1.632954  -1.295460  2.045253
C    0.581882  -0.208571  2.149725
C    0.860957  0.515592  3.470756
O    1.550921  0.027078  4.345185
H    2.570849  -0.901728  2.204083
H    1.615568  -1.712325  1.106430
H    0.782983  0.487267  1.324690
C    -0.852796  -0.786287  1.991602
C    -1.755792  -0.913379  3.230451
C    -1.319834  -1.841057  4.372896
N    -1.134329  -3.241487  3.973335
C    0.030354  -3.892481  3.878964
N    0.148240  -5.186952  3.535945
N    1.262371  -3.305151  4.095810
H    -0.773932  -1.759589  1.480215
H    -1.377662  -0.136179  1.280929
H    -2.741615  -1.237966  2.866200
H    -1.929259  0.079366  3.670461
H    -2.089221  -1.821439  5.156349
H    -0.397080  -1.491488  4.848433
H    -1.979937  -3.789042  3.826386
H    -0.671337  -5.729679  3.269311
H    1.501479  -2.069749  2.773667
H    1.274893  -2.559499  4.797260
O    0.252624  1.697063  3.501278
H    0.451371  2.151665  4.347808
Pb    2.247238  -5.442448  4.290410
