27
Energy: -606651.827504 eV PBE+vdW (tier 2 basis)
N    3.373413  0.759667  0.548438
C    2.007778  0.782251  0.076044
C    1.114312  1.237601  1.224239
O    1.552658  1.423352  2.370555
H    1.284863  -5.330631  -1.539142
H    4.046607  0.597160  -0.200545
H    1.881678  1.540853  -0.723237
C    1.513692  -0.574985  -0.528485
C    1.508229  -1.747423  0.458177
C    1.292217  -3.125044  -0.177630
N    -0.085579  -3.312662  -0.658214
C    -0.475870  -4.265192  -1.525556
N    0.400493  -5.157387  -1.999942
N    -1.749200  -4.300614  -1.941659
H    2.185250  -0.794388  -1.372007
H    0.518705  -0.427750  -0.979391
H    0.762441  -1.593093  1.256457
H    2.483253  -1.792274  0.964109
H    1.537537  -3.902486  0.563576
H    1.970724  -3.244158  -1.035301
H    -0.822606  -2.886124  -0.104042
H    0.154321  -5.774949  -2.765358
H    -2.120923  -5.104495  -2.434479
H    -2.386418  -3.532446  -1.771017
O    -0.177138  1.435097  1.030193
H    -0.424646  1.356551  0.089298
Pb    3.900060  1.353074  2.557453
