27
Energy: -606651.549632 eV PBE+vdW (tier 2 basis)
N    0.658953  -1.134352  0.331496
C    -0.178863  -0.039831  0.851161
C    0.737757  0.905870  1.622060
O    1.777462  0.520560  2.181305
H    0.066794  -1.876900  -0.049263
H    1.251882  -0.817873  -0.443013
H    -0.646723  0.538011  0.036159
C    -1.307876  -0.668759  1.738625
C    -1.570526  -0.170725  3.167669
C    -0.464282  -0.316056  4.219754
N    0.253223  -1.642475  4.176191
C    1.262376  -1.726258  5.209775
N    2.450242  -1.417156  4.779892
N    0.890696  -2.098343  6.438139
H    -1.094185  -1.747609  1.777964
H    -2.248858  -0.578522  1.182056
H    -2.463132  -0.713715  3.511760
H    -1.869707  0.888052  3.173691
H    -0.920990  -0.179744  5.211946
H    0.309285  0.453142  4.128618
H    -0.424183  -2.407686  4.264224
H    3.209172  -1.372492  5.462823
H    1.571179  -2.204204  7.185858
H    -0.082822  -2.226425  6.693390
O    0.415056  2.173454  1.745802
H    -0.368224  2.424821  1.216673
Pb    2.294215  -1.784701  2.405035
