27
Energy: -606650.631195 eV PBE+vdW (tier 2 basis)
N    1.318386  0.245441  0.499219
C    0.494959  -0.234248  1.656409
C    1.062766  -1.568050  2.205195
O    2.368542  -1.746085  2.103835
H    0.982440  -0.171566  -0.377097
H    1.208206  1.257745  0.380747
H    0.673889  0.491449  2.467809
C    -1.017720  -0.283267  1.408093
C    -1.535541  -1.365006  0.424303
C    -2.697669  -2.184399  0.987268
N    -2.235231  -3.175689  2.051961
C    -3.241151  -3.321721  3.210196
N    -4.322513  -3.952431  3.123656
N    -2.831869  -2.556557  4.264710
H    -1.350165  0.711299  1.080223
H    -1.478005  -0.417849  2.398170
H    -0.735023  -2.050890  0.100342
H    -1.906738  -0.893114  -0.495125
H    -3.202992  -2.759743  0.204491
H    -3.442941  -1.536710  1.464314
H    -2.105701  -4.104561  1.633558
H    -4.567486  -4.376712  2.228761
H    -3.454419  -2.603932  5.069361
H    -1.845242  -2.537386  4.508026
O    0.337764  -2.384454  2.756284
H    -1.294250  -2.871973  2.408198
Pb    3.670429  -0.498852  0.921727
