27
Energy: -606650.531804 eV PBE+vdW (tier 2 basis)
N    0.531254  -1.441265  -0.433515
C    0.381688  -0.625816  0.778840
C    1.688315  -0.730083  1.569895
O    1.851061  -1.295165  2.655616
H    1.358120  -1.166279  -0.966230
H    -0.270037  -1.307463  -1.052631
H    0.294768  0.456713  0.558160
C    -0.873160  -1.020954  1.588411
C    -1.352482  -2.483826  1.528747
C    -0.341011  -3.585287  1.870380
N    0.321762  -3.349758  3.160512
C    0.288613  -4.056626  4.251423
N    0.935749  -3.810999  5.397391
N    -0.493289  -5.281465  4.387464
H    -1.706262  -0.411130  1.213257
H    -0.733957  -0.696135  2.629865
H    -1.705675  -2.722842  0.516069
H    -2.230225  -2.573598  2.186198
H    0.455682  -3.589399  1.108915
H    -0.824156  -4.570321  1.859909
H    0.932778  -2.464950  3.118388
H    1.535912  -2.984375  5.441928
H    -1.495279  -5.123385  4.231145
H    -0.198028  -6.004764  3.721361
O    2.678538  -0.106565  0.946783
H    3.506731  -0.190076  1.464035
Pb    0.354768  -5.469418  6.778922
