27
Energy: -606651.450173 eV PBE+vdW (tier 2 basis)
N    1.365223  -1.901874  1.015537
C    0.539216  -1.011577  1.858036
C    1.154260  -0.890677  3.246618
O    1.717997  -1.808093  3.870360
H    0.992616  -1.882093  0.062601
H    2.311836  -1.519650  0.929665
H    0.489999  0.002141  1.434914
C    -0.923795  -1.527555  2.075864
C    -1.601443  -2.337785  0.954900
C    -1.215723  -3.832601  0.822375
N    -1.081869  -4.496360  2.130379
C    0.050696  -4.618390  2.820344
N    0.197093  -4.890120  4.101586
N    1.316137  -4.388095  2.178797
H    -1.535392  -0.637328  2.268119
H    -0.968933  -2.113322  3.006380
H    -1.474531  -1.864797  -0.030617
H    -2.681094  -2.284575  1.155315
H    -0.280347  -3.979858  0.273685
H    -1.991287  -4.363907  0.257852
H    -1.948769  -4.666622  2.640056
H    -0.634103  -5.042079  4.675931
H    1.357278  -3.455359  1.616398
H    1.592840  -5.177385  1.585505
O    0.973440  0.304214  3.762937
H    1.317075  0.353792  4.681425
Pb    2.364320  -4.106033  4.387312
