27
Energy: -606652.185777 eV PBE+vdW (tier 2 basis)
N    -0.514295  0.638561  1.513579
C    0.235800  0.160683  2.675771
C    1.737642  0.406940  2.595350
O    2.312683  0.657589  1.472642
H    -0.453233  1.654973  1.429522
H    -0.123808  0.254791  0.649070
H    -0.103324  0.719181  3.563120
C    -0.002830  -1.347184  2.955624
C    -1.400828  -1.709390  3.498939
C    -2.514160  -2.008838  2.489821
N    -2.987683  -0.811259  1.794204
C    -4.194768  -0.679839  1.242597
N    -4.581817  0.520216  0.771821
N    -5.039681  -1.717714  1.151917
H    0.735009  -1.660493  3.706112
H    0.221188  -1.921126  2.041389
H    -1.744672  -0.942736  4.209869
H    -1.284689  -2.629110  4.088915
H    -3.357663  -2.444719  3.044175
H    -2.166654  -2.764133  1.763528
H    -2.259290  -0.090120  1.611733
H    -5.413819  0.620923  0.204169
H    -6.013471  -1.583214  0.908360
H    -4.725352  -2.669666  1.286405
O    2.452037  0.354690  3.667569
H    -4.105641  1.366417  1.053999
Pb    4.367773  0.812967  2.517127
