27
Energy: -606652.102305 eV PBE+vdW (tier 2 basis)
N    0.430476  -0.572245  0.034388
C    -0.593774  0.291974  0.767683
C    0.212152  1.318683  1.578420
O    -0.363696  2.367388  1.968790
H    0.635898  -0.206681  -0.905391
H    0.124600  -1.548719  -0.069630
H    -1.176180  0.824464  0.005808
C    -1.549669  -0.564989  1.620533
C    -0.931594  -1.421676  2.756569
C    -1.294634  -0.972430  4.186345
N    -0.860762  0.388467  4.507046
C    0.383038  0.789186  4.825211
N    0.704442  2.094582  4.979832
N    1.382694  -0.104441  4.936995
H    -2.109174  -1.208621  0.925808
H    -2.302934  0.133544  2.012287
H    0.164827  -1.476487  2.663626
H    -1.285906  -2.456391  2.656992
H    -0.880709  -1.675793  4.923452
H    -2.382247  -1.001753  4.328661
H    -1.523605  1.137306  4.334728
H    -0.099278  2.652388  5.284089
H    1.219919  -1.102082  4.872595
H    2.202827  0.186020  5.458723
O    1.430899  1.039295  1.843164
H    1.311532  -0.528456  0.585839
Pb    1.644279  3.132885  3.147378
