27
Energy: -606650.757623 eV PBE+vdW (tier 2 basis)
N    1.249203  1.046090  2.216157
C    0.239910  -0.028553  1.920454
C    0.908453  -1.164339  1.107941
O    2.201600  -1.373810  1.310942
H    1.215631  1.754163  1.471634
H    0.993429  1.546902  3.073109
H    -0.008767  -0.488804  2.891320
C    -1.039897  0.537784  1.265108
C    -2.396800  -0.063361  1.682632
C    -2.765831  -1.472279  1.200888
N    -2.240197  -2.531720  2.086715
C    -1.963881  -3.826228  1.735928
N    -1.915873  -4.919645  2.367565
N    -1.485586  -3.977813  0.311596
H    -0.930900  0.495788  0.171560
H    -1.096440  1.604856  1.528175
H    -3.163048  0.613939  1.279784
H    -2.515320  -0.006174  2.777042
H    -2.380604  -1.620511  0.185190
H    -3.862622  -1.552119  1.149860
H    -2.599717  -2.473413  3.038206
H    -2.249152  -4.891550  3.334478
H    -1.132695  -4.944834  0.259530
H    -2.241962  -3.873346  -0.377969
O    0.251765  -1.857842  0.349459
H    -0.723128  -3.290285  0.104877
Pb    3.519678  0.041178  2.255684
