27
Energy: -606650.296599 eV PBE+vdW (tier 2 basis)
N    0.349881  -0.315266  0.021465
C    -0.103968  -0.119842  1.376246
C    1.049100  -0.216756  2.372186
O    0.910306  -0.356032  3.587690
H    -0.357153  -0.128909  -0.685838
H    1.232642  0.130808  -0.214716
H    -0.505128  0.906416  1.554863
C    -1.246524  -1.121928  1.674478
C    -2.021265  -0.887052  2.991520
C    -1.815624  -2.023367  3.999493
N    -2.340666  -1.681441  5.363766
C    -1.467193  -1.072884  6.334210
N    -1.933771  -1.264281  7.564665
N    -0.348722  -0.490226  5.970345
H    -0.834443  -2.140147  1.624172
H    -1.945305  -1.048401  0.831834
H    -3.096684  -0.800194  2.776707
H    -1.720797  0.072812  3.436502
H    -0.758672  -2.293589  4.110031
H    -2.347673  -2.926019  3.672192
H    -3.169017  -1.080796  5.262794
H    -1.471038  -0.793448  8.344254
H    0.307819  -0.173791  6.681327
H    -0.026774  -0.395962  4.976631
O    2.241057  -0.086228  1.804893
H    2.938590  -0.106841  2.492594
Pb    -3.200496  -3.126369  7.332064
