27
Energy: -606652.000072 eV PBE+vdW (tier 2 basis)
N    1.057428  -0.913343  0.244752
C    -0.254786  -0.416757  0.840262
C    0.130814  0.374866  2.098769
O    -0.585901  1.335238  2.478287
H    0.917489  -1.708121  -0.394878
H    1.551285  -0.172492  -0.273503
H    -0.734007  0.232134  0.097401
C    -1.141654  -1.640656  1.186449
C    -2.648947  -1.387479  1.399523
C    -3.152919  -0.622204  2.634095
N    -3.146998  -1.330107  3.932180
C    -2.295080  -1.043204  4.945805
N    -0.996755  -0.774878  4.710739
N    -2.748005  -1.039339  6.208098
H    -0.697237  -2.187053  2.034691
H    -1.075095  -2.331851  0.330180
H    -3.136188  -2.372724  1.372349
H    -3.037556  -0.847612  0.522403
H    -4.202947  -0.366024  2.440562
H    -2.625723  0.328757  2.761482
H    -4.018926  -1.787146  4.188007
H    -0.709044  -1.242228  3.850965
H    -2.098472  -1.176754  6.974510
H    -3.738462  -1.050157  6.426083
O    1.115289  -0.083395  2.773814
H    1.669820  -1.204236  1.030009
Pb    0.314876  1.117275  4.753447
