27
Energy: -606652.060885 eV PBE+vdW (tier 2 basis)
N    -0.135584  0.389603  0.414627
C    -0.436281  0.282197  1.853563
C    0.751054  0.665893  2.706214
O    0.721229  0.459674  3.978826
H    -0.072875  -2.426988  -3.730491
H    -0.931775  0.814981  -0.063426
H    -1.190205  1.037447  2.157544
C    -1.023816  -1.091243  2.251056
C    -0.119096  -2.314163  1.980380
C    -0.454699  -3.130492  0.729727
N    -0.202671  -2.367815  -0.494186
C    -0.271047  -2.875208  -1.725275
N    0.084080  -2.118027  -2.779569
N    -0.681745  -4.134674  -1.933574
H    -1.982847  -1.196371  1.722912
H    -1.278146  -1.045019  3.317176
H    -0.207468  -3.006074  2.827697
H    0.943428  -2.023806  1.941957
H    -1.513234  -3.440806  0.778761
H    0.163162  -4.041340  0.722055
H    -0.070020  -1.342347  -0.365192
H    0.592651  -1.253893  -2.650723
H    -0.616609  -4.566902  -2.846987
H    -1.111240  -4.679043  -1.197185
O    1.775687  1.253414  2.194650
H    0.659877  1.013999  0.262717
Pb    2.693396  1.555636  4.296684
