27
Energy: -606650.025507 eV PBE+vdW (tier 2 basis)
N    1.424646  -0.320492  0.708778
C    0.585730  -0.123803  1.968494
C    1.441188  -0.646751  3.133054
O    0.939828  -0.740270  4.291124
H    1.306912  0.447353  0.035069
H    1.181754  -1.199851  0.230576
H    0.497808  0.965543  2.107797
C    -0.808593  -0.747413  1.795697
C    -1.836757  -0.268369  2.831460
C    -3.244972  -0.798787  2.524509
N    -4.182131  -0.327537  3.516492
C    -5.348664  -0.932540  3.920805
N    -5.903052  -0.411117  4.983098
N    -5.779469  -2.018504  3.208010
H    -0.722189  -1.845826  1.816516
H    -1.166709  -0.471981  0.789519
H    -1.861316  0.833541  2.834222
H    -1.541626  -0.587097  3.839209
H    -3.244114  -1.901458  2.536907
H    -3.546344  -0.485822  1.505881
H    -3.988436  0.521929  4.039498
H    -6.771159  -0.882532  5.254038
H    -6.657754  -2.437967  3.490670
H    -5.561732  -2.114947  2.222269
O    2.665513  -0.930511  2.896796
H    2.420414  -0.390554  1.001125
Pb    3.013183  -1.408563  5.252427
