27
Energy: -606652.323416 eV PBE+vdW (tier 2 basis)
N    1.298517  -0.690937  -0.077810
C    0.677743  -0.197522  1.222916
C    0.193074  -1.440751  1.968128
O    0.195788  -1.429903  3.231709
H    1.326023  0.047105  -0.795613
H    2.258955  -1.037910  0.056151
H    1.457361  0.319335  1.795112
C    -0.500310  0.736125  0.882257
C    -1.231892  1.394719  2.068120
C    -2.179334  0.537024  2.921418
N    -3.156572  -0.205919  2.111857
C    -3.747688  -1.372453  2.462930
N    -3.120758  -2.307997  3.199181
N    -5.006469  -1.576036  2.025258
H    -1.217538  0.178118  0.258849
H    -0.097583  1.551076  0.260577
H    -1.805873  2.230820  1.641603
H    -0.509248  1.863117  2.751998
H    -2.715124  1.212307  3.606447
H    -1.637356  -0.175291  3.543532
H    -3.705906  0.366126  1.474261
H    -3.815234  -2.945386  3.596261
H    -5.426385  -2.497828  2.049447
H    -5.602482  -0.812724  1.724143
O    -0.276165  -2.395795  1.271102
H    0.722645  -1.482962  -0.419838
Pb    -1.107161  -3.431139  3.344117
