27
Energy: -606652.475225 eV PBE+vdW (tier 2 basis)
N    0.439898  0.348560  0.622479
C    -0.339746  0.084828  1.905513
C    0.487132  -0.941011  2.691800
O    0.442674  -0.927124  3.957719
H    -0.165217  0.706979  -0.129786
H    1.204635  1.023768  0.762514
H    -0.401597  1.029645  2.458847
C    -1.743661  -0.434394  1.523718
C    -2.745246  -0.634664  2.687501
C    -3.000444  -2.087659  3.108178
N    -1.829476  -2.665501  3.763686
C    -1.379751  -3.930707  3.705722
N    -0.126906  -4.186850  4.131309
N    -2.174304  -4.895282  3.208607
H    -1.631443  -1.367939  0.949763
H    -2.171620  0.310101  0.835028
H    -3.714197  -0.225968  2.373749
H    -2.453669  -0.038260  3.565572
H    -3.247435  -2.696193  2.226490
H    -3.869800  -2.112726  3.783221
H    -1.302390  -2.044091  4.370092
H    0.022465  -5.177194  4.331307
H    -1.812244  -5.826682  3.041690
H    -3.181768  -4.787486  3.174713
O    1.145432  -1.793951  2.021541
H    0.866014  -0.551159  0.328213
Pb    1.793129  -2.943251  4.127697
