27
Energy: -606650.850038 eV PBE+vdW (tier 2 basis)
N    0.387665  0.341923  0.749814
C    -0.775713  -0.005762  1.628775
C    -0.435159  0.275675  3.114379
O    0.407025  1.268942  3.354475
H    1.030079  -0.455682  0.673365
H    0.067380  0.527919  -0.206039
H    -1.560029  0.731188  1.386241
C    -1.370486  -1.401378  1.400240
C    -0.510392  -2.621572  1.823124
C    -1.229513  -3.597867  2.757217
N    -1.252228  -3.109937  4.197832
C    -2.252403  -3.850609  5.055455
N    -1.780146  -4.921022  5.525949
N    -3.477513  -3.253064  5.037075
H    -1.645755  -1.488718  0.340118
H    -2.329239  -1.407948  1.938157
H    0.444500  -2.317762  2.285036
H    -0.228074  -3.201295  0.934670
H    -0.745080  -4.579942  2.779674
H    -2.274815  -3.740844  2.456877
H    -0.346810  -3.329199  4.635527
H    -2.416256  -5.464261  6.115036
H    -4.208017  -3.685497  5.595331
H    -3.557056  -2.243703  4.959833
O    -0.969265  -0.353973  4.014162
H    -1.357732  -2.067744  4.214462
Pb    1.572965  2.257398  1.838413
