27
Energy: -606651.056777 eV PBE+vdW (tier 2 basis)
N    -0.634127  0.523056  0.664812
C    0.242208  0.026842  1.684421
C    1.698148  -0.277663  1.307195
O    2.668433  -0.151638  2.095773
H    -0.345460  1.405623  0.247837
H    -0.833913  -0.150783  -0.073015
H    0.333074  0.809709  2.455286
C    -0.340039  -1.269872  2.315460
C    -1.554229  -1.064988  3.231748
C    -1.290319  -0.310128  4.548948
N    -0.052067  -0.785844  5.199312
C    1.131182  -0.185508  5.236444
N    2.312372  -0.716257  5.501469
N    1.272188  1.207217  4.920234
H    0.453699  -1.816721  2.847413
H    -0.637132  -1.927769  1.485964
H    -1.961515  -2.058423  3.470056
H    -2.351160  -0.528582  2.698280
H    -2.123359  -0.458905  5.247446
H    -1.218562  0.773567  4.393962
H    -0.042657  -1.783037  5.416739
H    2.347631  -1.692678  5.799555
H    1.395257  1.755156  5.779198
H    0.499815  1.616166  4.391818
O    1.867928  -0.714636  0.085771
H    2.810189  -0.917644  -0.101087
Pb    3.655982  0.580550  4.103239
