27
Energy: -606650.633344 eV PBE+vdW (tier 2 basis)
N    -1.364161  -0.924452  -0.585002
C    -1.102482  -0.395640  0.745311
C    0.125023  0.514040  0.700465
O    1.067266  0.501765  1.499944
H    -1.394505  -0.207956  -1.308959
H    -2.227286  -1.465904  -0.618913
H    -1.905491  0.289018  1.103807
C    -0.990760  -1.527048  1.777134
C    0.081367  -2.599952  1.465784
C    1.055058  -2.854090  2.615094
N    1.815496  -1.621788  2.909106
C    2.842728  -1.534569  3.705925
N    3.433622  -2.467678  4.448248
N    3.528611  -0.255090  3.866262
H    -1.979467  -2.000778  1.840859
H    -0.835264  -1.074609  2.768239
H    0.642968  -2.336827  0.557604
H    -0.395618  -3.560425  1.235828
H    1.764208  -3.653402  2.350285
H    0.519564  -3.160317  3.528480
H    1.483142  -0.747235  2.393719
H    3.044941  -3.412006  4.445688
H    2.919539  0.448265  4.301246
H    3.826083  0.135807  2.964471
O    0.053829  1.390033  -0.291648
H    0.835679  1.979538  -0.279767
Pb    5.197235  -1.414392  5.384731
