27
Energy: -606652.022792 eV PBE+vdW (tier 2 basis)
N    0.987939  -1.371019  0.430844
C    0.115287  -0.307422  1.081701
C    1.058809  0.472933  2.005277
O    0.648146  1.583600  2.470495
H    0.502592  -2.268561  0.307491
H    1.340137  -1.071730  -0.488138
H    -0.295965  0.324647  0.287515
C    -1.021802  -0.938244  1.923061
C    -0.664123  -1.351875  3.371107
C    -0.908576  -0.234595  4.412407
N    0.279594  0.043704  5.301533
C    -0.005019  1.107258  6.237450
N    0.416572  2.268047  5.826338
N    -0.634253  0.809825  7.378931
H    -1.420013  -1.802186  1.369635
H    -1.844712  -0.211419  1.937050
H    0.376225  -1.704764  3.433853
H    -1.283066  -2.216939  3.636542
H    -1.768820  -0.502788  5.043223
H    -1.147962  0.716303  3.924477
H    0.554244  -0.812963  5.793070
H    0.190910  3.086375  6.395065
H    -0.816736  1.519749  8.082904
H    -1.003563  -0.116311  7.564927
O    2.122809  -0.104922  2.357445
H    1.810199  -1.478200  1.069893
Pb    2.157711  1.701835  4.276655
