27
Energy: -606652.300235 eV PBE+vdW (tier 2 basis)
N    0.211012  0.371742  0.118140
C    0.061674  0.828137  1.566051
C    1.388039  0.506716  2.258655
O    1.635602  1.047506  3.370451
H    -0.674378  0.027036  -0.276297
H    0.553093  1.129140  -0.488794
H    -0.116569  1.909626  1.556746
C    -1.104032  0.096406  2.264854
C    -0.833516  -1.377089  2.633890
C    -0.241448  -1.543780  4.049784
N    0.432040  -2.826310  4.220519
C    1.653000  -3.026719  4.757078
N    2.594843  -2.065278  4.815164
N    1.909113  -4.258151  5.244177
H    -1.992326  0.185237  1.621212
H    -1.346744  0.681098  3.163569
H    -0.159144  -1.856452  1.907641
H    -1.778943  -1.931919  2.573470
H    -1.048142  -1.458235  4.794292
H    0.478219  -0.758785  4.293269
H    -0.148006  -3.655389  4.125692
H    3.309084  -2.350734  5.489816
H    1.169909  -4.920695  5.450606
H    2.855566  -4.554455  5.449201
O    2.135737  -0.378638  1.723551
H    0.925622  -0.383459  0.107701
Pb    3.599467  -0.309888  3.693563
