27
Energy: -606650.624801 eV PBE+vdW (tier 2 basis)
N    -0.849311  -1.063559  -0.531873
C    -0.349609  -0.810151  0.789644
C    1.087104  -1.276778  1.078538
O    1.801996  -0.751557  1.944276
H    -1.025474  -2.042317  -0.749393
H    -0.341443  -0.611256  -1.287683
H    -0.314339  0.284525  0.926183
C    -1.340353  -1.414307  1.824054
C    -1.050000  -1.278005  3.326303
C    -0.922564  0.142447  3.892276
N    0.437735  0.683237  3.685601
C    0.947389  1.699703  4.324079
N    0.399359  2.513499  5.223381
N    2.345449  2.059844  4.109161
H    -1.445939  -2.486932  1.602282
H    -2.312417  -0.957940  1.589430
H    -0.169040  -1.864707  3.628370
H    -1.895071  -1.744411  3.851297
H    -1.118692  0.125400  4.974949
H    -1.653965  0.824057  3.428585
H    1.042874  0.159831  2.965494
H    -0.591324  2.401339  5.443872
H    2.492742  2.466869  3.177938
H    2.971012  1.248829  4.178918
O    1.495703  -2.286789  0.332355
H    2.408922  -2.540909  0.583050
Pb    2.122516  3.761600  5.983544
