27
Energy: -606652.192367 eV PBE+vdW (tier 2 basis)
N    1.005430  -0.878033  0.895113
C    0.278837  0.380390  1.357197
C    1.086429  0.937403  2.537282
O    1.873572  0.142674  3.143984
H    1.697245  -0.672703  0.161194
H    1.526293  -1.246332  1.716963
H    0.278904  1.090125  0.521520
C    -1.168802  0.083883  1.798980
C    -1.312449  -0.771081  3.082758
C    -2.269420  -0.158586  4.139832
N    -1.834242  -0.405150  5.515138
C    -0.775589  0.204863  6.092978
N    -0.183335  1.265628  5.533235
N    -0.280815  -0.300116  7.244252
H    -1.708513  -0.360441  0.950005
H    -1.628257  1.072994  1.939055
H    -0.333993  -0.900704  3.565056
H    -1.657188  -1.782496  2.833699
H    -3.278403  -0.575015  4.048892
H    -2.388614  0.923999  3.975688
H    -2.387150  -1.043209  6.078795
H    -0.772931  1.688389  4.815198
H    0.178938  0.329160  7.892460
H    -0.659351  -1.151114  7.645424
O    0.850925  2.118753  2.920544
H    0.362918  -1.593384  0.530470
Pb    1.997310  1.799349  5.005592
