27
Energy: -606650.836882 eV PBE+vdW (tier 2 basis)
N    -0.616130  -0.649597  0.829723
C    0.185211  -0.270823  2.059831
C    1.674401  -0.569893  1.831872
O    2.464947  -0.718563  2.722541
H    -1.544271  -0.210666  0.850591
H    -0.122983  -0.337403  -0.017239
H    0.116730  0.825315  2.145055
C    -0.379354  -0.898676  3.335999
C    -0.271638  -2.422720  3.511244
C    -1.242684  -3.300798  2.705741
N    -0.908436  -3.360640  1.278502
C    -0.819842  -4.459929  0.627742
N    -0.510196  -4.622465  -0.687787
N    -1.055342  -5.824448  1.174583
H    -1.424208  -0.569645  3.457036
H    0.172645  -0.425520  4.159178
H    -0.479005  -2.630863  4.570309
H    0.762266  -2.757530  3.342754
H    -2.265771  -2.896718  2.792320
H    -1.264574  -4.299147  3.168642
H    -0.736570  -1.726218  0.804693
H    -0.304965  -3.778980  -1.223113
H    -1.986221  -5.915082  1.595553
H    -0.377645  -6.064083  1.906655
O    1.969910  -0.583477  0.501861
H    2.941839  -0.659501  0.406733
Pb    -0.656591  -6.784838  -1.088721
