27
Energy: -606651.078815 eV PBE+vdW (tier 2 basis)
N    0.221680  0.997329  0.730959
C    0.462711  -0.050806  1.768594
C    1.961291  -0.364491  1.707622
O    2.747845  0.596358  1.693647
H    0.362638  0.634263  -0.218083
H    -0.749827  1.320451  0.802248
H    0.454631  0.491080  2.720107
C    -0.618400  -1.141708  1.920936
C    -1.109029  -1.299474  3.379887
C    -1.856390  -0.110104  4.033729
N    -0.992274  1.062567  4.302990
C    -0.783429  2.115839  3.484796
N    0.359386  2.822817  3.445061
N    -1.735189  2.423988  2.551293
H    -0.279209  -2.122348  1.548009
H    -1.466040  -0.887299  1.267261
H    -0.269119  -1.592297  4.031346
H    -1.806211  -2.149073  3.412356
H    -2.268588  -0.438604  4.995640
H    -2.716115  0.195968  3.424697
H    -0.262433  0.899219  4.993571
H    0.938452  2.675279  4.277011
H    -1.720813  3.396221  2.251840
H    -2.678598  2.077985  2.705812
O    2.440758  -1.580036  1.751230
H    1.745652  -2.268255  1.722245
Pb    1.765399  2.827652  1.497500
