27
Energy: -606650.595463 eV PBE+vdW (tier 2 basis)
N    0.229081  0.684622  0.048518
C    0.583586  0.518180  1.494329
C    2.120171  0.458334  1.678845
O    2.853234  1.113875  0.790671
H    0.166420  -0.229442  -0.414761
H    -0.703099  1.101360  -0.042597
H    0.306978  1.473239  1.973789
C    -0.200068  -0.574259  2.242284
C    -0.062919  -2.061249  1.855603
C    1.270600  -2.795254  2.028199
N    1.895366  -2.632741  3.403606
C    1.004837  -2.904206  4.627222
N    0.784113  -2.033660  5.509699
N    0.447794  -4.143231  4.575346
H    -1.267978  -0.324492  2.156919
H    0.023273  -0.436785  3.308754
H    -0.355708  -2.227043  0.805839
H    -0.828103  -2.596580  2.435463
H    2.043894  -2.453205  1.328713
H    1.117970  -3.865875  1.851252
H    2.741805  -3.217887  3.461901
H    1.228626  -1.123200  5.391357
H    0.926685  -4.914624  4.122881
H    -0.086763  -4.403069  5.401399
O    2.619515  -0.107180  2.638623
H    2.218429  -1.638134  3.449609
Pb    2.066972  2.028354  -0.992211
