27
Energy: -606650.409459 eV PBE+vdW (tier 2 basis)
N    -1.517125  1.014969  1.387308
C    -0.498741  0.084826  1.781167
C    0.300594  -0.579900  0.641792
O    1.396990  -1.122139  0.799241
H    -2.312921  0.618652  0.892268
H    -1.190385  1.865512  0.936740
H    0.260094  0.650412  2.346326
C    -1.134324  -0.985662  2.715379
C    -0.219468  -2.086204  3.272825
C    0.971405  -1.513445  4.048647
N    1.982869  -2.516415  4.460517
C    2.871679  -3.110015  3.682566
N    3.858660  -3.920838  4.048206
N    2.904585  -2.880547  2.266902
H    -1.961226  -1.471457  2.176718
H    -1.597237  -0.420515  3.536206
H    0.131285  -2.731808  2.455101
H    -0.813539  -2.729158  3.936924
H    0.635600  -1.035945  4.976754
H    1.493624  -0.740393  3.469404
H    2.062060  -2.696399  5.460655
H    3.921478  -4.223909  5.021705
H    2.399473  -3.634997  1.785823
H    2.460943  -1.999397  1.909497
O    -0.306127  -0.512902  -0.536727
H    0.251373  -0.939254  -1.220250
Pb    5.302836  -3.730552  2.297545
