27
Energy: -606651.78955 eV PBE+vdW (tier 2 basis)
N    1.172438  0.611213  -0.094749
C    0.600334  0.332224  1.202428
C    1.656384  0.658416  2.260144
O    2.729897  1.209611  1.966992
H    0.591736  0.299154  -0.871006
H    -4.089094  -2.547844  1.531660
H    0.383509  -0.750235  1.316096
C    -0.695023  1.150822  1.516179
C    -1.897454  0.900301  0.592697
C    -2.637509  -0.422162  0.832019
N    -3.833416  -0.484681  -0.018160
C    -4.939368  -1.208038  0.220369
N    -4.947000  -2.147835  1.174217
N    -6.050498  -0.973957  -0.490388
H    -0.429876  2.215024  1.447633
H    -1.004044  0.977562  2.560508
H    -1.584724  0.970808  -0.461789
H    -2.607582  1.724297  0.754306
H    -2.962225  -0.480160  1.881744
H    -1.985928  -1.288076  0.626161
H    -3.814257  0.044343  -0.884724
H    -5.814111  -2.580886  1.471350
H    -6.167560  -0.124320  -1.029662
H    -6.822446  -1.630861  -0.493906
O    1.455941  0.377247  3.531382
H    0.606261  -0.074548  3.690716
Pb    3.136121  1.494793  -0.317664
