27
Energy: -606650.9942 eV PBE+vdW (tier 2 basis)
N    -1.613848  0.329014  1.817736
C    -0.765844  -0.817494  2.294203
C    0.441726  -0.339567  3.032306
O    1.349537  -1.184016  3.372131
H    -2.577996  -0.138181  1.569054
H    -1.751092  1.025896  2.559417
H    -1.448531  -1.305263  3.054382
C    -0.471220  -1.821260  1.163019
C    -1.662205  -2.137756  0.235897
C    -2.982445  -2.526779  0.906610
N    -3.750799  -1.348909  1.434317
C    -4.190720  -1.420410  2.793201
N    -3.265914  -1.546031  3.687519
N    -5.524026  -1.250097  2.979197
H    -0.123605  -2.742181  1.649493
H    0.366984  -1.460550  0.548367
H    -1.347186  -2.978198  -0.398216
H    -1.841218  -1.310994  -0.471116
H    -2.811241  -3.214006  1.744320
H    -3.615077  -3.048195  0.177235
H    -4.508331  -1.091878  0.802099
H    -3.626219  -1.679142  4.634003
H    -5.897140  -1.212966  3.921302
H    -6.192982  -1.471617  2.250247
O    0.560564  0.895894  3.380711
H    -1.226766  0.806868  0.995422
Pb    2.561791  0.416758  4.468648
