27
Energy: -606651.657193 eV PBE+vdW (tier 2 basis)
N    1.406831  0.631462  0.854774
C    1.246934  -0.174422  2.044595
C    2.521076  -1.002746  2.203446
O    3.311202  -1.171699  1.262046
H    0.658356  1.312276  0.730406
H    -5.043255  -0.343971  2.536523
H    1.150495  0.460913  2.947890
C    -0.007103  -1.116121  1.935720
C    -0.513823  -1.817405  3.208813
C    -1.405578  -0.987115  4.142393
N    -2.758629  -0.842940  3.584411
C    -3.729163  -0.066043  4.098859
N    -4.907059  0.028895  3.468345
N    -3.513556  0.639702  5.215428
H    0.216005  -1.868534  1.166445
H    -0.806550  -0.488861  1.514309
H    0.313010  -2.222160  3.810090
H    -1.068030  -2.721838  2.911474
H    -0.988430  0.019865  4.300144
H    -1.457184  -1.491446  5.121030
H    -3.055378  -1.557915  2.926314
H    -5.715392  0.442598  3.918751
H    -4.192360  1.318183  5.542338
H    -2.759597  0.408812  5.850130
O    2.814962  -1.593302  3.347157
H    2.207921  -1.334092  4.064318
Pb    3.006561  0.286803  -0.557841
