27
Energy: -606651.466215 eV PBE+vdW (tier 2 basis)
N    -0.078886  1.005378  1.718887
C    0.502701  -0.014125  2.646208
C    2.007922  0.265202  2.661429
O    2.371304  1.443861  2.793526
H    0.279035  0.872241  0.765744
H    -1.091263  0.875220  1.657209
H    0.241005  0.313393  3.661015
C    -0.079391  -1.420448  2.504141
C    -1.601234  -1.451162  2.800278
C    -2.074010  -0.825468  4.129809
N    -1.967154  0.648038  4.141095
C    -1.278038  1.420648  5.021528
N    -0.722518  2.564996  4.585599
N    -1.134451  0.980354  6.283808
H    0.427455  -2.079308  3.228566
H    0.101943  -1.836039  1.501231
H    -1.918557  -2.503043  2.807688
H    -2.167808  -1.005035  1.965256
H    -1.478540  -1.211848  4.967880
H    -3.116348  -1.120542  4.311005
H    -2.466782  1.163584  3.423164
H    -0.550548  3.214224  5.358712
H    -0.494908  1.439141  6.923870
H    -1.809259  0.343542  6.696720
O    2.910235  -0.681393  2.612791
H    2.531279  -1.572882  2.477071
Pb    0.621998  3.167812  2.742504
