27
Energy: -606650.100608 eV PBE+vdW (tier 2 basis)
N    0.286378  0.168342  0.380926
C    -0.227053  0.054822  1.723005
C    0.896700  0.423350  2.696326
O    1.998822  0.777340  2.342130
H    -0.370642  0.477864  -0.329227
H    1.195034  0.633048  0.332649
H    -1.040147  0.782388  1.910057
C    -0.823689  -1.351592  2.002168
C    0.227580  -2.462688  1.890471
C    -0.396874  -3.849461  2.018072
N    0.641448  -4.898136  1.876475
C    0.438036  -6.197075  2.007319
N    -0.684670  -6.828734  2.280179
N    1.540744  -7.130571  1.850463
H    -1.629015  -1.518792  1.271122
H    -1.285170  -1.343657  2.999037
H    0.989471  -2.336665  2.676513
H    0.733275  -2.371053  0.915662
H    -1.156469  -4.010465  1.236582
H    -0.877546  -3.975712  3.001171
H    1.581980  -4.579113  1.647155
H    -1.536619  -6.279943  2.406762
H    1.950553  -7.099852  0.910001
H    2.297347  -6.963387  2.523320
O    0.500236  0.306131  3.980032
H    1.229924  0.628646  4.547325
Pb    -0.100879  -9.055308  2.345355
