27
Energy: -606651.149285 eV PBE+vdW (tier 2 basis)
N    -1.724715  -0.021114  -0.013672
C    -1.080244  0.084286  1.351234
C    0.093882  1.060859  1.130535
O    0.187958  1.681745  0.089301
H    -1.364990  -0.831333  -0.534703
H    -1.398702  0.835559  -0.524205
H    -1.805209  0.615019  1.986967
C    -0.722551  -1.279026  1.949644
C    -1.877804  -2.293186  1.964782
C    -3.115102  -1.880950  2.800214
N    -4.375947  -2.293808  2.176520
C    -5.011164  -1.627297  1.201972
N    -6.023709  -2.131316  0.481625
N    -4.690205  -0.334548  0.826034
H    -0.345455  -1.097372  2.965528
H    0.122961  -1.711235  1.392567
H    -1.484680  -3.248017  2.336841
H    -2.208984  -2.508673  0.936539
H    -3.153282  -0.797163  2.973183
H    -3.083062  -2.332021  3.798275
H    -4.725220  -3.220721  2.408501
H    -6.282513  -3.113264  0.560669
H    -4.435700  0.262412  1.617094
H    -2.766162  -0.095882  0.053167
O    0.891136  1.130313  2.185165
H    1.603944  1.784566  2.020276
Pb    -6.721265  -0.181386  -0.376249
