27
Energy: -606651.935852 eV PBE+vdW (tier 2 basis)
N    0.376619  -0.478984  -0.014199
C    0.252690  -0.189894  1.441010
C    1.434337  0.678189  1.877298
O    2.050596  1.406471  1.083847
H    0.890798  -1.356860  -0.146143
H    -0.550798  -0.648856  -0.413096
H    0.283000  -1.136860  2.003529
C    -1.066781  0.540566  1.807286
C    -1.211591  1.987432  1.312609
C    -1.692977  2.138544  -0.142793
N    -1.502787  3.487514  -0.646599
C    -0.503620  3.888164  -1.453822
N    0.518247  3.073039  -1.783122
N    -0.570892  5.137051  -1.952467
H    -1.144291  0.531872  2.903598
H    -1.901997  -0.089620  1.462044
H    -0.269295  2.540927  1.439389
H    -1.933956  2.495808  1.965677
H    -2.761357  1.891968  -0.217292
H    -1.177319  1.465583  -0.838040
H    -2.174731  4.190995  -0.355586
H    1.022065  3.481330  -2.574727
H    -1.407656  5.704538  -1.874860
H    0.220185  5.559557  -2.422499
O    1.777558  0.728289  3.141896
H    1.281309  0.108577  3.713002
Pb    1.845596  1.256660  -1.262367
