27
Energy: -606651.645256 eV PBE+vdW (tier 2 basis)
N    -0.267730  0.671860  0.520437
C    -0.014315  -0.074293  1.781301
C    1.315760  -0.810972  1.612807
O    1.655580  -1.274306  0.512006
H    0.281020  1.538841  0.526937
H    -1.246471  0.970279  0.484063
H    0.036239  0.635464  2.620973
C    -1.057524  -1.203177  2.097752
C    -2.476639  -1.042997  1.527998
C    -3.166194  -2.388251  1.214246
N    -2.330832  -3.392403  0.529579
C    -1.422639  -3.186491  -0.442435
N    -1.358237  -2.063253  -1.170133
N    -0.475091  -4.133560  -0.653963
H    -1.102231  -1.300302  3.190001
H    -0.644469  -2.153431  1.734995
H    -2.481912  -0.434776  0.614766
H    -3.126700  -0.511465  2.235386
H    -4.083771  -2.197792  0.637965
H    -3.481893  -2.868181  2.148819
H    -2.471387  -4.353271  0.829803
H    -2.251631  -1.571561  -1.206922
H    -0.137545  -4.268363  -1.601331
H    -0.405926  -4.943342  -0.045934
O    2.081818  -1.055675  2.647916
H    1.780474  -0.624345  3.472234
Pb    0.504320  -0.721998  -1.494836
