27
Energy: -606650.122447 eV PBE+vdW (tier 2 basis)
N    0.455314  -0.749247  -0.115899
C    0.166648  -0.388972  1.249988
C    1.473269  -0.041101  2.030953
O    1.879926  -0.666074  2.986193
H    0.798666  0.010040  -0.700533
H    1.013001  -1.592946  -0.239954
H    -0.426165  0.540322  1.228197
C    -0.614028  -1.505818  1.960128
C    -1.210745  -1.070910  3.306036
C    -1.790211  -2.210375  4.140242
N    -2.995505  -2.807713  3.516122
C    -3.773364  -3.706032  4.096577
N    -3.636581  -4.260952  5.282047
N    -4.964611  -4.191934  3.422763
H    0.058717  -2.363689  2.115065
H    -1.395982  -1.826671  1.253684
H    -1.973033  -0.287645  3.167499
H    -0.422036  -0.628129  3.929429
H    -2.081810  -1.835611  5.133083
H    -1.040890  -3.006705  4.275261
H    -3.231610  -2.503919  2.573180
H    -2.822342  -4.013621  5.846665
H    -4.743439  -4.734725  2.580578
H    -5.602402  -3.436863  3.148585
O    2.081307  1.018633  1.481025
H    2.912789  1.196688  1.967533
Pb    -5.506842  -5.586314  5.531174
