27
Energy: -606651.883547 eV PBE+vdW (tier 2 basis)
N    2.111590  -0.629652  0.188665
C    1.367721  -0.505584  1.436999
C    1.356166  -1.961099  1.896450
O    0.500404  -2.805994  1.426411
H    2.856500  0.050217  0.073409
H    1.526742  -0.683602  -0.641313
H    1.990622  0.036471  2.162107
C    -0.012629  0.157334  1.317771
C    -0.754488  0.326204  2.650271
C    -2.092932  1.064944  2.544183
N    -1.903528  2.491994  2.242202
C    -2.857756  3.323727  1.795741
N    -2.540583  4.583173  1.461509
N    -4.119650  2.900131  1.655507
H    -0.632539  -0.425758  0.618480
H    0.159646  1.135667  0.843423
H    -0.116049  0.837916  3.390146
H    -0.980716  -0.658123  3.086353
H    -2.643190  0.955617  3.492393
H    -2.700039  0.622532  1.740169
H    -1.052470  2.924136  2.589503
H    -3.255442  5.286500  1.317319
H    -4.811033  3.466071  1.177400
H    -4.448891  2.057797  2.109505
O    2.287426  -2.391335  2.679528
H    -1.577578  4.878370  1.358999
Pb    1.690643  -4.549831  2.319986
