27
Energy: -606650.543033 eV PBE+vdW (tier 2 basis)
N    0.037977  0.649919  -0.211628
C    0.230299  0.360047  1.216815
C    1.564883  -0.306332  1.533432
O    1.930744  -0.432024  2.761532
H    -1.555589  0.931099  -0.652910
H    0.654892  1.406484  -0.516638
H    0.268572  1.321545  1.753859
C    -0.947081  -0.431468  1.839797
C    -1.338077  -1.783187  1.199220
C    -2.546796  -1.792221  0.240764
N    -2.260660  -1.532566  -1.183361
C    -2.572676  -0.413939  -1.909793
N    -2.735858  -0.189524  -3.143731
N    -2.562948  0.837523  -1.087714
H    -1.814729  0.245130  1.859715
H    -0.692890  -0.590401  2.895777
H    -1.606209  -2.459718  2.022137
H    -0.483350  -2.263307  0.696399
H    -3.326119  -1.106194  0.606467
H    -3.009970  -2.786115  0.280296
H    -2.222600  -2.369601  -1.758383
H    -2.742312  -1.016008  -3.747087
H    -2.755619  1.597193  -1.755233
H    -3.281713  0.854339  -0.354384
O    2.337622  -0.729945  0.599265
H    0.287629  -0.164058  -0.781272
Pb    3.946504  -1.330859  2.167785
