27
Energy: -606651.901688 eV PBE+vdW (tier 2 basis)
N    1.197671  -0.682782  0.120585
C    -0.217257  -0.151463  0.322130
C    -0.033262  1.243830  0.948276
O    -0.898142  2.131174  0.703208
H    1.626741  -0.322651  -0.743430
H    1.765459  -0.335435  0.919590
H    -0.692391  -0.076169  -0.663294
C    -0.972974  -1.125026  1.254418
C    -2.510806  -1.025192  1.366022
C    -3.166049  0.253563  1.923526
N    -2.447594  0.763577  3.102242
C    -2.107832  2.038340  3.339497
N    -1.104952  2.458424  4.098463
N    -2.728880  3.094095  2.658104
H    -0.500716  -1.081521  2.248848
H    -0.782933  -2.143861  0.879704
H    -2.812724  -1.876326  1.993884
H    -2.968434  -1.212117  0.384154
H    -4.212289  0.030563  2.173525
H    -3.155949  1.032262  1.152482
H    -1.958010  0.074829  3.667416
H    -0.630936  1.742769  4.652806
H    -3.063174  3.815981  3.297800
H    -3.432384  2.860017  1.960900
O    0.951346  1.408943  1.727953
H    1.232726  -1.711124  0.087001
Pb    -0.055577  3.702759  2.373059
