27
Energy: -606651.254208 eV PBE+vdW (tier 2 basis)
N    -0.096210  0.626038  0.372893
C    0.011625  -0.374642  1.479457
C    1.498216  -0.699840  1.608482
O    2.282441  0.259766  1.693365
H    0.164993  0.210525  -0.528330
H    -1.069675  0.929222  0.275828
H    -0.131290  0.206193  2.399855
C    -1.085953  -1.439469  1.522017
C    -2.464147  -0.810436  1.845609
C    -2.613392  -0.097737  3.208205
N    -1.725599  1.068581  3.406645
C    -1.753640  2.264422  2.766807
N    -0.592227  2.921001  2.581359
N    -2.935611  2.719838  2.309984
H    -0.841092  -2.169799  2.311611
H    -1.149648  -1.995421  0.574232
H    -3.213731  -1.613724  1.828663
H    -2.776161  -0.128157  1.037426
H    -2.386007  -0.786791  4.031440
H    -3.664894  0.188880  3.347469
H    -0.978880  0.982496  4.088425
H    -0.740896  3.933663  2.525981
H    -2.979252  3.567558  1.754898
H    -3.808598  2.417013  2.732576
O    1.966769  -1.916990  1.706365
H    1.281591  -2.607146  1.600906
Pb    1.349493  2.476188  1.273856
