27
Energy: -606650.865883 eV PBE+vdW (tier 2 basis)
N    -0.482849  -0.725180  0.353659
C    0.410191  -0.415117  1.539908
C    1.850306  -0.866707  1.255715
O    2.673507  -1.024756  2.113652
H    0.017455  -0.514940  -0.520250
H    -1.338030  -0.157976  0.389201
H    0.457298  0.683129  1.609500
C    -0.154297  -0.971432  2.847875
C    -0.201933  -2.499375  3.016957
C    -1.351552  -3.259136  2.342125
N    -1.213412  -3.346951  0.878100
C    -1.563474  -4.422480  0.272601
N    -2.106992  -5.593630  0.700494
N    -1.365718  -4.547201  -1.187911
H    -1.148176  -0.528715  3.022619
H    0.491409  -0.561848  3.636137
H    -0.303658  -2.693634  4.093799
H    0.759646  -2.951094  2.731810
H    -2.313946  -2.768404  2.566684
H    -1.394286  -4.261495  2.796324
H    -0.760992  -1.771419  0.372131
H    -2.353929  -5.675963  1.686879
H    -1.977222  -3.905904  -1.703964
H    -0.402146  -4.323831  -1.455785
O    2.067698  -1.002684  -0.083859
H    3.022266  -1.176520  -0.218991
Pb    -2.165176  -6.916296  -1.060607
