27
Energy: -606650.665326 eV PBE+vdW (tier 2 basis)
N    -0.059969  1.609147  2.315127
C    0.279444  0.299540  2.888304
C    1.767109  -0.034981  2.823672
O    2.228459  -1.009425  3.525702
H    -1.733933  1.727866  2.273839
H    0.367308  2.373268  2.843600
H    0.031891  0.317974  3.962399
C    -0.529869  -0.848621  2.231888
C    -2.047607  -0.854777  2.505249
C    -2.921499  0.114491  1.702739
N    -2.807283  1.531710  2.203328
C    -3.433977  2.708232  1.442677
N    -3.560183  3.843538  1.973782
N    -3.683401  2.422298  0.134547
H    -0.123717  -1.795168  2.612297
H    -0.340763  -0.843512  1.145731
H    -2.246104  -0.747742  3.584252
H    -2.411256  -1.860438  2.249925
H    -3.975275  -0.183330  1.765326
H    -2.617122  0.118756  0.648593
H    -3.189167  1.583914  3.155307
H    -3.223028  3.960918  2.929817
H    -4.092464  3.202747  -0.375553
H    -4.062784  1.519048  -0.127791
O    2.563386  0.638870  2.075532
H    0.292598  1.692387  1.357205
Pb    4.362789  -0.656428  2.766394
