27
Energy: -606651.833233 eV PBE+vdW (tier 2 basis)
N    0.429799  -0.508084  -0.024104
C    0.285280  0.515067  1.019545
C    1.446501  1.481287  0.996722
O    1.599524  2.325873  1.960841
H    0.608069  -0.071418  -0.931157
H    -0.452030  -1.016996  -0.118228
H    -0.552215  1.212332  0.793723
C    -0.039253  -0.064377  2.428679
C    0.398552  -1.502134  2.758025
C    1.892070  -1.850369  2.727177
N    2.350895  -2.111743  1.358581
C    3.295667  -2.986801  1.017249
N    3.436658  -3.344284  -0.272976
N    4.129355  -3.508634  1.930944
H    -1.129990  -0.033688  2.547664
H    0.355946  0.632493  3.179585
H    -0.143290  -2.231628  2.138132
H    0.050051  -1.686499  3.784030
H    2.041259  -2.759711  3.326895
H    2.490981  -1.047901  3.190702
H    1.781103  -1.647120  0.617415
H    4.219944  -3.906361  -0.581660
H    4.708190  -4.311680  1.716871
H    4.150473  -3.166999  2.882459
O    2.222883  1.563088  -0.028395
H    2.692851  -3.183352  -0.939386
Pb    3.147177  3.515755  0.788236
