27
Energy: -606651.705696 eV PBE+vdW (tier 2 basis)
N    1.002808  -1.616883  -0.008712
C    0.316395  -1.168820  1.181995
C    1.263007  -1.363663  2.367829
O    2.347514  -1.957597  2.251662
H    0.473107  -1.465335  -0.865134
H    -2.787328  0.967643  -1.749641
H    0.115927  -0.077333  1.139841
C    -1.021904  -1.925075  1.459394
C    -2.170779  -1.661188  0.471179
C    -2.913436  -0.332788  0.696949
N    -4.218147  -0.298382  0.023300
C    -4.631663  0.540467  -0.939614
N    -3.757789  1.240212  -1.676781
N    -5.943496  0.682833  -1.168365
H    -1.377763  -1.699086  2.478727
H    -0.789076  -2.998659  1.448591
H    -2.893338  -2.480596  0.600381
H    -1.829048  -1.739184  -0.572460
H    -2.332781  0.540057  0.371598
H    -3.103464  -0.190652  1.772146
H    -4.926980  -0.924010  0.396296
H    -4.069769  2.002068  -2.267739
H    -6.287475  1.097152  -2.027358
H    -6.637030  0.388426  -0.490439
O    0.954383  -0.910640  3.565396
H    0.103595  -0.433618  3.584055
Pb    2.952013  -2.555880  0.075313
