27
Energy: -606649.561876 eV PBE+vdW (tier 2 basis)
N    0.336734  -0.491708  0.230047
C    0.950865  -0.323532  1.579384
C    2.409304  -0.809265  1.513423
O    3.002083  -0.968532  0.430557
H    -0.158604  -1.389980  0.185547
H    -0.375984  0.228406  0.082621
H    1.033989  0.764775  1.754728
C    0.126865  -0.952997  2.724544
C    -1.278364  -0.352156  2.883290
C    -2.017906  -0.920131  4.106862
N    -3.346341  -0.362665  4.198204
C    -4.058619  -0.062310  5.336831
N    -5.130864  0.658211  5.137122
N    -3.570146  -0.508777  6.532530
H    0.665775  -0.794332  3.674448
H    0.074140  -2.044584  2.579977
H    -1.884278  -0.558858  1.985914
H    -1.213009  0.742357  2.984361
H    -1.467957  -0.662167  5.026123
H    -2.046960  -2.024755  4.044635
H    -3.841923  -0.082448  3.356260
H    -5.641051  0.872145  5.999435
H    -4.106069  -0.289586  7.364751
H    -3.025140  -1.362194  6.590473
O    3.097586  -1.016841  2.605211
H    2.577055  -0.896799  3.424217
Pb    2.082818  -0.526031  -1.637041
