27
Energy: -606651.743487 eV PBE+vdW (tier 2 basis)
N    -0.324382  -0.123882  -0.325064
C    0.137082  -0.588672  1.005451
C    1.435764  -0.217709  1.250900
O    2.114922  -0.535083  2.340665
H    -1.141234  0.503161  -0.297027
H    0.484568  0.404707  -0.717676
H    -0.534623  0.359187  7.554193
C    -0.741804  -1.512443  1.778764
C    -1.936996  -0.859844  2.518840
C    -1.595873  -0.231354  3.872114
N    -1.420475  -1.275775  4.894076
C    -1.070434  -1.061008  6.170190
N    -0.887474  0.187251  6.620255
N    -0.872702  -2.100227  6.994320
H    -0.099309  -2.048318  2.491954
H    -1.139389  -2.291794  1.105341
H    -2.738370  -1.602322  2.661420
H    -2.392160  -0.074039  1.898876
H    -2.414214  0.443429  4.171030
H    -0.665934  0.354622  3.799557
H    -1.772375  -2.200876  4.667502
H    -1.238874  0.986064  6.107922
H    -0.805816  -1.973693  7.997211
H    -0.848555  -3.052192  6.650232
O    2.110630  0.503176  0.338507
H    -0.552381  -0.897561  -0.969539
Pb    3.982178  0.416363  1.556048
