27
Energy: -606652.179524 eV PBE+vdW (tier 2 basis)
N    0.052300  1.034664  1.578781
C    0.641532  0.042635  2.476521
C    2.010642  -0.474724  2.062254
O    2.743226  -1.098320  2.921359
H    -2.666362  3.355584  2.111017
H    0.686168  1.825157  1.445822
H    0.802267  0.519893  3.456693
C    -0.290518  -1.190001  2.676405
C    -1.767288  -0.823848  2.869173
C    -2.043444  0.105144  4.063967
N    -3.330237  0.794044  3.969568
C    -3.531603  1.923882  3.273639
N    -2.564099  2.424792  2.496928
N    -4.710307  2.558625  3.374052
H    0.088725  -1.768232  3.529958
H    -0.217521  -1.845421  1.795222
H    -2.335662  -1.756555  2.990840
H    -2.152599  -0.359751  1.951165
H    -1.268615  0.877776  4.166989
H    -2.043797  -0.454851  5.006965
H    -4.139496  0.356778  4.397013
H    -1.716812  1.895255  2.235247
H    -4.960780  3.309475  2.742897
H    -5.377351  2.326263  4.099663
O    2.449542  -0.315656  0.863879
H    -0.106274  0.638200  0.648917
Pb    4.397684  -1.435956  1.384760
