27
Energy: -606651.322618 eV PBE+vdW (tier 2 basis)
N    -0.569483  -0.887094  -0.361659
C    0.382907  -1.050342  0.741625
C    1.347302  0.000419  0.781249
O    1.518783  0.753700  -0.254844
H    -1.255799  -1.639269  -0.417281
H    -1.030779  0.026130  -0.412251
H    -2.829616  -3.231851  4.510765
C    0.087361  -1.995582  1.878003
C    -0.726468  -1.431455  3.075842
C    -2.223699  -1.221218  2.802197
N    -2.953952  -0.688665  3.958013
C    -3.689210  -1.387740  4.839373
N    -3.614740  -2.724022  4.895785
N    -4.520611  -0.738552  5.663962
H    1.042399  -2.373348  2.274309
H    -0.411112  -2.897178  1.486210
H    -0.293317  -0.476521  3.411943
H    -0.606305  -2.128229  3.919649
H    -2.709726  -2.157066  2.490056
H    -2.378076  -0.504750  1.983432
H    -2.905848  0.313981  4.110869
H    -4.294191  -3.260222  5.423501
H    -4.914032  -1.192242  6.480813
H    -4.798803  0.220861  5.493038
O    2.162233  0.230370  1.812614
H    1.974497  -0.346390  2.574514
Pb    1.543685  -1.123990  -1.571114
