27
Energy: -606651.885057 eV PBE+vdW (tier 2 basis)
N    0.469900  0.083682  0.214209
C    0.350520  0.229600  1.656964
C    1.809544  0.273127  2.099478
O    2.383488  1.411612  2.292120
H    0.448347  -0.873353  -0.125554
H    -0.119517  0.699774  -0.334512
H    -0.049571  1.231418  1.867039
C    -0.488106  -0.826926  2.399789
C    -1.985425  -0.685019  2.094974
C    -2.894974  -1.634343  2.888940
N    -2.840256  -3.045273  2.478418
C    -3.720739  -3.667839  1.681325
N    -3.734951  -5.008468  1.627022
N    -4.582299  -2.972208  0.928288
H    -0.324748  -0.711382  3.483843
H    -0.116176  -1.828916  2.131020
H    -2.165912  -0.808653  1.015471
H    -2.308250  0.337604  2.345664
H    -3.940979  -1.305596  2.824868
H    -2.639826  -1.606348  3.957329
H    -2.121777  -3.627310  2.895486
H    -3.311504  -5.571737  2.354458
H    -5.383890  -3.421514  0.501496
H    -4.492962  -1.972616  0.803454
O    2.513205  -0.803759  2.200648
H    -4.250656  -5.500192  0.906765
Pb    4.411773  0.430534  2.564624
