27
Energy: -606651.821049 eV PBE+vdW (tier 2 basis)
N    2.367061  0.083061  0.584792
C    1.513512  -0.101450  1.738251
C    2.167409  -1.132691  2.654982
O    3.222181  -1.713286  2.348887
H    2.072568  0.864787  -0.000262
H    -3.742409  0.285709  -1.752434
H    1.458951  0.830293  2.338362
C    0.038224  -0.489523  1.400785
C    -0.122783  -1.818176  0.652731
C    -1.572400  -2.281035  0.465746
N    -2.324615  -1.417310  -0.456463
C    -3.664539  -1.405879  -0.578203
N    -4.249307  -0.510641  -1.386142
N    -4.419513  -2.260586  0.120934
H    -0.379429  0.346661  0.821433
H    -0.547704  -0.510912  2.335338
H    0.377394  -2.628602  1.205620
H    0.381800  -1.770948  -0.324468
H    -2.092903  -2.276045  1.435158
H    -1.565005  -3.316435  0.088690
H    -1.801896  -0.984400  -1.211984
H    -5.224247  -0.595742  -1.649736
H    -5.427606  -2.158458  0.156115
H    -4.030929  -3.101069  0.530174
O    1.621756  -1.447600  3.813058
H    0.833339  -0.908790  4.015857
Pb    4.272912  -0.922403  0.405952
