27
Energy: -606651.936632 eV PBE+vdW (tier 2 basis)
N    0.799303  -1.045116  0.165834
C    0.232875  -0.226301  1.272832
C    1.299250  -0.049249  2.355141
O    2.228075  -0.857650  2.508671
H    1.216930  -0.426684  -0.538156
H    0.044906  -1.536043  -0.321962
H    -0.046039  0.766539  0.884808
C    -1.029994  -0.859769  1.914799
C    -0.819317  -2.155969  2.711599
C    -0.780109  -3.444164  1.868098
N    -0.273137  -4.578463  2.620329
C    0.977733  -5.068837  2.548183
N    1.945211  -4.453785  1.839114
N    1.229874  -6.223868  3.192533
H    -1.776531  -0.994416  1.115748
H    -1.465896  -0.101371  2.580227
H    -1.642578  -2.245505  3.433369
H    0.093840  -2.096943  3.322324
H    -0.153529  -3.352663  0.972899
H    -1.788357  -3.694158  1.509426
H    -0.913648  -5.033153  3.263806
H    2.728966  -5.101352  1.722536
H    2.176545  -6.559434  3.320859
H    0.488780  -6.802304  3.572594
O    1.206201  0.941212  3.209448
H    0.476543  1.563646  3.017865
Pb    2.798453  -2.511984  0.923619
