27
Energy: -606650.379258 eV PBE+vdW (tier 2 basis)
N    -0.591118  -1.517305  0.319446
C    -0.849628  -0.163002  0.962912
C    0.457964  -0.530909  0.366811
O    0.944391  0.060287  -0.753141
H    -1.752586  -3.126021  1.057886
H    -0.963060  -1.564014  -0.634568
H    -1.419344  0.541127  0.349317
C    -1.101808  -0.100397  2.447761
C    -2.570795  -0.142136  2.901474
C    -3.280052  -1.501649  2.885771
N    -3.939060  -1.860193  1.611704
C    -3.798197  -3.025414  0.957583
N    -2.618797  -3.663263  0.967354
N    -4.836576  -3.539440  0.282721
H    -0.674551  0.851894  2.798704
H    -0.533521  -0.890076  2.964123
H    -3.167137  0.597947  2.345598
H    -2.591047  0.199404  3.945861
H    -4.069242  -1.496716  3.651063
H    -2.594808  -2.315981  3.150999
H    -4.790593  -1.344832  1.403117
H    -2.555680  -4.627005  0.661375
H    -4.706090  -4.259080  -0.419102
H    -5.790847  -3.273058  0.497761
O    1.611531  -0.867386  1.189876
H    1.491265  -1.716342  1.655406
Pb    3.069430  0.066091  -0.532102
