27
Energy: -606651.488902 eV PBE+vdW (tier 2 basis)
N    -0.003214  0.815994  0.799103
C    0.155010  -0.132426  1.934799
C    1.486452  -0.871912  1.751816
O    1.952802  -1.086491  0.622020
H    -0.993374  0.921463  0.545653
H    0.323863  1.746057  1.077678
H    0.160063  0.434878  2.878385
C    -0.934176  -1.247679  1.999675
C    -2.408448  -0.809652  1.827704
C    -3.184037  -1.661401  0.788361
N    -2.395875  -1.956406  -0.422885
C    -1.793161  -1.020312  -1.179519
N    -0.660405  -1.215501  -1.865246
N    -2.317538  0.246009  -1.184335
H    -0.807053  -1.756666  2.963867
H    -0.679295  -1.995918  1.237050
H    -2.485212  0.255362  1.564056
H    -2.941326  -0.890969  2.783526
H    -4.136870  -1.178710  0.527296
H    -3.452174  -2.636486  1.210362
H    -1.984348  -2.883674  -0.465156
H    -0.411153  -2.205128  -1.946920
H    -2.128159  0.771919  -2.034393
H    -3.280658  0.351259  -0.873215
O    2.118289  -1.374323  2.784319
H    1.722537  -1.138321  3.646845
Pb    1.220864  0.088914  -1.316589
