27
Energy: -606650.858439 eV PBE+vdW (tier 2 basis)
N    0.246492  -1.587328  0.405658
C    -0.204157  -0.889699  1.653114
C    0.915250  -0.003434  2.239342
O    2.165660  -0.308416  1.939418
H    -0.200309  -2.507729  0.328973
H    -0.059579  -1.065812  -0.423146
H    -1.025107  -0.207214  1.391881
C    -0.700384  -1.944624  2.671288
C    -1.092021  -1.482972  4.088176
C    -2.182339  -0.401887  4.197690
N    -1.598896  0.939897  4.598331
C    -2.626917  2.052931  4.578235
N    -3.578129  1.865533  5.381830
N    -2.335592  2.976039  3.616333
H    0.079464  -2.716100  2.784508
H    -1.567305  -2.445164  2.211336
H    -0.197152  -1.176918  4.650648
H    -1.454895  -2.379288  4.608046
H    -2.929971  -0.640155  4.959914
H    -2.719568  -0.234167  3.255793
H    -1.266741  0.874901  5.570054
H    -4.287759  2.601352  5.410197
H    -2.936628  3.794304  3.570895
H    -1.371424  3.153495  3.349695
O    0.632523  0.923503  2.986119
H    -0.770124  1.122186  3.981031
Pb    2.745540  -1.691998  0.398815
