27
Energy: -606650.08912 eV PBE+vdW (tier 2 basis)
N    0.067609  -1.396449  -0.273201
C    -0.052721  -0.327045  0.804830
C    1.348406  -0.093525  1.363820
O    1.555486  0.925777  2.090685
H    -0.807581  -1.933905  -0.357945
H    0.286300  -0.998761  -1.196757
H    -0.407852  0.591781  0.319187
C    -1.039425  -0.760513  1.906576
C    -2.480156  -0.943075  1.411520
C    -3.475803  -1.167053  2.582022
N    -4.841119  -1.281740  2.130138
C    -5.432198  -2.397239  1.561974
N    -6.403646  -2.157062  0.735777
N    -4.903986  -3.623382  1.915485
H    -1.003079  0.034331  2.666095
H    -0.666273  -1.675618  2.394971
H    -2.576680  -1.809357  0.733228
H    -2.800707  -0.054180  0.846627
H    -3.419509  -0.318457  3.278239
H    -3.186146  -2.059393  3.152553
H    -5.323514  -0.429746  1.851704
H    -6.850116  -3.004283  0.372403
H    -5.416575  -4.426234  1.564050
H    -4.603385  -3.747825  2.878970
O    2.265088  -0.949721  1.115731
H    0.849380  -2.027687  -0.018083
Pb    3.817301  0.366084  2.428217
