27
Energy: -606650.92993 eV PBE+vdW (tier 2 basis)
N    -0.025280  0.250580  0.097321
C    0.282000  -0.172449  1.454628
C    1.359614  -1.232174  1.174550
O    1.113660  -2.452438  1.010335
H    0.332054  1.167856  -0.153119
H    -1.000970  0.151582  -0.167504
H    0.757510  0.632246  2.036349
C    -0.930516  -0.729151  2.200013
C    -0.615606  -1.279606  3.603248
C    -1.541862  -2.421702  4.062208
N    -1.664205  -3.502350  3.056753
C    -0.706043  -4.321098  2.644493
N    -0.703135  -5.114695  1.586594
N    0.557869  -4.367313  3.311840
H    -1.373627  -1.510400  1.563451
H    -1.674317  0.076144  2.269624
H    -0.686509  -0.482489  4.356047
H    0.436507  -1.609605  3.649763
H    -2.562096  -2.055534  4.225140
H    -1.212644  -2.848164  5.019917
H    -2.503122  -3.481532  2.480702
H    -1.572149  -5.218803  1.059617
H    0.762403  -3.573531  3.921149
H    0.663577  -5.239756  3.839468
O    2.559159  -0.708723  1.047795
H    3.214656  -1.341338  0.689562
Pb    1.497443  -4.778944  0.923273
