27
Energy: -606648.684292 eV PBE+vdW (tier 2 basis)
N    -0.147967  -0.614810  -0.033578
C    0.007796  -0.202895  1.355242
C    1.431553  -0.536463  1.804263
O    1.787422  -1.700572  2.113752
H    0.403014  -0.083849  -0.706474
H    -0.015241  -1.614851  -0.180926
H    -0.101012  0.893972  1.391919
C    -1.041575  -0.837730  2.282559
C    -2.455769  -0.244894  2.160018
C    -3.244079  -0.631459  0.903167
N    -4.601779  -0.116712  0.990996
C    -5.483746  0.026616  -0.045664
N    -6.650692  0.632190  0.046052
N    -5.129710  -0.432845  -1.272755
H    -0.711365  -0.695377  3.322289
H    -1.058230  -1.926384  2.116228
H    -2.408536  0.852752  2.235790
H    -3.019267  -0.589148  3.041221
H    -3.257053  -1.732846  0.794315
H    -2.766236  -0.222713  -0.000654
H    -4.955489  0.147975  1.904949
H    -6.862727  0.949205  0.998566
H    -4.397833  -1.115080  -1.418579
H    -5.820864  -0.311170  -2.006092
O    2.387890  0.383913  1.787855
H    2.053596  1.279312  1.578787
Pb    3.880355  -2.461124  2.739646
