27
Energy: -606651.237873 eV PBE+vdW (tier 2 basis)
N    -0.398542  0.565813  0.821624
C    0.429087  0.521108  1.995785
C    1.775995  1.240745  1.924037
O    2.265269  1.917543  2.864766
H    -0.021973  0.039783  0.033749
H    -0.643575  1.504388  0.512304
H    -0.109194  1.040618  2.804863
C    0.691561  -0.956733  2.406485
C    -0.554691  -1.684129  2.941386
C    -0.788985  -1.601108  4.454040
N    -1.085488  -0.234230  4.938043
C    -0.195820  0.639851  5.387666
N    1.080586  0.454924  5.661522
N    -0.567591  2.017087  5.520564
H    1.519764  -1.017243  3.129110
H    1.052689  -1.472684  1.504961
H    -0.461541  -2.755765  2.714274
H    -1.444970  -1.341058  2.393990
H    0.069493  -1.991545  5.017433
H    -1.647116  -2.222288  4.738384
H    -2.059264  0.059938  4.895299
H    1.429550  -0.502924  5.688382
H    -0.714437  2.286754  6.498673
H    -1.379629  2.306504  4.970540
O    2.414217  1.109062  0.789894
H    3.273496  1.584371  0.798128
Pb    2.033399  2.499787  5.120259
