27
Energy: -606651.803931 eV PBE+vdW (tier 2 basis)
N    1.390996  1.068853  2.789269
C    0.342485  0.140330  3.149110
C    0.932828  -0.902332  4.096308
O    2.138087  -0.912489  4.396645
H    -1.268911  -0.039497  -3.213157
H    1.041547  1.876514  2.273815
H    -0.450779  0.650879  3.733324
C    -0.375225  -0.533492  1.934791
C    0.536571  -1.383674  1.039601
C    -0.192452  -2.224125  -0.016409
N    -0.770679  -1.413980  -1.097731
C    -1.120699  -1.884616  -2.307122
N    -1.475700  -1.028734  -3.275952
N    -1.100894  -3.198302  -2.558063
H    -0.848305  0.286847  1.373288
H    -1.212569  -1.145837  2.310182
H    1.089894  -2.107955  1.657769
H    1.294683  -0.754550  0.552279
H    -0.980769  -2.827284  0.465631
H    0.532591  -2.915138  -0.468845
H    -1.047135  -0.461136  -0.887337
H    -1.924466  -1.351466  -4.125438
H    -1.198038  -3.551171  -3.503442
H    -1.079021  -3.883734  -1.813606
O    0.172475  -1.839405  4.626864
H    -0.771236  -1.731891  4.401190
Pb    3.377415  0.927988  3.630536
