27
Energy: -606650.783865 eV PBE+vdW (tier 2 basis)
N    0.364108  0.968124  1.297071
C    -0.284662  0.012226  2.251064
C    0.707607  -0.456724  3.334498
O    1.992799  -0.470662  3.019860
H    -0.077242  0.907362  0.373835
H    0.222182  1.935982  1.608044
H    -1.090305  0.541693  2.779053
C    -0.869933  -1.210681  1.490548
C    -2.394515  -1.137939  1.250017
C    -3.228947  -2.023872  2.199621
N    -2.817694  -1.956955  3.605160
C    -2.945851  -0.844125  4.364947
N    -3.479915  0.293239  4.198997
N    -2.149010  -0.940214  5.640099
H    -0.622101  -2.128009  2.041369
H    -0.340804  -1.303323  0.529000
H    -2.632576  -1.470454  0.231020
H    -2.731249  -0.091951  1.302220
H    -3.127465  -3.076110  1.908888
H    -4.296429  -1.777404  2.101861
H    -2.463172  -2.810252  4.022512
H    -4.049468  0.383376  3.354706
H    -2.357642  -1.774120  6.205872
H    -2.382084  -0.101112  6.189928
O    0.305434  -0.849211  4.421355
H    -1.127145  -0.923737  5.363452
Pb    2.821861  0.498407  1.290218
