27
Energy: -606650.98153 eV PBE+vdW (tier 2 basis)
N    -0.347519  1.278693  1.187673
C    0.355813  0.188031  1.965814
C    1.134688  -0.585550  0.885024
O    0.914187  -0.395517  -0.296626
H    -0.269084  0.961403  0.189315
H    0.129643  2.183212  1.264105
H    1.058236  0.647645  2.673801
C    -0.654034  -0.719449  2.685434
C    -1.298161  -0.153744  3.962444
C    -1.966674  1.232198  3.866309
N    -2.764860  1.385646  2.652236
C    -4.031209  1.557674  2.644274
N    -4.833272  1.704611  1.553898
N    -4.922087  1.648596  3.836561
H    -0.121584  -1.639750  2.959472
H    -1.423943  -1.024273  1.959280
H    -0.546965  -0.095722  4.763531
H    -2.041914  -0.891329  4.296940
H    -1.191248  2.016182  3.840349
H    -2.533250  1.412129  4.793282
H    -1.357825  1.382243  1.497257
H    -4.377723  1.665404  0.641718
H    -4.898698  0.791902  4.399604
H    -4.650929  2.417626  4.458556
O    1.998935  -1.442433  1.409541
H    2.461434  -1.925834  0.692335
Pb    -6.873455  1.996191  2.321542
