27
Energy: -606651.793625 eV PBE+vdW (tier 2 basis)
N    1.881011  -0.404239  3.842503
C    0.769649  -1.313084  3.672081
C    1.332250  -2.687580  3.310261
O    2.542209  -2.864595  3.089922
H    1.610142  0.487274  4.254830
H    -1.876354  3.368823  1.995285
H    0.223637  -1.451755  4.628796
C    -0.273398  -0.865415  2.598938
C    -1.020310  0.420138  2.983211
C    -2.255673  0.715918  2.116288
N    -1.974434  1.110072  0.728690
C    -2.084924  2.347961  0.217991
N    -2.113467  3.424039  1.013776
N    -2.153404  2.510916  -1.110709
H    -1.013709  -1.672057  2.463135
H    0.253572  -0.746528  1.640116
H    -0.336737  1.282560  2.960164
H    -1.385666  0.334427  4.018969
H    -2.859354  1.507548  2.578804
H    -2.909611  -0.166902  2.072547
H    -1.814793  0.366154  0.057221
H    -2.411803  4.326308  0.661397
H    -2.040337  3.424232  -1.535546
H    -2.409318  1.748010  -1.726422
O    0.545303  -3.739094  3.211285
H    -0.380162  -3.545221  3.453209
Pb    3.929294  -1.043386  3.566826
