27
Energy: -606650.725655 eV PBE+vdW (tier 2 basis)
N    -0.003412  1.364177  1.037722
C    0.186056  0.266685  1.993817
C    1.670713  -0.156823  1.855401
O    2.166468  -1.156581  2.414331
H    -0.463377  2.178591  1.439728
H    -0.514599  1.084716  0.200296
H    0.098053  0.691701  3.007089
C    -0.772855  -0.948320  1.846397
C    -1.406198  -1.515540  3.132038
C    -0.470755  -1.898552  4.295008
N    0.714925  -2.632615  3.845190
C    1.140807  -3.804033  4.191237
N    2.272169  -4.397868  3.772198
N    0.454470  -4.694537  5.130622
H    -0.265719  -1.750494  1.290652
H    -1.609214  -0.635174  1.207901
H    -1.999419  -2.396023  2.845946
H    -2.120804  -0.789315  3.546846
H    -1.030966  -2.462636  5.052006
H    -0.088224  -0.993343  4.792180
H    1.373451  -1.985008  3.160963
H    2.862423  -3.881514  3.114572
H    -0.471968  -4.977017  4.791244
H    0.315351  -4.257165  6.048603
O    2.379299  0.620222  1.102907
H    1.673329  1.305370  0.785169
Pb    2.371911  -6.335193  4.851446
