27
Energy: -606650.437198 eV PBE+vdW (tier 2 basis)
N    -1.145193  2.213545  -0.017700
C    -0.496019  1.529317  1.079411
C    0.972059  1.263840  0.746536
O    1.646443  0.343157  1.218967
H    -0.621656  2.999947  -0.396934
H    -2.100095  2.495808  0.193362
H    -0.434427  2.159505  2.001355
C    -1.264005  0.225670  1.427650
C    -1.486590  -0.094530  2.914682
C    -0.244036  -0.256171  3.805516
N    0.765597  -1.137103  3.200585
C    1.197848  -2.301889  3.596052
N    2.138194  -3.053163  3.020395
N    0.691506  -2.975397  4.786931
H    -0.794768  -0.622297  0.908465
H    -2.257713  0.315979  0.970921
H    -2.088364  -1.013857  2.971505
H    -2.095179  0.694799  3.381552
H    -0.530882  -0.619776  4.799963
H    0.259115  0.711683  3.951432
H    1.184211  -0.677289  2.327467
H    2.589903  -2.693891  2.176681
H    0.853248  -2.428231  5.640034
H    -0.316729  -3.158035  4.733626
O    1.486766  2.157134  -0.083231
H    2.433725  1.960382  -0.240156
Pb    2.304061  -4.894621  4.302031
