27
Energy: -606651.978216 eV PBE+vdW (tier 2 basis)
N    1.884290  -1.558601  0.486055
C    1.106559  -0.482858  1.172481
C    1.714929  -0.210473  2.541452
O    2.344919  -1.057673  3.183897
H    1.280412  -2.045753  -0.182351
H    2.621491  -1.128003  -0.082917
H    1.167050  0.444297  0.584772
C    -0.392515  -0.822782  1.342293
C    -0.814355  -1.912068  2.344135
C    -0.593866  -3.373555  1.933844
N    0.621474  -4.025949  2.556594
C    0.955577  -5.265151  1.879919
N    1.927940  -5.109605  1.029999
N    0.270735  -6.370100  2.187255
H    -0.796662  -1.049739  0.342740
H    -0.880454  0.115379  1.640642
H    -1.896650  -1.784617  2.482026
H    -0.386779  -1.730448  3.342527
H    -0.481228  -3.476094  0.846486
H    -1.474738  -3.969590  2.212761
H    0.432149  -4.186987  3.552067
H    2.198193  -5.920836  0.469655
H    0.495389  -7.265639  1.761777
H    -0.523567  -6.357738  2.818414
O    1.440943  0.995791  2.987575
H    1.804800  1.127633  3.890148
Pb    3.022812  -3.172818  2.044695
