27
Energy: -606651.001763 eV PBE+vdW (tier 2 basis)
N    -1.004532  -0.096703  -0.293712
C    -0.137647  -0.394313  0.881866
C    1.306777  -0.580515  0.425960
O    1.659569  -1.314300  -0.499587
H    -0.744153  0.823257  -0.665600
H    -1.958431  0.030732  0.059923
H    -0.141957  0.456406  1.578389
C    -0.638889  -1.622088  1.681290
C    -0.387480  -3.059864  1.185313
C    -0.987442  -3.482742  -0.158514
N    -0.040862  -3.217899  -1.319156
C    -0.665004  -2.802869  -2.555288
N    -0.501020  -3.710382  -3.511357
N    -1.252292  -1.634228  -2.583867
H    -1.719989  -1.476577  1.836571
H    -0.194944  -1.549509  2.683861
H    -0.830012  -3.718583  1.946102
H    0.687686  -3.299372  1.202053
H    -1.938660  -2.968454  -0.351460
H    -1.212530  -4.558623  -0.146622
H    0.646257  -2.455032  -1.015441
H    -0.875503  -3.532170  -4.445165
H    -1.695115  -1.287011  -3.432596
H    -1.184366  -1.011721  -1.695592
O    2.154859  0.116487  1.164040
H    3.076507  -0.054490  0.873793
Pb    0.895975  -5.153024  -2.495833
