27
Energy: -606652.054622 eV PBE+vdW (tier 2 basis)
N    0.889017  -0.142912  0.391055
C    0.147094  0.080096  1.636315
C    1.017575  0.445275  2.827991
O    0.487087  1.000561  3.864308
H    0.344705  -3.276314  -2.108421
H    1.195013  0.739955  -0.021757
H    -0.529412  0.938551  1.501089
C    -0.706360  -1.171977  1.990828
C    -2.096357  -1.228299  1.329323
C    -2.208531  -0.896167  -0.166827
N    -1.259733  -1.630900  -1.003995
C    -1.533107  -2.434180  -2.034911
N    -0.544033  -3.165831  -2.578156
N    -2.769763  -2.549551  -2.540681
H    -0.866438  -1.226760  3.075997
H    -0.107937  -2.056078  1.723567
H    -2.771071  -0.532752  1.850372
H    -2.500797  -2.235340  1.505677
H    -2.055277  0.178533  -0.346127
H    -3.235382  -1.117279  -0.479517
H    -0.283501  -1.352632  -0.824108
H    -0.645936  -3.595611  -3.489297
H    -2.998855  -3.290637  -3.191846
H    -3.486058  -1.859409  -2.358459
O    2.279489  0.195127  2.830757
H    1.738950  -0.680131  0.579901
Pb    2.493934  1.101169  4.943418
