27
Energy: -606650.503108 eV PBE+vdW (tier 2 basis)
N    0.274974  0.856522  0.613209
C    0.206212  0.173600  1.886574
C    1.612398  -0.125814  2.406267
O    1.898807  -1.048100  3.177537
H    0.933028  1.632553  0.580990
H    -0.635132  1.151800  0.266008
H    -0.226773  0.815234  2.693873
C    -0.661885  -1.107987  1.761988
C    -1.672528  -1.395429  2.884089
C    -1.123482  -1.551538  4.310873
N    0.031084  -2.460091  4.368338
C    0.100806  -3.633810  4.930872
N    -0.818255  -4.349698  5.575060
N    1.372974  -4.352899  4.924273
H    -0.007013  -1.974558  1.591173
H    -1.237252  -1.007934  0.832980
H    -2.225487  -2.306500  2.612680
H    -2.420114  -0.589217  2.931362
H    -1.911316  -1.888831  4.995824
H    -0.757460  -0.588452  4.697403
H    0.876492  -2.031983  3.873969
H    -1.767725  -3.981037  5.642188
H    2.143635  -3.777923  5.283931
H    1.638532  -4.645992  3.976654
O    2.518295  0.739883  1.981082
H    3.393466  0.524899  2.365457
Pb    0.302303  -6.141391  6.373018
