27
Energy: -606652.050678 eV PBE+vdW (tier 2 basis)
N    1.318744  2.954876  2.261704
C    0.156314  2.172163  2.790591
C    0.344476  1.860397  4.289590
O    1.590665  1.658383  4.711019
H    1.436611  2.790549  1.256315
H    1.149043  3.961933  2.360837
H    -0.746541  2.793229  2.721913
C    -0.020431  0.892584  1.935850
C    -0.702974  -0.354868  2.530181
C    -2.106690  -0.260990  3.156135
N    -3.068866  0.583735  2.436961
C    -3.797058  1.569308  2.997955
N    -3.371691  2.198266  4.097823
N    -4.942890  1.949893  2.411313
H    0.983172  0.556380  1.623262
H    -0.535156  1.194726  1.011678
H    -0.060068  -0.803841  3.302226
H    -0.726149  -1.089894  1.712879
H    -2.047287  0.099241  4.185254
H    -2.519614  -1.278285  3.213336
H    -3.411161  0.233502  1.546637
H    -4.015400  2.762424  4.640408
H    -5.426740  1.349003  1.754635
H    -5.424853  2.793404  2.699190
O    -0.622297  1.765716  5.023368
H    -2.436500  2.034548  4.491089
Pb    3.317925  2.328567  3.638594
