27
Energy: -606650.89719 eV PBE+vdW (tier 2 basis)
N    0.332853  -0.106849  0.480672
C    -0.052329  -0.390323  1.900371
C    0.748158  0.480908  2.891459
O    1.922342  0.943821  2.492903
H    0.258133  -0.959058  -0.085645
H    -0.324734  0.559127  0.060173
H    -1.108013  -0.118814  2.034296
C    0.150953  -1.897784  2.196704
C    -0.013324  -2.342917  3.657673
C    -1.415755  -2.124566  4.258364
N    -1.470389  -2.389206  5.698189
C    -0.983063  -1.580305  6.685516
N    -0.574539  -1.767151  7.865266
N    -1.049830  -0.105377  6.343968
H    1.165768  -2.182444  1.871718
H    -0.551044  -2.454500  1.555469
H    0.737614  -1.844677  4.287606
H    0.226582  -3.414852  3.702838
H    -2.149737  -2.788416  3.782960
H    -1.778069  -1.103636  4.073943
H    -1.510664  -3.370069  5.964163
H    -0.494843  -2.743320  8.161151
H    -0.617685  0.359439  7.156417
H    -2.026761  0.212552  6.272827
O    0.318765  0.683617  4.017554
H    -0.542906  0.172728  5.468760
Pb    2.613652  0.902479  0.457466
