27
Energy: -606650.774647 eV PBE+vdW (tier 2 basis)
N    0.245418  -1.685082  0.262474
C    0.054887  -0.750043  1.378327
C    1.344650  0.097941  1.442985
O    1.464738  1.118998  2.151819
H    -0.297607  -1.445625  -0.565810
H    0.046813  -2.653991  0.508227
H    -0.766842  -0.045493  1.168559
C    -0.249217  -1.525546  2.684920
C    -0.217163  -0.811250  4.048104
C    -1.103138  0.435893  4.225360
N    -0.377808  1.637549  3.780917
C    -0.427302  2.832349  4.276227
N    0.323116  3.884820  3.905816
N    -1.338481  3.247214  5.344771
H    0.465423  -2.360627  2.749414
H    -1.242094  -1.978681  2.544964
H    0.812944  -0.558747  4.339153
H    -0.554825  -1.549147  4.788612
H    -1.389327  0.540501  5.280922
H    -2.033870  0.346718  3.641904
H    0.429124  1.420387  2.984201
H    1.032097  3.730654  3.183955
H    -1.139600  2.761746  6.227508
H    -2.320792  3.056146  5.117292
O    2.302571  -0.318515  0.680448
H    1.854812  -1.114845  0.198712
Pb    -0.398160  5.595790  5.122633
