27
Energy: -606652.35301 eV PBE+vdW (tier 2 basis)
N    -0.109735  0.363335  0.758421
C    -0.951947  -0.675894  1.488839
C    -0.054876  -1.290683  2.562911
O    -0.599890  -2.023906  3.435244
H    -0.298547  0.388223  -0.252203
H    -0.261605  1.310649  1.129813
H    -1.785733  -0.149169  1.968905
C    -1.513448  -1.752555  0.542535
C    -0.523247  -2.587016  -0.291507
C    0.429444  -3.556321  0.424209
N    -0.276471  -4.532901  1.264196
C    0.284041  -5.213414  2.291343
N    1.243101  -4.666860  3.063340
N    -0.160405  -6.462991  2.521440
H    -2.222996  -1.261133  -0.140018
H    -2.126671  -2.405465  1.179686
H    0.106738  -1.946945  -0.930745
H    -1.132253  -3.156178  -1.010436
H    1.159732  -3.035275  1.047084
H    1.006119  -4.088887  -0.348954
H    -1.060961  -5.001938  0.817270
H    1.773197  -5.404586  3.533246
H    0.033223  -6.933785  3.397715
H    -0.672809  -6.991884  1.823843
O    1.201474  -1.101826  2.482552
H    0.886861  0.115050  0.931508
Pb    1.469553  -2.753297  4.332890
