27
Energy: -606652.082445 eV PBE+vdW (tier 2 basis)
N    0.022001  -0.247012  -0.013243
C    -0.707115  -0.421794  1.283704
C    -0.474175  0.779172  2.227318
O    0.639103  1.487729  2.051954
H    0.293971  -1.158159  -0.397373
H    -0.595869  0.175431  -0.714494
H    -1.786866  -0.460537  1.088444
C    -0.238836  -1.732443  1.957962
C    -0.821671  -2.052430  3.344314
C    -2.204609  -2.709061  3.409743
N    -3.369701  -1.994097  2.823160
C    -4.142263  -1.114459  3.508665
N    -3.565618  -0.209759  4.300363
N    -5.473686  -1.160786  3.369668
H    0.859037  -1.686733  2.056970
H    -0.451907  -2.562811  1.264544
H    -0.778024  -1.170474  3.995409
H    -0.147616  -2.782615  3.816364
H    -2.427975  -2.925520  4.463830
H    -2.175412  -3.674396  2.888106
H    -3.873002  -2.522257  2.116942
H    -4.131701  0.343983  4.934653
H    -6.060532  -0.388060  3.665813
H    -5.945890  -2.003154  3.060691
O    -1.257719  1.015835  3.127299
H    -2.645570  0.166533  4.041156
Pb    1.944196  1.302860  0.369607
