27
Energy: -606649.566998 eV PBE+vdW (tier 2 basis)
N    0.696634  0.156281  0.433595
C    0.584820  -0.141869  1.894888
C    1.994702  -0.368278  2.456384
O    3.022406  -0.060770  1.819786
H    0.522038  -0.702293  -0.102658
H    -0.046751  0.806024  0.159294
H    0.239507  0.786967  2.383506
C    -0.443461  -1.266968  2.181133
C    -0.879252  -1.441399  3.648253
C    -2.205548  -2.247611  3.764232
N    -2.651169  -2.400208  5.126303
C    -2.167184  -3.290748  6.067347
N    -2.321653  -2.927753  7.306175
N    -1.559836  -4.432449  5.594786
H    -0.064533  -2.218960  1.776479
H    -1.337912  -1.009831  1.592351
H    -1.030469  -0.463504  4.131494
H    -0.136703  -2.007025  4.241421
H    -2.082426  -3.228652  3.285746
H    -2.996493  -1.726499  3.206726
H    -3.126778  -1.616765  5.568748
H    -1.976666  -3.614990  7.983103
H    -1.286714  -5.106785  6.302849
H    -1.932582  -4.869277  4.755989
O    2.156072  -0.844782  3.659634
H    1.304133  -1.089255  4.086231
Pb    3.008510  0.974151  -0.232078
