27
Energy: -606650.424517 eV PBE+vdW (tier 2 basis)
N    -1.994589  -0.186326  -0.226933
C    -1.254218  -0.901587  0.793491
C    -0.324423  0.075769  1.509287
O    0.492019  0.774140  0.910451
H    -2.476510  -0.828151  -0.856115
H    -2.691469  0.448506  0.161995
H    -1.884204  -1.406176  1.558580
C    -0.376899  -1.976759  0.098924
C    0.569177  -2.829643  0.959400
C    1.888792  -2.203724  1.448520
N    2.728336  -1.711314  0.334478
C    3.225325  -0.500935  0.153522
N    3.894826  -0.055995  -0.903901
N    3.058715  0.545726  1.128665
H    0.165383  -1.468456  -0.712452
H    -1.079835  -2.666620  -0.389804
H    0.818122  -3.736605  0.387662
H    0.056163  -3.201902  1.859758
H    2.470462  -2.968317  1.982897
H    1.729031  -1.376812  2.147444
H    2.911118  -2.391694  -0.405394
H    4.043873  -0.671039  -1.705815
H    2.005065  0.776894  1.230706
H    3.434430  0.300990  2.051078
O    -0.323796  0.093003  2.845089
H    -1.051400  -0.452390  3.204583
Pb    4.264149  2.107810  -0.355626
