27
Energy: -606649.882675 eV PBE+vdW (tier 2 basis)
N    -0.143378  -0.065976  -0.114253
C    0.108390  0.000108  1.389275
C    1.626665  -0.106098  1.575201
O    2.105576  -0.254982  2.738001
H    -0.995002  0.444201  -0.384540
H    0.677202  0.326282  -0.611719
H    -0.179185  1.019827  1.691099
C    -0.744846  -1.046738  2.143514
C    -1.443141  -0.553752  3.422121
C    -0.535902  -0.288437  4.641731
N    -1.284219  -0.053295  5.859616
C    -1.837207  -1.060976  6.621654
N    -1.698691  -2.350131  6.426380
N    -2.617846  -0.677926  7.667356
H    -0.129790  -1.933941  2.353959
H    -1.539169  -1.382546  1.458531
H    -2.170120  -1.329811  3.701523
H    -2.037405  0.346667  3.199338
H    0.107582  0.586961  4.480091
H    0.147973  -1.136666  4.797919
H    -1.558230  0.902760  6.058635
H    -1.061777  -2.570300  5.657381
H    -2.962480  -1.418932  8.267693
H    -2.661603  0.272469  8.012143
O    2.373050  -0.012496  0.540799
H    -0.250000  -1.041382  -0.429140
Pb    4.343262  -0.203821  1.919111
