27
Energy: -606650.341606 eV PBE+vdW (tier 2 basis)
N    0.293494  0.788172  0.708637
C    0.281659  0.177715  2.012069
C    1.689181  0.064104  2.600349
O    1.912896  -0.275011  3.766363
H    -0.598394  0.759331  0.220789
H    0.710905  1.713886  0.653793
H    -0.262958  0.784313  2.769911
C    -0.425128  -1.203633  1.892540
C    -0.460857  -2.113322  3.127723
C    -1.080971  -1.430246  4.351468
N    -0.966886  -2.199862  5.614531
C    0.129371  -2.394681  6.327336
N    0.231900  -2.974675  7.518403
N    1.407397  -1.914804  5.886821
H    0.052316  -1.751696  1.068971
H    -1.454661  -0.992680  1.564823
H    0.556540  -2.459437  3.355588
H    -1.041356  -3.012326  2.878280
H    -2.155080  -1.268255  4.203037
H    -0.633749  -0.442466  4.526643
H    -1.840095  -2.527044  6.026072
H    -0.590357  -3.418478  7.931277
H    1.911268  -2.672048  5.408605
H    1.412430  -1.119048  5.198801
O    2.654191  0.392293  1.754539
H    3.520152  0.327470  2.208388
Pb    2.196566  -2.122187  8.290307
