27
Energy: -606651.799574 eV PBE+vdW (tier 2 basis)
N    -0.537276  -0.139050  1.021729
C    0.016302  -0.379694  2.382428
C    1.227976  -1.305612  2.247764
O    1.314345  -2.126463  1.323273
H    -1.521874  0.127704  1.107181
H    -0.072778  0.676309  0.606780
H    0.322505  0.582696  2.822259
C    -0.979010  -1.093194  3.342978
C    -2.431312  -0.562583  3.354431
C    -3.451054  -1.619242  2.889148
N    -3.113630  -2.154373  1.566726
C    -2.545301  -3.350305  1.279565
N    -1.763762  -3.438913  0.192172
N    -2.771145  -4.396820  2.091762
H    -0.549432  -1.018736  4.350208
H    -0.979343  -2.165973  3.102541
H    -2.548013  0.354595  2.753355
H    -2.707010  -0.253262  4.371276
H    -4.461964  -1.193613  2.859853
H    -3.473965  -2.444718  3.609906
H    -3.269980  -1.557423  0.761520
H    -1.687251  -4.396782  -0.159484
H    -2.247107  -5.257677  1.980176
H    -3.601416  -4.443563  2.673719
O    2.166249  -1.305669  3.164313
H    2.058582  -0.610326  3.843224
Pb    -0.088547  -2.063510  -0.603484
