27
Energy: -606650.394628 eV PBE+vdW (tier 2 basis)
N    0.828233  -0.067083  -0.036724
C    1.053375  -0.649154  1.275157
C    2.052691  -1.799114  1.199644
O    2.064710  -2.797092  1.928223
H    0.353470  0.833151  0.023827
H    1.683343  0.053890  -0.576747
H    1.573535  0.047351  1.975169
C    -0.298313  -0.991956  1.943385
C    -1.254558  -1.870980  1.123182
C    -0.985567  -3.377883  1.061681
N    -1.461530  -4.169089  2.234188
C    -0.858456  -4.439723  3.375922
N    -1.269357  -5.289672  4.318206
N    0.405922  -3.869639  3.737891
H    -0.801726  -0.028180  2.106782
H    -0.122825  -1.377688  2.957809
H    -1.217094  -1.515636  0.082116
H    -2.287755  -1.708967  1.461032
H    0.071832  -3.614074  0.903414
H    -1.532848  -3.808694  0.215134
H    -2.346863  -4.653093  2.084692
H    -2.182576  -5.738372  4.225555
H    0.241890  -3.050466  4.336043
H    1.030543  -3.509817  2.949010
O    2.994523  -1.588680  0.290632
H    3.654976  -2.311916  0.318844
Pb    0.669899  -5.746855  5.393332
