27
Energy: -606650.809755 eV PBE+vdW (tier 2 basis)
N    1.582980  -0.993794  1.371856
C    0.442134  -0.456383  2.158783
C    0.789921  -0.459073  3.651225
O    1.317165  -1.418207  4.210228
H    1.321508  -0.944565  0.381912
H    2.379646  -0.354619  1.464036
H    0.237546  0.584270  1.853372
C    -0.863949  -1.251490  1.899159
C    -1.102738  -2.622944  2.562579
C    -0.149196  -3.773497  2.225952
N    1.034474  -3.834800  3.176253
C    2.285481  -4.265688  2.600340
N    2.697293  -5.412373  3.125129
N    2.847262  -3.489569  1.705947
H    -0.958530  -1.354454  0.806382
H    -1.701790  -0.605840  2.197819
H    -2.102581  -2.940226  2.233826
H    -1.189045  -2.519649  3.655971
H    0.224913  -3.692826  1.196324
H    -0.682397  -4.732247  2.289375
H    1.177102  -2.849679  3.586213
H    3.589794  -5.811717  2.828291
H    2.386549  -2.539351  1.520724
H    3.739358  -3.728330  1.277649
O    0.458776  0.595146  4.381560
H    0.094706  1.327290  3.847785
Pb    1.184777  -5.679349  4.778054
