27
Energy: -606650.339066 eV PBE+vdW (tier 2 basis)
N    0.038878  -0.179373  0.015000
C    -0.160481  -0.208079  1.458592
C    1.179417  -0.188559  2.190061
O    1.460187  -0.827604  3.206993
H    -0.807913  0.117869  -0.470246
H    0.789387  0.452634  -0.261402
H    -0.646616  0.715506  1.847630
C    -1.094045  -1.376508  1.851189
C    -0.727087  -2.746204  1.250064
C    0.460835  -3.522253  1.813739
N    0.142993  -4.367323  3.019685
C    -0.260742  -3.787846  4.292398
N    -1.129522  -4.594317  4.892937
N    0.215069  -2.639369  4.699142
H    -2.086694  -1.112460  1.458473
H    -1.217579  -1.395958  2.941232
H    -0.506526  -2.577853  0.185092
H    -1.620925  -3.401655  1.255166
H    1.316035  -2.874612  2.045479
H    0.810590  -4.250695  1.070805
H    0.959851  -4.962612  3.211742
H    -1.441071  -4.371366  5.840431
H    0.770606  -1.977938  4.076036
H    -0.110580  -2.249049  5.582831
O    2.034042  0.662453  1.639614
H    2.858866  0.697141  2.168400
Pb    -1.843617  -5.899469  3.195244
