27
Energy: -606651.057295 eV PBE+vdW (tier 2 basis)
N    -1.231845  -0.046211  -0.055246
C    -0.518119  -0.242877  1.197222
C    0.486478  0.894977  1.325015
O    1.558042  0.911773  0.679766
H    -1.858961  0.755350  -0.083565
H    -0.646850  -0.077144  -0.888801
H    -1.254336  -0.153791  2.013270
C    0.104683  -1.651489  1.248667
C    0.499587  -2.220803  2.628116
C    1.958000  -2.100097  3.089140
N    2.355287  -0.717978  3.420283
C    3.244924  0.071950  2.829846
N    3.540223  1.323970  3.139841
N    3.919440  -0.322690  1.636465
H    0.940840  -1.713169  0.533763
H    -0.682199  -2.294327  0.830975
H    0.298301  -3.301421  2.612486
H    -0.165312  -1.828358  3.414838
H    2.649817  -2.498881  2.336125
H    2.108153  -2.705267  3.993881
H    1.871061  -0.309222  4.218947
H    3.179891  1.699250  4.018852
H    4.915979  -0.493317  1.801427
H    3.507057  -1.105411  1.127175
O    0.216654  1.964524  2.071283
H    -0.652535  1.896618  2.514363
Pb    3.560981  2.163447  0.965813
