27
Energy: -606651.799908 eV PBE+vdW (tier 2 basis)
N    -0.389087  -0.805698  -0.296178
C    -0.167423  -0.434033  1.125251
C    0.862118  0.462419  1.248997
O    1.335434  0.997739  2.374612
H    0.303974  -0.256855  -0.846147
H    -0.234339  -1.810078  -0.477797
H    0.864261  1.250117  4.338766
C    -1.034590  -1.188759  2.085661
C    -0.920145  -0.850722  3.576399
C    -1.531501  0.508751  3.946917
N    -1.448809  0.797509  5.380398
C    -0.369841  1.289015  6.003421
N    0.754183  1.531163  5.315695
N    -0.421010  1.550860  7.317736
H    -0.820575  -2.268314  1.977849
H    -2.092656  -1.080060  1.778567
H    0.129941  -0.905839  3.894228
H    -1.450829  -1.634254  4.134821
H    -2.597293  0.532764  3.685645
H    -1.060373  1.334759  3.396323
H    -2.230599  0.512533  5.960729
H    1.535057  1.985778  5.770520
H    0.403573  1.823608  7.837747
H    -1.289802  1.499948  7.835613
O    1.499093  0.876979  0.134685
H    -1.337592  -0.577524  -0.631130
Pb    2.934540  2.141823  1.228619
