27
Energy: -606650.776688 eV PBE+vdW (tier 2 basis)
N    -1.340510  -0.934777  -0.139462
C    -0.740907  -0.309383  1.059380
C    0.637134  0.259511  0.798253
O    1.131285  0.291286  -0.387482
H    -0.725692  -0.877234  -0.956670
H    -1.483744  -2.502195  0.124785
H    -1.328055  0.582527  1.343724
C    -0.799037  -1.250556  2.290413
C    0.078613  -2.519817  2.297805
C    0.143323  -3.382082  1.033132
N    -1.202066  -3.558723  0.373315
C    -1.132161  -4.271766  -0.937038
N    -0.516405  -3.610631  -1.829780
N    -1.789174  -5.457188  -0.942249
H    -1.860371  -1.519780  2.398486
H    -0.557144  -0.668027  3.188733
H    -0.258893  -3.131414  3.147002
H    1.119569  -2.254720  2.535587
H    0.557984  -4.372241  1.258035
H    0.764184  -2.933329  0.248451
H    -1.889129  -3.975047  1.010977
H    -0.439994  -4.091032  -2.729217
H    -1.801196  -6.009815  -1.792978
H    -2.058213  -5.945262  -0.095935
O    1.309810  0.761415  1.775076
H    -2.218193  -0.479034  -0.391561
Pb    2.939077  1.535686  0.366096
