27
Energy: -606652.266539 eV PBE+vdW (tier 2 basis)
N    1.071120  0.040583  -0.189106
C    -0.029479  0.135401  0.826705
C    0.542653  0.639480  2.180343
O    1.583341  1.471368  2.113055
H    1.502124  -0.890870  -0.141262
H    0.689945  0.114852  -1.137263
H    -0.689072  0.946751  0.474993
C    -0.836525  -1.176183  0.961060
C    -2.360520  -1.027117  1.140225
C    -2.875365  -0.326120  2.406762
N    -2.461708  -0.953026  3.662090
C    -3.210036  -1.714911  4.465885
N    -2.791183  -1.961478  5.716977
N    -4.369936  -2.243811  4.049732
H    -0.408776  -1.776359  1.776698
H    -0.694013  -1.760874  0.040335
H    -2.786022  -2.040471  1.087917
H    -2.779377  -0.484100  0.278354
H    -3.971726  -0.272499  2.376095
H    -2.530821  0.715903  2.451772
H    -1.519476  -0.701098  3.963421
H    -3.214624  -2.686935  6.282732
H    -5.028032  -2.643679  4.707677
H    -4.633083  -2.249760  3.073710
O    0.034415  0.326747  3.237488
H    -2.061281  -1.405309  6.144987
Pb    2.794727  1.751352  0.374353
