27
Energy: -606651.826048 eV PBE+vdW (tier 2 basis)
N    -0.996016  0.867068  -0.255092
C    -0.590733  0.607259  1.173953
C    0.811579  1.231719  1.063164
O    0.871304  2.509745  1.151634
H    -1.081066  -0.005487  -0.780688
H    -1.890284  1.357232  -0.309720
H    -1.207269  1.236463  1.826090
C    -0.649840  -0.859703  1.592971
C    -0.248941  -1.048345  3.065419
C    -0.500108  -2.458299  3.622300
N    0.401454  -3.504650  3.120678
C    1.462033  -4.009475  3.771073
N    1.996514  -5.170516  3.365524
N    2.001692  -3.366961  4.814104
H    0.004880  -1.449587  0.932159
H    -1.682070  -1.214704  1.445241
H    -0.835357  -0.359065  3.692455
H    0.808622  -0.772939  3.206713
H    -1.524480  -2.782436  3.391406
H    -0.431537  -2.449361  4.718146
H    0.144240  -3.969817  2.256641
H    1.478418  -5.817577  2.783200
H    2.651658  -3.834081  5.435647
H    1.759907  -2.410267  5.035548
O    1.702782  0.566235  0.429700
H    2.899988  -5.480380  3.704202
Pb    1.231646  2.290222  -1.121073
