27
Energy: -606650.94378 eV PBE+vdW (tier 2 basis)
N    -0.841700  0.376891  -0.108927
C    -0.778547  0.353201  1.359711
C    0.565387  -0.301642  1.701513
O    0.848602  -0.700251  2.845587
H    -1.401066  -0.386180  -0.491944
H    -1.211785  1.251405  -0.480509
H    -1.575861  -0.246998  1.822171
C    -0.841489  1.800635  1.924368
C    -0.397569  1.986028  3.388670
C    1.108562  2.309867  3.521911
N    1.650854  1.901762  4.833538
C    2.424474  0.862084  5.096736
N    2.772723  0.404908  6.296304
N    2.978488  0.041955  4.055442
H    -1.884481  2.128483  1.825956
H    -0.249425  2.457415  1.266128
H    -0.630950  1.082905  3.967705
H    -0.973940  2.806735  3.834440
H    1.288982  3.387948  3.419323
H    1.703665  1.817529  2.745751
H    1.300601  2.423905  5.638131
H    2.404945  0.851696  7.138051
H    2.159723  -0.404184  3.445084
H    3.576309  0.572086  3.411109
O    1.405293  -0.331949  0.703471
H    0.790593  0.001889  -0.073014
Pb    4.032025  -1.387937  5.747458
