27
Energy: -606651.102257 eV PBE+vdW (tier 2 basis)
N    0.392562  1.073382  0.623798
C    0.419097  0.279613  1.841201
C    1.913729  0.131268  2.121248
O    2.540252  0.699801  3.048102
H    -0.432551  1.662279  0.542865
H    0.499766  0.517310  -0.224057
H    0.032798  0.919522  2.645585
C    -0.329424  -1.072614  1.822039
C    -0.223344  -1.936002  3.093261
C    -1.220285  -1.637406  4.223769
N    -1.217912  -0.240507  4.720425
C    -0.192953  0.368166  5.305974
N    0.954415  -0.146155  5.695293
N    -0.211036  1.791151  5.448038
H    0.054431  -1.654393  0.971808
H    -1.382277  -0.855384  1.585622
H    0.811750  -1.938104  3.472066
H    -0.414205  -2.983924  2.821559
H    -1.058306  -2.319241  5.071699
H    -2.244498  -1.816638  3.876127
H    -2.095472  0.269716  4.657810
H    1.036756  -1.162318  5.726602
H    -0.880735  2.287946  4.857026
H    -0.334726  2.086053  6.421681
O    2.540666  -0.624612  1.254425
H    3.512191  -0.609006  1.393002
Pb    2.444253  1.572309  5.196366
