27
Energy: -606652.366994 eV PBE+vdW (tier 2 basis)
N    0.703852  -0.414469  0.217047
C    -0.220261  -0.293873  1.390518
C    0.368598  0.601842  2.503403
O    1.690280  0.765306  2.527787
H    0.409601  0.220307  -0.532750
H    0.650216  -1.356258  -0.185656
H    -1.138117  0.207011  1.054760
C    -0.554057  -1.705800  1.933043
C    -1.378861  -1.773959  3.228062
C    -2.785320  -1.156892  3.127130
N    -3.490832  -1.142070  4.407565
C    -3.508137  -0.117692  5.278889
N    -2.710838  0.940021  5.112230
N    -4.349519  -0.165239  6.323399
H    0.391233  -2.244877  2.110360
H    -1.079003  -2.249058  1.130698
H    -0.827561  -1.302694  4.052822
H    -1.475448  -2.835619  3.496837
H    -3.406682  -1.724378  2.420946
H    -2.753454  -0.124360  2.755693
H    -3.983284  -1.985734  4.681775
H    -2.845454  1.771093  5.675559
H    -4.275570  0.493535  7.088934
H    -5.114402  -0.827835  6.359788
O    -0.363530  1.089637  3.343088
H    -1.927349  0.948059  4.455600
Pb    3.008664  0.213887  0.938402
