27
Energy: -606651.938034 eV PBE+vdW (tier 2 basis)
N    1.189056  -0.522232  0.514661
C    0.349397  -0.026277  1.633867
C    1.234004  0.745791  2.613409
O    2.463116  0.582774  2.680775
H    0.755728  -1.349056  0.093083
H    1.228892  0.180361  -0.231260
H    -0.406928  0.678050  1.249720
C    -0.411416  -1.189529  2.331860
C    0.404800  -2.444772  2.670150
C    1.359629  -2.322106  3.871262
N    2.229837  -3.479405  4.002043
C    3.408669  -3.646505  3.376190
N    3.885327  -2.749240  2.488829
N    4.113674  -4.755681  3.671099
H    -1.228473  -1.472214  1.652690
H    -0.907145  -0.797400  3.232716
H    0.971373  -2.793495  1.792619
H    -0.311468  -3.252290  2.876568
H    0.786678  -2.236327  4.803775
H    1.996339  -1.431527  3.829086
H    1.901707  -4.243342  4.583534
H    4.836670  -3.024803  2.231274
H    4.969359  -4.985094  3.181300
H    3.845097  -5.380366  4.423084
O    0.686936  1.588044  3.456837
H    -0.273929  1.714626  3.324017
Pb    3.663736  -0.828690  1.215248
