27
Energy: -606651.721449 eV PBE+vdW (tier 2 basis)
N    -0.575713  -1.098079  0.019559
C    -0.283923  -0.546586  1.370080
C    1.237024  -0.464923  1.535054
O    1.986349  -1.291595  0.992791
H    -1.511224  -1.515545  0.019248
H    -0.616177  -0.332898  -0.661603
H    -0.731081  0.456175  1.459341
C    -0.784784  -1.436253  2.543994
C    -2.241638  -1.962548  2.482337
C    -2.404249  -3.489384  2.357163
N    -2.338039  -4.028674  0.986650
C    -1.226836  -4.267181  0.269855
N    0.022302  -4.190548  0.712589
N    -1.361371  -4.487138  -1.087713
H    -0.665683  -0.827699  3.450260
H    -0.090429  -2.276341  2.673762
H    -2.838262  -1.460556  1.704012
H    -2.733232  -1.682356  3.423314
H    -3.395227  -3.771045  2.730913
H    -1.685492  -4.015241  3.003195
H    -3.218068  -4.357118  0.597121
H    0.129005  -4.218832  1.725937
H    -0.798338  -5.249875  -1.460376
H    -2.292114  -4.448613  -1.497298
O    1.775742  0.429043  2.327276
H    1.137111  1.072469  2.693815
Pb    1.230281  -2.776092  -0.699829
