27
Energy: -606650.325406 eV PBE+vdW (tier 2 basis)
N    0.551544  -1.306457  0.570713
C    0.211497  0.048178  0.963253
C    1.321809  0.783770  1.731837
O    1.172595  1.535690  2.704231
H    1.026537  -1.365707  -0.326574
H    1.087175  -1.831405  1.258312
H    0.131096  0.640568  0.034765
C    -1.190913  0.107295  1.618965
C    -1.460215  -0.863952  2.776446
C    -0.803194  -0.595275  4.136833
N    -1.545080  0.327150  5.046356
C    -1.563645  1.645746  5.084855
N    -2.126261  2.412900  6.018208
N    -0.903463  2.455951  4.101968
H    -1.889077  -0.164675  0.816438
H    -1.441422  1.148788  1.871078
H    -1.126578  -1.863062  2.457694
H    -2.545302  -0.964504  2.922334
H    0.222989  -0.221594  4.047665
H    -0.749904  -1.530065  4.706408
H    -2.037832  -0.138166  5.808491
H    -2.671058  1.978596  6.765569
H    -1.569486  2.680104  3.351953
H    -0.059284  2.023844  3.599663
O    2.521364  0.548442  1.218328
H    3.196247  1.068473  1.702146
Pb    -1.044287  4.376580  5.703911
