27
Energy: -606650.556581 eV PBE+vdW (tier 2 basis)
N    0.034746  0.267738  0.637622
C    0.222802  -0.547599  1.834344
C    1.597269  -1.204341  1.727894
O    1.841083  -2.307530  1.212672
H    0.608182  1.109487  0.619732
H    0.138866  -0.242172  -0.238389
H    0.252283  0.139156  2.691923
C    -0.959031  -1.511273  1.998439
C    -1.090441  -2.222258  3.355489
C    -0.347497  -3.554180  3.525735
N    -0.874074  -4.589997  2.608865
C    -0.272807  -5.136136  1.570107
N    -0.786431  -5.987768  0.688611
N    1.097894  -4.832116  1.252283
H    -0.971690  -2.232789  1.163221
H    -1.849358  -0.887229  1.847899
H    -2.156407  -2.398106  3.564458
H    -0.748429  -1.565696  4.170049
H    -0.484341  -3.936388  4.546341
H    0.729483  -3.457562  3.353403
H    -1.850137  -4.850130  2.762753
H    -1.759621  -6.285366  0.779256
H    1.737367  -5.166193  1.983931
H    1.285881  -3.773518  1.163591
O    2.568148  -0.404081  2.152232
H    3.442606  -0.798385  1.952115
Pb    0.933903  -6.284606  -0.751428
