27
Energy: -606651.836222 eV PBE+vdW (tier 2 basis)
N    0.678339  -2.757954  1.798198
C    1.072149  -1.367572  1.791392
C    2.169141  -1.184471  2.839263
O    2.476636  -2.087760  3.633396
H    0.090243  -3.015291  1.007066
H    -1.560959  4.379587  0.952248
H    1.521620  -1.089298  0.815655
C    -0.096006  -0.369297  2.087888
C    -1.220226  -0.444197  1.047046
C    -2.424846  0.461388  1.329710
N    -2.128801  1.882245  1.089762
C    -2.885919  2.907760  1.522537
N    -2.491466  4.167206  1.290193
N    -4.011149  2.682615  2.209610
H    0.304150  0.656852  2.135637
H    -0.495595  -0.601625  3.086821
H    -1.619571  -1.467643  1.010589
H    -0.831310  -0.237669  0.035706
H    -2.733438  0.349332  2.379694
H    -3.263345  0.142342  0.690112
H    -1.492108  2.090316  0.325767
H    -3.119926  4.950517  1.426940
H    -4.504169  3.440821  2.667742
H    -4.471694  1.781420  2.193945
O    2.819020  -0.042220  2.947607
H    2.568777  0.597690  2.255293
Pb    1.508520  -4.179443  3.200524
