27
Energy: -606651.172233 eV PBE+vdW (tier 2 basis)
N    0.465385  -0.866118  0.105167
C    0.920013  -0.144674  1.271980
C    2.347226  -0.534351  1.618323
O    2.950176  -1.473228  1.072670
H    -0.511226  -0.646356  -0.093081
H    0.995628  -0.622068  -0.731909
H    0.968859  0.961327  1.146414
C    -0.026837  -0.385346  2.499238
C    -0.673259  -1.774492  2.660943
C    0.215007  -3.020490  2.609946
N    1.338136  -2.952853  3.564777
C    2.563323  -3.400505  3.307513
N    2.966274  -4.149725  2.299708
N    3.664254  -2.896674  4.057177
H    -0.846416  0.339854  2.404532
H    0.497364  -0.094462  3.422622
H    -1.431608  -1.928181  1.881555
H    -1.236753  -1.757296  3.606654
H    0.646242  -3.123071  1.605300
H    -0.391979  -3.912477  2.819444
H    1.141776  -2.589997  4.496334
H    2.250279  -4.626603  1.750126
H    4.165088  -3.620992  4.579298
H    3.476549  -2.087807  4.651378
O    2.994843  0.146473  2.560308
H    2.488312  0.927401  2.864093
Pb    4.781025  -2.869922  1.636398
