27
Energy: -606652.1317 eV PBE+vdW (tier 2 basis)
N    -0.013280  0.394173  0.703701
C    0.032238  -0.006707  2.107357
C    1.425817  -0.266928  2.660785
O    1.612439  -0.295097  3.936447
H    0.257123  -0.373808  0.085297
H    -2.702277  2.483530  -1.002050
H    -0.372211  0.819278  2.716272
C    -0.820532  -1.278166  2.386513
C    -2.207145  -1.333637  1.719240
C    -3.159953  -0.156756  1.958474
N    -2.860521  0.953251  1.045783
C    -3.722687  1.905470  0.687946
N    -3.421472  2.727224  -0.333615
N    -4.889092  2.060623  1.331387
H    -0.925154  -1.370131  3.476048
H    -0.260982  -2.164833  2.050060
H    -2.696810  -2.236531  2.109472
H    -2.115057  -1.497107  0.636018
H    -3.107841  0.178438  3.008832
H    -4.188227  -0.496728  1.767949
H    -1.901902  0.952449  0.651479
H    -3.977893  3.549761  -0.530325
H    -5.618503  2.658059  0.961685
H    -5.071784  1.603001  2.214757
O    2.423705  -0.478437  1.877233
H    0.632431  1.162297  0.513043
Pb    3.828742  -0.787205  3.678298
