27
Energy: -606652.165652 eV PBE+vdW (tier 2 basis)
N    -1.411777  -0.693645  -0.658561
C    -0.843885  0.184954  0.454452
C    0.500468  -0.434180  0.866403
O    1.522877  0.323600  0.837931
H    -0.864152  -0.627630  -1.529317
H    -2.383670  -0.430689  -0.881048
H    -0.645844  1.162403  0.000746
C    -1.917548  0.277648  1.572744
C    -1.511756  0.411190  3.054548
C    -0.585317  1.567402  3.486695
N    0.835782  1.204859  3.471391
C    1.435877  0.326131  4.299421
N    2.503149  -0.363829  3.854772
N    0.946003  0.153125  5.540342
H    -2.531857  -0.636160  1.526670
H    -2.581565  1.111169  1.300011
H    -1.084207  -0.537872  3.408574
H    -2.462068  0.520339  3.595434
H    -0.871362  1.906799  4.490435
H    -0.694448  2.451597  2.846157
H    1.353806  1.410326  2.623140
H    3.070866  -0.737965  4.617986
H    1.328308  -0.559445  6.150503
H    0.356504  0.853307  5.976656
O    0.531682  -1.640365  1.235854
H    -1.405733  -1.681072  -0.351919
Pb    2.955725  -1.335344  1.828876
