27
Energy: -606651.791394 eV PBE+vdW (tier 2 basis)
N    1.591407  -1.108216  2.657923
C    0.389095  -0.528009  1.989676
C    0.139906  0.882277  2.505457
O    0.801085  1.429539  3.404073
H    2.251974  -1.427089  1.944146
H    1.343919  -1.942444  3.208062
H    0.657228  -0.381308  0.931526
C    -0.887539  -1.435946  1.978083
C    -1.984953  -1.330565  3.057069
C    -1.753306  -1.907937  4.460921
N    -0.784204  -1.119880  5.234983
C    0.492594  -1.411286  5.505827
N    1.379293  -0.510598  5.973692
N    0.991380  -2.647564  5.196093
H    -0.533824  -2.474353  1.882987
H    -1.385950  -1.221086  1.023677
H    -2.850390  -1.875452  2.651181
H    -2.336987  -0.291364  3.148631
H    -1.429182  -2.954859  4.410910
H    -2.703018  -1.911269  5.011777
H    -1.070565  -0.169339  5.455669
H    0.922872  0.273161  6.450631
H    1.816995  -2.903558  5.733480
H    0.340277  -3.418661  5.074811
O    -0.844166  1.487724  1.882005
H    -0.943023  2.415398  2.189645
Pb    2.761135  0.393946  4.331747
