27
Energy: -606651.962094 eV PBE+vdW (tier 2 basis)
N    0.591662  -0.511097  -0.323329
C    0.272210  -0.144344  1.055642
C    1.481217  0.131233  1.937525
O    1.334616  0.776113  3.044423
H    1.212014  0.175856  -0.756192
H    -1.010564  -0.461333  -1.369743
H    -0.311605  0.789175  1.043583
C    -0.569915  -1.249495  1.752557
C    -1.774304  -1.766741  0.955105
C    -3.015621  -0.879715  0.856042
N    -2.922263  0.419617  0.129715
C    -2.791340  0.551938  -1.213365
N    -1.881361  -0.173284  -1.865365
N    -3.558574  1.439855  -1.862191
H    -0.891127  -0.872013  2.733487
H    0.091092  -2.108702  1.948698
H    -2.124686  -2.674222  1.470390
H    -1.466248  -2.117198  -0.038014
H    -3.347959  -0.604403  1.865018
H    -3.824627  -1.472443  0.403534
H    -3.475494  1.156042  0.558862
H    -1.888558  -0.196667  -2.879359
H    -3.330623  1.748655  -2.800951
H    -4.436132  1.764455  -1.472047
O    2.651707  -0.290472  1.609512
H    1.084219  -1.407167  -0.361579
Pb    3.554140  0.555100  3.552663
