27
Energy: -606650.554462 eV PBE+vdW (tier 2 basis)
N    -0.385981  -0.055256  -0.133260
C    -0.086589  -0.051171  1.272260
C    1.419083  0.031514  1.530756
O    1.882425  0.407820  2.619110
H    -1.313599  -0.396055  -0.370777
H    -0.167896  0.798442  -0.640312
H    -0.498641  0.832502  1.809577
C    -0.692630  -1.334266  1.906434
C    -0.422954  -1.660209  3.382986
C    -0.863365  -0.630285  4.431781
N    0.139250  0.445757  4.574697
C    0.233710  1.256589  5.590372
N    -0.537794  1.384191  6.668482
N    1.352041  2.192413  5.663720
H    -0.355144  -2.187289  1.300885
H    -1.780479  -1.257007  1.753690
H    0.633650  -1.916083  3.553577
H    -0.977618  -2.582668  3.603778
H    -0.972561  -1.125239  5.408687
H    -1.836132  -0.183096  4.171127
H    0.868824  0.507936  3.778449
H    -1.383496  0.815720  6.733542
H    1.261391  2.944592  4.970487
H    2.253639  1.734753  5.485585
O    2.182583  -0.329653  0.520899
H    3.125855  -0.260743  0.780831
Pb    0.585731  2.818454  8.001647
