27
Energy: -606651.027435 eV PBE+vdW (tier 2 basis)
N    0.910935  0.037415  0.501036
C    0.747528  0.263716  -0.982824
C    1.482227  1.591397  -1.240951
O    1.835349  2.299169  -0.315470
H    1.642526  -0.652116  0.700697
H    1.239684  0.967428  0.859284
H    1.249213  -0.551407  -1.520032
C    -0.728022  0.346524  -1.398993
C    -1.568476  -0.913195  -1.099091
C    -2.431523  -0.849964  0.164695
N    -1.638319  -0.754007  1.399941
C    -2.157030  -0.990375  2.546448
N    -1.555148  -0.927146  3.765844
N    -3.570045  -1.385112  2.794140
H    -0.722103  0.532634  -2.480544
H    -1.187206  1.239302  -0.944847
H    -0.934161  -1.812911  -1.072973
H    -2.261114  -1.071286  -1.936512
H    -3.081254  -1.740383  0.176808
H    -3.094632  0.030415  0.096802
H    -0.006246  -0.264850  0.965751
H    -0.568073  -0.671832  3.785059
H    -3.792156  -2.287536  2.358677
H    -4.230937  -0.705173  2.402121
O    1.632646  1.836061  -2.534971
H    2.086701  2.696734  -2.657213
Pb    -3.121885  -1.385616  5.245828
