27
Energy: -606651.375369 eV PBE+vdW (tier 2 basis)
N    1.209447  0.539055  0.573116
C    0.682735  -0.194057  1.759140
C    1.603986  -1.385666  2.048808
O    2.395510  -1.825027  1.211523
H    0.429682  0.881386  0.007222
H    1.702476  1.379021  0.891829
H    0.733089  0.481135  2.628196
C    -0.804643  -0.653216  1.639675
C    -1.142222  -1.970215  0.898183
C    -1.701651  -1.866319  -0.534600
N    -0.908801  -1.036029  -1.457622
C    0.332399  -1.278604  -1.899556
N    1.135038  -0.472623  -2.560090
N    1.001692  -2.460279  -1.499172
H    -1.378099  0.194694  1.233774
H    -1.170388  -0.749875  2.670975
H    -1.924547  -2.488670  1.469737
H    -0.286274  -2.661666  0.941482
H    -2.698235  -1.410128  -0.510944
H    -1.841275  -2.871498  -0.959395
H    -1.332663  -0.167970  -1.773918
H    0.721450  0.372990  -2.957723
H    1.360995  -2.977150  -2.305336
H    0.516985  -3.086261  -0.858170
O    1.521554  -1.997599  3.212104
H    0.915369  -1.567245  3.846625
Pb    2.924586  -0.745361  -0.932835
