27
Energy: -606652.134821 eV PBE+vdW (tier 2 basis)
N    0.574317  0.021458  0.050361
C    0.244195  0.108696  1.473775
C    1.432046  0.442910  2.369040
O    1.230084  0.892662  3.560519
H    1.304242  -0.677605  -0.108957
H    -3.100462  0.450019  -3.534516
H    -0.471666  0.934325  1.617433
C    -0.414371  -1.190659  2.011934
C    -1.859708  -1.472097  1.559347
C    -2.067575  -2.027073  0.144052
N    -1.931326  -1.020909  -0.909747
C    -2.820967  -0.712592  -1.853583
N    -2.427498  0.034273  -2.902601
N    -4.102173  -1.106342  -1.791724
H    -0.425699  -1.123063  3.108226
H    0.235838  -2.045000  1.760178
H    -2.485818  -0.578643  1.705989
H    -2.253918  -2.232705  2.248812
H    -3.058197  -2.491318  0.080760
H    -1.346709  -2.835919  -0.056527
H    -1.025359  -0.514716  -0.878345
H    -1.449696  0.106196  -3.151217
H    -4.706711  -1.046169  -2.601767
H    -4.505651  -1.479272  -0.943142
O    2.640218  0.272515  1.961858
H    0.946177  0.908363  -0.294809
Pb    3.469461  1.006385  3.987177
