27
Energy: -606650.797682 eV PBE+vdW (tier 2 basis)
N    0.655499  -0.882142  -0.094233
C    0.475732  -0.383160  1.275844
C    1.663385  -0.830332  2.117696
O    2.242393  -1.912768  1.969750
H    -0.172283  -0.647710  -0.645006
H    1.437644  -0.405863  -0.548056
H    0.434738  0.716858  1.340451
C    -0.846786  -0.920006  1.882138
C    -0.962063  -2.412454  2.242674
C    -0.782716  -3.451704  1.128600
N    0.642620  -3.677897  0.818742
C    1.124289  -4.686536  0.161894
N    0.510900  -5.725746  -0.415938
N    2.568545  -4.795371  -0.030680
H    -1.644597  -0.649169  1.172539
H    -1.057153  -0.344716  2.793858
H    -1.977732  -2.561700  2.635352
H    -0.294967  -2.670624  3.079814
H    -1.296593  -3.143752  0.205215
H    -1.213103  -4.410620  1.455492
H    1.327256  -2.925801  1.167146
H    -0.508903  -5.769338  -0.386388
H    2.925797  -4.024332  -0.608596
H    3.079123  -4.750747  0.859591
O    1.994742  0.045264  3.051467
H    2.731236  -0.306031  3.595033
Pb    2.177813  -7.001755  -1.188273
