27
Energy: -606651.864908 eV PBE+vdW (tier 2 basis)
N    0.464230  1.007183  0.173727
C    1.001943  0.109751  1.190109
C    1.623586  -0.965154  0.302847
O    0.900830  -1.900880  -0.216684
H    -0.519813  0.857511  -0.034602
H    0.661585  1.989811  0.335865
H    1.838761  0.614952  1.691934
C    -0.011585  -0.403917  2.224526
C    0.596921  -1.249909  3.350496
C    -0.435830  -1.798582  4.347588
N    -1.133609  -0.778088  5.143495
C    -0.842235  -0.415882  6.401597
N    -1.732255  0.293805  7.110529
N    0.327296  -0.749092  6.962558
H    -0.793104  -0.979668  1.702790
H    -0.496110  0.492851  2.640893
H    1.363548  -0.665721  3.885016
H    1.115130  -2.126845  2.931235
H    0.033043  -2.509098  5.041617
H    -1.212395  -2.364947  3.815239
H    -1.964003  -0.359547  4.737926
H    -2.706273  0.346893  6.837599
H    0.469940  -0.664626  7.962063
H    1.097722  -1.107171  6.414373
O    2.865283  -0.879134  -0.036996
H    -1.471870  0.751281  7.976315
Pb    2.607237  -2.472549  -1.633781
