27
Energy: -606652.179182 eV PBE+vdW (tier 2 basis)
N    0.539297  0.370858  1.903550
C    0.324019  -1.074573  1.862525
C    1.114033  -1.877162  2.885084
O    1.240013  -3.152018  2.735471
H    -0.375107  1.456628  0.391310
H    0.244042  0.759272  2.802973
H    0.667711  -1.444742  0.883153
C    -1.180260  -1.445599  2.028313
C    -2.130607  -0.547196  1.227342
C    -1.868739  -0.532699  -0.288566
N    -2.451364  0.628874  -0.959915
C    -1.865161  1.834428  -1.026049
N    -0.737869  2.079605  -0.348326
N    -2.412081  2.792047  -1.791655
H    -1.457250  -1.367566  3.090666
H    -1.303079  -2.500801  1.748702
H    -2.078341  0.479195  1.615127
H    -3.159013  -0.884251  1.418595
H    -2.283880  -1.426958  -0.768975
H    -0.793590  -0.533775  -0.516480
H    -3.388569  0.542518  -1.338061
H    -0.219098  2.929345  -0.534181
H    -3.134746  2.580916  -2.468872
H    -2.100811  3.753769  -1.736479
O    1.649455  -1.311176  3.908332
H    1.532724  0.592151  1.811467
Pb    2.452416  -3.338510  4.661019
