27
Energy: -606650.940704 eV PBE+vdW (tier 2 basis)
N    -0.413034  -1.286864  -0.377552
C    -0.577306  -0.866606  1.074474
C    0.715175  -1.180260  1.860416
O    0.741334  -1.273554  3.054850
H    -0.506101  -2.307721  -0.466693
H    0.539371  -1.049514  -0.693565
H    -0.640757  0.231898  1.053131
C    -1.827606  -1.484643  1.726360
C    -3.013643  -0.553607  2.015989
C    -3.842487  -0.042622  0.829695
N    -3.271518  1.125140  0.134365
C    -2.734477  1.170247  -1.089214
N    -2.284723  2.293372  -1.676872
N    -2.534852  0.061101  -1.890307
H    -1.496770  -1.895413  2.689581
H    -2.163422  -2.352327  1.134129
H    -2.683681  0.296431  2.633096
H    -3.707649  -1.117945  2.655073
H    -4.833355  0.265728  1.188333
H    -4.020912  -0.842270  0.098372
H    -3.398020  2.019179  0.605260
H    -2.297970  3.180658  -1.176484
H    -1.134791  -0.824630  -1.006218
H    -3.243611  -0.668992  -1.787322
O    1.776893  -1.267383  1.019988
H    2.589967  -1.416757  1.546909
Pb    -2.255439  1.474041  -3.769451
