27
Energy: -606650.697926 eV PBE+vdW (tier 2 basis)
N    0.817597  -1.247200  0.086404
C    0.024799  -0.455511  1.084182
C    0.920890  0.341991  2.073010
O    2.233564  0.278691  1.921150
H    0.524795  -1.028565  -0.870334
H    0.624034  -2.247333  0.208439
H    -0.499063  0.326256  0.514386
C    -0.995662  -1.326686  1.856298
C    -2.443085  -1.330985  1.344218
C    -3.167423  0.040095  1.323700
N    -2.743786  0.978228  2.367156
C    -2.824103  0.719913  3.695041
N    -3.408789  -0.133701  4.419144
N    -1.926377  1.650140  4.489159
H    -0.985868  -1.006407  2.904509
H    -0.629540  -2.365991  1.878408
H    -2.995635  -2.033889  1.982279
H    -2.510782  -1.750819  0.329599
H    -4.253465  -0.121099  1.378114
H    -2.995031  0.563212  0.375463
H    -2.214315  1.786572  2.064003
H    -4.047016  -0.767175  3.933428
H    -1.981874  1.323297  5.465146
H    -2.237821  2.631491  4.458157
O    0.400107  1.022547  2.942136
H    -0.947932  1.576783  4.131580
Pb    3.262605  -0.829661  0.401611
