27
Energy: -606651.107313 eV PBE+vdW (tier 2 basis)
N    -0.200713  0.694932  2.292002
C    0.704089  -0.225592  1.676206
C    1.769615  0.318235  0.716380
O    2.885457  -0.237315  0.533163
H    -0.848474  1.142905  1.646121
H    0.239379  1.399085  2.880427
H    1.299085  -0.705189  2.474613
C    -0.069123  -1.343700  0.924831
C    -0.551733  -2.464954  1.866880
C    -0.419441  -3.887059  1.296273
N    0.857372  -4.159997  0.589552
C    2.074764  -3.789112  0.965449
N    2.478106  -3.310997  2.122889
N    3.137421  -3.777496  -0.003620
H    0.570727  -1.760454  0.133023
H    -0.914698  -0.878582  0.400179
H    -1.612597  -2.334060  2.114829
H    -0.038285  -2.384658  2.835522
H    -1.195721  -4.073472  0.544558
H    -0.561370  -4.632838  2.091564
H    0.779014  -4.670473  -0.286993
H    1.838788  -3.378147  2.914397
H    2.836359  -3.682865  -0.976711
H    3.750384  -4.595398  0.079400
O    1.444503  1.403277  0.065423
H    2.162456  1.693872  -0.538902
Pb    4.233910  -1.907703  1.494084
