27
Energy: -606650.741479 eV PBE+vdW (tier 2 basis)
N    0.404779  0.867917  1.035633
C    0.854309  -0.402329  1.635832
C    1.518979  -1.336489  0.633640
O    2.219894  -2.328295  1.060770
H    -0.157091  0.670497  0.200745
H    -0.591310  1.938066  1.938260
H    1.632133  -0.174958  2.381480
C    -0.310626  -1.154452  2.349468
C    -0.385511  -0.944890  3.868775
C    -0.730731  0.462767  4.375652
N    -2.075694  0.913562  4.008289
C    -2.452851  1.762465  3.015645
N    -3.560436  2.052037  2.472401
N    -1.318656  2.568434  2.452866
H    -0.203483  -2.233468  2.178495
H    -1.252551  -0.864624  1.858017
H    0.569274  -1.243531  4.328674
H    -1.133222  -1.647802  4.265944
H    0.008563  1.200907  4.035820
H    -0.662699  0.468986  5.472118
H    -2.846197  0.423477  4.454984
H    -4.367502  1.517361  2.803013
H    -1.777497  3.198695  1.779511
H    -0.852077  3.139744  3.169622
O    1.380263  -1.160170  -0.631166
H    1.208609  1.406649  0.700300
Pb    2.698028  -3.020053  -1.068599
