27
Energy: -606649.93597 eV PBE+vdW (tier 2 basis)
N    0.191062  1.034634  0.834547
C    0.321347  -0.042354  1.801879
C    1.842242  -0.246390  1.925479
O    2.553624  0.394165  2.647999
H    -0.752495  1.176361  0.480005
H    0.613243  1.915801  1.123150
H    -0.002198  0.260627  2.817970
C    -0.508855  -1.250397  1.345489
C    -0.728468  -2.366555  2.378406
C    0.510845  -3.144895  2.844832
N    1.279215  -3.715379  1.721622
C    1.261759  -4.961764  1.307835
N    0.585377  -6.000535  1.772102
N    2.103700  -5.364359  0.189031
H    -0.100067  -1.641229  0.401752
H    -1.508231  -0.867431  1.090360
H    -1.459008  -3.077600  1.964949
H    -1.191655  -1.953003  3.286945
H    0.228606  -3.950200  3.534954
H    1.213062  -2.502277  3.393492
H    1.833084  -3.004801  1.211793
H    -0.066638  -5.856091  2.544315
H    1.795970  -4.945048  -0.696129
H    3.088055  -5.108263  0.323305
O    2.367612  -1.201069  1.051508
H    3.337007  -1.061701  1.096239
Pb    1.355622  -7.784779  0.578864
