27
Energy: -606651.131207 eV PBE+vdW (tier 2 basis)
N    -0.750868  -0.401602  -1.122379
C    -0.494243  -0.011770  0.317945
C    0.990334  0.424152  0.291616
O    1.629934  0.370050  -0.744681
H    -1.489301  0.159056  -1.557283
H    0.179308  -0.184503  -1.583372
H    -1.099045  0.879773  0.537724
C    -0.785741  -1.109871  1.346169
C    -2.266809  -1.387505  1.696746
C    -2.943759  -2.623613  1.084107
N    -3.513851  -2.464513  -0.266326
C    -2.953104  -2.834750  -1.426087
N    -3.576114  -2.797099  -2.618855
N    -1.644568  -3.236037  -1.550635
H    -0.285090  -0.771221  2.262651
H    -0.257579  -2.034759  1.062430
H    -2.888528  -0.497100  1.517654
H    -2.309775  -1.548429  2.782657
H    -3.785446  -2.913003  1.725548
H    -2.261444  -3.485647  1.087041
H    -4.497414  -2.206669  -0.302306
H    -4.540284  -2.476946  -2.688488
H    -0.969452  -1.420677  -1.258625
H    -1.237222  -3.687366  -0.730195
O    1.415000  0.844353  1.469727
H    2.350154  1.134800  1.406001
Pb    -2.094018  -4.128571  -3.677903
