27
Energy: -606652.333973 eV PBE+vdW (tier 2 basis)
N    1.180317  -3.864330  0.439457
C    0.564514  -2.611078  -0.107021
C    1.686243  -1.594653  -0.458371
O    2.814549  -2.111839  -0.941161
H    1.335902  -3.763849  1.450159
H    0.533149  -4.652610  0.339664
H    0.112746  -2.896071  -1.072051
C    -0.516294  -2.008221  0.805237
C    -1.518601  -1.098068  0.044748
C    -1.846715  0.223653  0.742262
N    -0.692469  1.125608  0.687552
C    -0.711690  2.427726  0.983364
N    0.365501  3.182395  0.713798
N    -1.792889  2.991668  1.539605
H    -0.020056  -1.457261  1.618298
H    -1.073115  -2.827393  1.280814
H    -2.462090  -1.639857  -0.096295
H    -1.150914  -0.867439  -0.965727
H    -2.141267  0.037702  1.789106
H    -2.700480  0.691383  0.228685
H    0.182010  0.718495  0.337333
H    1.135091  2.816221  0.167473
H    -1.858954  3.994359  1.664314
H    -2.568936  2.435577  1.873076
O    1.527964  -0.394756  -0.334551
H    0.440364  4.137385  1.040751
Pb    3.369492  -4.168992  -0.714641
