27
Energy: -606651.386921 eV PBE+vdW (tier 2 basis)
N    -0.205094  -2.459622  1.560520
C    -0.490874  -1.006662  1.718081
C    0.263712  -0.517674  2.941720
O    0.678440  -1.266518  3.836061
H    -0.922634  -2.883704  0.965458
H    0.678507  -2.587532  1.054322
H    -0.071173  -0.442619  0.871356
C    -2.039624  -0.766463  1.729877
C    -2.710320  0.232413  2.692379
C    -2.860899  -0.188029  4.175036
N    -3.210564  -1.618513  4.289119
C    -2.349471  -2.587239  4.640614
N    -2.244585  -3.805424  4.143296
N    -1.333145  -2.337580  5.593994
H    -2.501869  -1.755396  1.868524
H    -2.306737  -0.462028  0.710612
H    -3.719466  0.399272  2.288581
H    -2.224069  1.217069  2.660448
H    -3.640162  0.418424  4.652389
H    -1.937403  -0.005738  4.737320
H    -3.952316  -1.919064  3.657846
H    -2.962923  -4.089512  3.474291
H    -1.423328  -2.978991  6.386313
H    -1.246202  -1.382054  5.936694
O    0.445714  0.786516  2.948229
H    0.978740  1.065301  3.724362
Pb    0.145149  -3.698624  3.850426
