27
Energy: -606651.011454 eV PBE+vdW (tier 2 basis)
N    0.458029  -0.340507  0.510743
C    0.438915  -0.018640  1.971482
C    1.718967  0.770488  2.228380
O    1.914608  1.755240  1.496105
H    1.283930  -0.891987  0.253560
H    -0.356458  -0.912118  0.267084
H    -0.277593  0.802005  2.065484
C    -0.154327  -1.087628  2.888361
C    -1.671712  -1.187825  2.598820
C    -2.638257  -0.104211  3.145103
N    -2.300284  1.342828  3.094244
C    -1.934221  2.140906  2.067244
N    -1.798108  1.756743  0.791897
N    -1.530567  3.408163  2.366696
H    0.002898  -0.799515  3.940197
H    0.317959  -2.069758  2.743844
H    -2.047073  -2.123754  3.035259
H    -1.838628  -1.322940  1.517727
H    -2.787621  -0.290615  4.215161
H    -3.617667  -0.261842  2.669148
H    -2.563955  1.834992  3.944411
H    -2.347079  0.926552  0.560869
H    -1.736840  4.129595  1.682351
H    -1.510025  3.728949  3.330071
O    2.560860  0.511853  3.196043
H    2.342797  -0.302188  3.692398
Pb    0.295362  2.019033  -0.347121
