27
Energy: -606650.42731 eV PBE+vdW (tier 2 basis)
N    0.077455  0.628065  0.294487
C    0.324741  0.120679  1.653584
C    1.782888  -0.364334  1.701074
O    2.152325  -1.513845  1.451166
H    -0.835530  1.085157  0.254651
H    0.759087  1.337461  0.019267
H    0.245201  0.907478  2.430986
C    -0.685790  -0.992342  2.047686
C    -1.423939  -1.767871  0.936149
C    -0.604106  -2.409701  -0.193205
N    0.541999  -3.172160  0.312558
C    0.857513  -4.409780  0.087039
N    0.232871  -5.373093  -0.600539
N    2.117201  -4.932235  0.621169
H    -1.469526  -0.520136  2.654796
H    -0.184243  -1.690559  2.733335
H    -2.141451  -1.107187  0.429967
H    -2.028673  -2.540615  1.432553
H    -0.177932  -1.608911  -0.818483
H    -1.244734  -3.042144  -0.820592
H    1.230048  -2.535974  0.864452
H    -0.671328  -5.162002  -1.025280
H    2.104448  -4.973440  1.647581
H    2.917371  -4.340423  0.365211
O    2.718950  0.520297  2.016826
H    2.339657  1.384487  2.267362
Pb    1.659273  -7.095841  -0.583235
