27
Energy: -606650.087116 eV PBE+vdW (tier 2 basis)
N    1.102397  -1.442900  -0.101296
C    0.097456  -0.471585  0.505816
C    0.897552  0.564414  1.295469
O    0.309000  1.613091  1.697737
H    1.446149  -1.127712  -1.018581
H    0.686143  -2.377336  -0.222598
H    -0.418163  0.028542  -0.325308
C    -0.920549  -1.208099  1.394566
C    -1.809048  -2.202374  0.634926
C    -2.964528  -2.733833  1.521203
N    -3.877661  -3.600256  0.814962
C    -4.867090  -3.142734  -0.031303
N    -5.147502  -1.889764  -0.289000
N    -5.590230  -4.090931  -0.688212
H    -1.544085  -0.420732  1.843548
H    -0.394333  -1.698772  2.229894
H    -1.235791  -3.075584  0.276447
H    -2.241763  -1.719283  -0.254911
H    -3.517731  -1.882621  1.949478
H    -2.561275  -3.296061  2.373850
H    -3.749346  -4.600546  0.918622
H    -4.622820  -1.236377  0.296942
H    -6.380220  -3.753861  -1.227615
H    -5.589537  -5.067108  -0.420135
O    2.126624  0.329546  1.554059
H    1.922807  -1.497440  0.530289
Pb    2.254294  2.439399  2.745647
