27
Energy: -606651.195501 eV PBE+vdW (tier 2 basis)
N    0.130446  1.815282  0.559800
C    0.131613  0.719026  1.563087
C    1.561015  0.210032  1.695175
O    2.399036  0.360421  0.800655
H    -0.823419  1.968231  0.219870
H    0.408947  2.698243  1.002249
H    -0.166112  1.111510  2.549723
C    -0.906003  -0.378333  1.140174
C    -0.629750  -1.887589  1.306989
C    0.327143  -2.565042  0.293497
N    0.088186  -2.059272  -1.072124
C    0.877669  -1.177437  -1.709403
N    0.508950  -0.160228  -2.466786
N    2.280688  -1.205361  -1.539855
H    -1.137893  -0.182498  0.083055
H    -1.829775  -0.152170  1.687286
H    -1.611098  -2.375921  1.216435
H    -0.288315  -2.143844  2.320140
H    0.170703  -3.650452  0.315476
H    1.377191  -2.395793  0.558360
H    -0.895817  -2.009849  -1.333495
H    -0.487882  -0.087095  -2.680025
H    2.749415  -1.342249  -2.438984
H    2.656228  -1.854753  -0.849968
O    1.921468  -0.445288  2.780662
H    1.238113  -0.446452  3.479738
Pb    1.943078  1.427005  -1.360104
