27
Energy: -606652.212041 eV PBE+vdW (tier 2 basis)
N    -0.198482  1.082987  0.696922
C    -0.011673  -0.076319  1.666991
C    1.502044  -0.217334  1.885693
O    1.904876  -0.683355  2.989018
H    -1.089085  1.020020  0.183653
H    -0.171903  1.996831  1.170742
H    -0.484686  0.202808  2.616135
C    -0.684028  -1.337342  1.076805
C    -0.338320  -2.654527  1.803274
C    0.830629  -3.426595  1.136128
N    1.755183  -4.025059  2.097884
C    2.989520  -3.561380  2.364891
N    3.704509  -2.797594  1.528093
N    3.542418  -3.822628  3.578406
H    -0.418851  -1.422821  0.010103
H    -1.769755  -1.169478  1.119557
H    -1.233361  -3.287314  1.812949
H    -0.094330  -2.452734  2.855065
H    1.412622  -2.754224  0.495595
H    0.445292  -4.216386  0.478988
H    1.398048  -4.780856  2.677251
H    3.415766  -2.875481  0.552419
H    4.544789  -3.981420  3.614165
H    2.999205  -4.275357  4.306794
O    2.275444  0.108744  0.929331
H    0.593418  1.056229  0.026022
Pb    4.216339  -0.687443  2.286067
