27
Energy: -606651.967508 eV PBE+vdW (tier 2 basis)
N    1.691526  -1.435614  1.244980
C    0.784707  -0.606494  2.063861
C    1.042203  -0.900976  3.535284
O    1.627884  -1.912730  3.962030
H    1.299413  -1.565251  0.309231
H    2.581977  -0.948967  1.102926
H    1.004161  0.465961  1.940127
C    -0.706390  -0.793214  1.671698
C    -1.213127  -2.208905  1.349004
C    -1.195075  -3.254149  2.476785
N    -0.156498  -4.320651  2.238365
C    -0.021449  -5.247574  3.348336
N    1.064034  -5.043833  4.031414
N    -0.973494  -6.165416  3.538121
H    -0.872877  -0.171949  0.780380
H    -1.323519  -0.340305  2.459870
H    -0.697315  -2.620278  0.466576
H    -2.251989  -2.082334  1.016452
H    -2.182742  -3.729872  2.560394
H    -0.978329  -2.813093  3.457669
H    -0.399128  -4.825869  1.378347
H    1.227837  -5.621989  4.858173
H    -0.903512  -6.852846  4.283632
H    -1.809397  -6.205647  2.964877
O    0.578750  0.031115  4.334241
H    0.765780  -0.180593  5.274617
Pb    2.359099  -3.668583  2.531570
