27
Energy: -606649.588799 eV PBE+vdW (tier 2 basis)
N    -0.146682  0.649803  0.968615
C    0.159726  -0.146056  2.191628
C    1.644495  -0.502675  2.187206
O    2.307633  -0.558682  1.131676
H    -1.123445  0.493497  0.698841
H    -0.074964  1.652842  1.171850
H    -0.060289  0.456805  3.088036
C    -0.666710  -1.459423  2.244107
C    -2.171332  -1.241020  2.450207
C    -2.943324  -2.583832  2.558499
N    -4.369002  -2.395477  2.683630
C    -5.067965  -2.035645  3.820986
N    -6.193748  -1.418862  3.605233
N    -4.499758  -2.344523  5.033375
H    -0.271394  -2.073709  3.067359
H    -0.473248  -2.034513  1.322399
H    -2.615575  -0.668988  1.618744
H    -2.348228  -0.656071  3.365243
H    -2.558178  -3.160977  3.410247
H    -2.763773  -3.197817  1.664577
H    -4.902254  -2.181610  1.843757
H    -6.705106  -1.186078  4.462079
H    -5.066630  -2.143948  5.850984
H    -3.963128  -3.203174  5.118616
O    2.257079  -0.828700  3.296476
H    1.708537  -0.729636  4.100022
Pb    1.503695  0.139020  -0.903969
