27
Energy: -606650.479216 eV PBE+vdW (tier 2 basis)
N    -0.556282  1.322223  1.463202
C    -0.086300  0.150051  2.186018
C    0.990762  -0.563651  1.357839
O    0.833341  -1.635587  0.755761
H    0.110849  2.090769  1.433951
H    -0.913124  1.129029  0.528316
H    0.401729  0.507840  3.106110
C    -1.291938  -0.735276  2.547881
C    -1.104797  -1.836092  3.607494
C    -0.177687  -3.001852  3.274406
N    -0.602123  -3.638056  1.963407
C    0.229082  -4.730878  1.528186
N    -0.321328  -5.897930  1.810159
N    1.357919  -4.457720  0.903426
H    -1.731490  -1.141340  1.620244
H    -2.049623  -0.041312  2.934229
H    -2.105172  -2.232581  3.857549
H    -0.733317  -1.395740  4.545336
H    -0.205285  -3.769801  4.060080
H    0.867662  -2.679756  3.174598
H    -0.534221  -2.861430  1.270491
H    0.178363  -6.760542  1.585550
H    1.958586  -5.187678  0.526313
H    1.594155  -3.474734  0.714527
O    2.118041  0.135163  1.300881
H    2.747212  -0.274666  0.672447
Pb    -2.459821  -5.255269  2.269837
