27
Energy: -606650.640557 eV PBE+vdW (tier 2 basis)
N    1.714289  -0.897657  2.046262
C    0.484183  -0.274632  1.445766
C    1.362852  0.425101  2.422692
O    2.094537  1.524674  2.097383
H    2.522433  -0.939535  1.420467
H    -4.473497  -3.397307  -2.051670
H    0.596221  0.111721  0.427243
C    -0.843400  -0.927381  1.751889
C    -1.067885  -2.186884  0.898071
C    -2.405707  -2.869183  1.216957
N    -2.608808  -4.133380  0.498840
C    -3.332197  -4.318864  -0.613526
N    -3.759831  -3.279263  -1.342601
N    -3.639974  -5.564477  -1.003907
H    -1.641380  -0.190514  1.568981
H    -0.896467  -1.188703  2.819359
H    -0.248050  -2.897888  1.081410
H    -1.021512  -1.929313  -0.172241
H    -3.259834  -2.210386  1.005053
H    -2.466494  -3.104680  2.288634
H    -2.155512  -4.956424  0.883304
H    -3.381499  -2.350584  -1.215383
H    -3.987612  -5.753774  -1.936454
H    -3.558331  -6.352804  -0.373187
O    0.996432  0.571546  3.837572
H    1.099287  -0.291305  4.285258
Pb    2.312665  2.611185  3.916734
