27
Energy: -606651.692358 eV PBE+vdW (tier 2 basis)
N    1.470391  -1.275940  1.166212
C    0.281598  -0.433483  1.467356
C    0.623485  0.518713  2.612620
O    1.659583  0.431323  3.286542
H    1.171587  -2.177780  0.784378
H    2.025640  -0.837200  0.424557
H    0.082696  0.223813  0.602586
C    -1.016742  -1.269051  1.674237
C    -0.951773  -2.568126  2.502476
C    -1.381030  -2.544009  3.977478
N    -0.663859  -1.654448  4.907829
C    0.659012  -1.665889  5.165102
N    1.540529  -2.463845  4.538257
N    1.155801  -0.761288  6.036821
H    -1.348973  -1.534566  0.661538
H    -1.804470  -0.607915  2.065675
H    0.024938  -3.058132  2.386119
H    -1.656402  -3.272053  2.037158
H    -1.355409  -3.576343  4.361684
H    -2.430516  -2.229264  4.034114
H    -1.254052  -1.212838  5.608925
H    1.126967  -3.327592  4.186366
H    2.009559  -0.993950  6.532064
H    0.573829  -0.041647  6.452540
O    -0.198626  1.506493  2.896132
H    -0.955069  1.578355  2.280835
Pb    3.100454  -1.438694  3.183526
