27
Energy: -606650.086971 eV PBE+vdW (tier 2 basis)
N    -0.932131  0.264885  -0.168695
C    -0.767265  0.489536  1.238663
C    0.219120  1.632948  1.638580
O    0.684287  1.733955  2.752389
H    -1.462364  0.976780  -0.665471
H    -0.081469  0.031289  -0.678019
H    -1.736062  0.839055  1.637011
C    -0.362561  -0.799379  1.980944
C    -1.488286  -1.838044  2.004512
C    -1.100551  -3.171144  2.645722
N    -0.783082  -3.004029  4.085815
C    -0.922652  -3.885195  5.062786
N    -0.684485  -3.721171  6.350556
N    -1.364324  -5.237506  4.790269
H    -0.055861  -0.486588  2.991953
H    0.534582  -1.221435  1.498723
H    -1.798806  -2.062817  0.974018
H    -2.377794  -1.433614  2.512701
H    -0.218163  -3.599884  2.144732
H    -1.929586  -3.884404  2.552896
H    -0.391924  -2.095188  4.339078
H    -0.405252  -2.797691  6.686810
H    -0.865866  -5.674052  4.007740
H    -2.367173  -5.277780  4.574749
O    0.441661  2.479479  0.626082
H    1.024772  3.200408  0.943713
Pb    -0.860847  -5.824199  7.261776
