27
Energy: -606650.040916 eV PBE+vdW (tier 2 basis)
N    -0.413321  0.550912  0.226716
C    0.015058  0.049618  1.500804
C    1.523116  -0.299456  1.624077
O    2.094047  -0.316642  2.697099
H    -0.315698  -0.095035  -0.554760
H    -0.067257  1.474903  -0.020588
H    -0.129754  0.850476  2.241724
C    -0.852425  -1.180156  1.884739
C    -0.470093  -1.971796  3.144445
C    -0.405535  -1.199810  4.464491
N    -1.747458  -0.723257  4.884143
C    -2.135154  -0.392492  6.104133
N    -3.330516  -0.008327  6.513908
N    -1.194516  -0.407424  7.207186
H    -0.837343  -1.888162  1.042614
H    -1.892451  -0.816619  1.925178
H    0.523976  -2.421928  3.020168
H    -1.165224  -2.818274  3.251277
H    0.277999  -0.341054  4.375997
H    -0.015106  -1.864356  5.246663
H    -2.443521  -0.645320  4.141367
H    -4.100319  0.013488  5.842532
H    -0.915920  -1.362860  7.460487
H    -0.332739  0.110649  7.001975
O    2.085770  -0.591340  0.446990
H    3.030674  -0.808185  0.591261
Pb    -3.043011  0.573733  8.714821
