27
Energy: -606651.527573 eV PBE+vdW (tier 2 basis)
N    1.411945  -0.576282  1.074154
C    0.077806  -0.383661  1.595623
C    0.148782  0.693100  2.667403
O    1.220806  1.072373  3.160092
H    -5.530538  0.874146  -0.136294
H    1.445759  -1.232000  0.293658
H    -0.599806  0.006173  0.808285
C    -0.507623  -1.727603  2.149009
C    -1.905767  -1.786587  2.790247
C    -3.103347  -1.333988  1.929899
N    -3.571720  0.017033  2.340019
C    -4.519079  0.717937  1.641612
N    -4.918213  0.305644  0.440417
N    -4.997417  1.848039  2.165447
H    0.217618  -2.116795  2.877186
H    -0.481358  -2.424410  1.297904
H    -1.921517  -1.257894  3.756592
H    -2.069864  -2.839507  3.054707
H    -3.931379  -2.051403  2.029730
H    -2.816818  -1.289566  0.869551
H    -3.691424  0.097582  3.351352
H    -4.728580  -0.633979  0.112687
H    -4.609836  2.249479  3.012330
H    -5.770283  2.348259  1.738356
O    -0.967002  1.256144  3.101334
H    -1.751999  0.909243  2.616502
Pb    3.147109  0.286196  2.024576
