27
Energy: -606650.028283 eV PBE+vdW (tier 2 basis)
N    -0.084247  0.213702  0.106197
C    -0.108559  -0.117949  1.504402
C    1.261385  -0.594162  2.026051
O    2.057120  -1.264106  1.435538
H    0.442383  1.050030  -0.135032
H    0.161385  -0.558378  -0.512152
H    -0.372806  0.797743  2.055679
C    -1.166876  -1.224248  1.749419
C    -1.347714  -1.671967  3.204792
C    -1.956852  -0.569839  4.086791
N    -1.784228  -0.842842  5.526860
C    -0.834880  -0.364971  6.311528
N    -0.628481  -0.631938  7.592042
N    0.153303  0.564909  5.810051
H    -0.884874  -2.103031  1.151556
H    -2.113712  -0.854564  1.330935
H    -0.385116  -1.992316  3.631685
H    -1.999617  -2.555949  3.227528
H    -3.035069  -0.467515  3.908878
H    -1.511392  0.409911  3.877446
H    -2.420803  -1.528395  5.935881
H    -1.269059  -1.259913  8.081645
H    0.621869  0.249655  4.928329
H    -0.262330  1.482645  5.610309
O    1.534409  -0.155885  3.342506
H    2.447550  -0.476102  3.502114
Pb    1.292305  0.478481  8.088129
