27
Energy: -606650.641958 eV PBE+vdW (tier 2 basis)
N    0.239980  -1.340220  0.177009
C    0.261014  -0.421131  1.334007
C    1.642139  -0.285534  1.951187
O    1.832628  0.570499  2.894053
H    -1.184718  -2.391644  0.263953
H    0.229070  -0.813280  -0.698014
H    0.020984  0.598751  0.992938
C    -0.802100  -0.781486  2.416168
C    -0.907524  -2.286819  2.742783
C    -2.077847  -3.022130  2.084860
N    -2.127247  -2.811448  0.577610
C    -2.591965  -3.965341  -0.261482
N    -3.678535  -3.714598  -0.858699
N    -1.788233  -5.058320  -0.171400
H    -1.768579  -0.391280  2.066564
H    -0.576213  -0.205005  3.321685
H    -1.048044  -2.413074  3.824727
H    0.034429  -2.808130  2.509427
H    -3.041449  -2.681615  2.481039
H    -2.009428  -4.100757  2.262405
H    -2.840855  -2.105845  0.345385
H    -4.027930  -4.458365  -1.468624
H    -2.020353  -5.874699  -0.726333
H    -0.830242  -5.002982  0.151433
O    2.630007  -0.996706  1.539283
H    1.096367  -1.900061  0.154526
Pb    4.073641  0.140948  2.970956
