27
Energy: -606650.404944 eV PBE+vdW (tier 2 basis)
N    -0.373130  1.143907  1.294278
C    0.515754  0.185293  2.023681
C    1.881379  0.078198  1.385889
O    2.184561  0.782724  0.356697
H    -1.265980  1.260311  2.010273
H    0.074919  2.055084  1.143670
H    0.663105  0.640862  3.024348
C    -0.166932  -1.195243  2.196451
C    -1.678171  -1.168009  2.514118
C    -2.143603  -0.263356  3.660854
N    -2.156784  1.182234  3.264556
C    -1.548271  2.231087  4.062000
N    -1.832352  3.465385  3.965652
N    -0.427966  1.818280  4.787602
H    0.378441  -1.713538  2.996108
H    -0.019665  -1.793737  1.285291
H    -1.959713  -2.201235  2.761406
H    -2.261479  -0.931050  1.609714
H    -1.506620  -0.406670  4.540770
H    -3.157575  -0.550678  3.964860
H    -3.103805  1.473707  3.017350
H    -2.609817  3.686602  3.337837
H    -0.040508  2.617487  5.290341
H    -0.571346  1.039973  5.428721
O    2.746860  -0.716288  1.899634
H    -0.675842  0.789445  0.379931
Pb    4.343612  -0.121824  0.350084
