27
Energy: -606651.165094 eV PBE+vdW (tier 2 basis)
N    0.654794  0.459135  1.060963
C    0.009379  -0.215161  2.150202
C    0.842624  -1.283520  2.858821
O    0.753378  -1.560146  4.084416
H    0.717536  -0.090127  0.205020
H    1.568668  0.849421  1.282575
H    -0.212187  0.534795  2.935955
C    -1.347819  -0.804453  1.666640
C    -2.434532  -1.029355  2.728391
C    -2.336821  -2.327880  3.553431
N    -2.462496  -2.028640  5.026735
C    -2.117770  -3.122345  5.910799
N    -0.947264  -2.949101  6.462925
N    -2.972294  -4.128786  6.071324
H    -1.175375  -1.719154  1.078708
H    -1.717289  -0.050461  0.957814
H    -3.408441  -1.008150  2.222561
H    -2.454304  -0.160314  3.409369
H    -1.374089  -2.835414  3.425177
H    -3.118287  -3.041022  3.255578
H    -3.402895  -1.670025  5.229196
H    -0.577759  -3.673684  7.081127
H    -3.843555  -4.180438  5.552378
H    -2.781469  -4.894153  6.714047
O    1.693835  -1.924470  2.097629
H    2.206685  -2.585248  2.611269
Pb    -0.434716  -0.732989  5.913827
