27
Energy: -606652.20777 eV PBE+vdW (tier 2 basis)
N    0.321954  -0.653568  -0.079422
C    -0.208562  -0.025971  1.203110
C    0.933306  0.846412  1.738764
O    0.644536  1.849311  2.451324
H    1.342089  -0.800982  0.061604
H    -0.135642  -1.549713  -0.297120
H    -1.075858  0.592527  0.943449
C    -0.600630  -1.156372  2.178565
C    -1.247672  -0.727143  3.519458
C    -0.359949  -0.815383  4.789871
N    0.052705  0.481166  5.339104
C    1.235368  1.078862  5.171076
N    2.344970  0.562225  4.677165
N    1.336493  2.457695  5.421852
H    0.282042  -1.789009  2.364173
H    -1.326593  -1.787682  1.643843
H    -2.103159  -1.392949  3.683473
H    -1.674609  0.282183  3.439960
H    0.531720  -1.429124  4.612406
H    -0.914033  -1.325539  5.586400
H    -0.645156  0.977843  5.887049
H    2.382222  -0.450861  4.572758
H    2.027570  2.698609  6.133558
H    0.465390  2.970496  5.550910
O    2.118575  0.468157  1.488404
H    0.207036  -0.032944  -0.892681
Pb    2.947183  2.204965  3.127857
