27
Energy: -606650.049328 eV PBE+vdW (tier 2 basis)
N    -1.103371  0.414829  0.459971
C    -0.220999  0.182025  1.576124
C    0.750845  1.383264  1.797888
O    1.958208  1.302106  1.727779
H    -1.793908  1.149219  0.601181
H    -0.649199  0.505730  -0.447635
H    -0.844216  0.128539  2.484065
C    0.564809  -1.126596  1.391041
C    1.279490  -1.594710  2.666629
C    2.274127  -2.734517  2.448924
N    1.595489  -3.984778  2.023241
C    2.025774  -5.227574  2.169607
N    1.415165  -6.351131  1.843208
N    3.334221  -5.497632  2.729121
H    1.300875  -0.984100  0.584349
H    -0.170076  -1.869278  1.040387
H    0.553709  -1.878198  3.444465
H    1.875268  -0.767081  3.075351
H    2.814229  -2.936373  3.383204
H    3.007742  -2.453560  1.676799
H    0.701026  -3.859267  1.547990
H    0.462666  -6.306850  1.476622
H    3.357626  -5.339910  3.743345
H    4.075422  -4.922430  2.314907
O    0.063014  2.504496  2.051790
H    0.693073  3.246958  2.159047
Pb    3.001690  -7.991685  2.126040
