27
Energy: -606651.963725 eV PBE+vdW (tier 2 basis)
N    0.796780  -1.156651  1.042346
C    0.351054  -0.513317  2.306665
C    1.304905  -0.949721  3.410588
O    2.052300  -1.942160  3.338578
H    0.037704  -1.116932  0.355320
H    1.577242  -0.636912  0.624389
H    0.460973  0.580726  2.247588
C    -1.164120  -0.834688  2.507956
C    -1.774417  -0.917676  3.913666
C    -1.609638  -2.266059  4.641424
N    -2.057161  -3.416980  3.846535
C    -1.289763  -4.119353  2.989177
N    0.050774  -4.083382  3.041834
N    -1.883130  -4.854585  2.023464
H    -1.365831  -1.780107  1.981363
H    -1.700218  -0.059702  1.944369
H    -2.850116  -0.721817  3.802519
H    -1.400895  -0.118735  4.569529
H    -2.205875  -2.256204  5.561781
H    -0.576358  -2.434051  4.971982
H    -3.043371  -3.657145  3.905738
H    0.369221  -3.775694  3.961725
H    -2.890863  -4.842427  1.903829
H    -1.408672  -5.688783  1.694347
O    1.293750  -0.148873  4.450629
H    1.949405  -0.433540  5.125120
Pb    1.699901  -3.507446  1.546661
