27
Energy: -606651.167342 eV PBE+vdW (tier 2 basis)
N    0.633921  -0.083236  0.700043
C    -0.045494  -0.337274  1.960414
C    0.953970  -0.774660  3.008282
O    2.174403  -0.434954  2.937139
H    0.003430  0.376619  0.042033
H    1.438434  0.532643  0.820710
H    -0.494711  0.567588  2.434911
C    -1.204918  -1.344541  1.787802
C    -0.878772  -2.607785  0.968816
C    0.395572  -3.363454  1.309455
N    0.400368  -3.869471  2.773704
C    1.643142  -4.562845  3.153110
N    2.553294  -3.858267  3.755103
N    1.689087  -5.847850  2.800146
H    -2.023094  -0.826098  1.269918
H    -1.611744  -1.594528  2.777567
H    -0.745339  -2.337947  -0.088977
H    -1.745078  -3.286690  0.994414
H    1.287599  -2.730657  1.210160
H    0.521370  -4.245735  0.670558
H    -0.421624  -4.468694  2.936736
H    3.401983  -4.406659  3.927853
H    2.504538  -6.420619  3.004736
H    0.941184  -6.308932  2.290079
O    0.567335  -1.515302  4.014006
H    0.302718  -3.000822  3.392277
Pb    2.773210  -1.613924  4.856531
