27
Energy: -606651.32737 eV PBE+vdW (tier 2 basis)
N    -0.371606  0.305314  0.350787
C    -0.177575  0.294742  1.824873
C    1.269687  -0.139549  2.100931
O    1.862037  -0.898108  1.329706
H    -0.104367  1.226189  -0.012866
H    -1.367488  0.208575  0.135481
H    -0.349176  1.309538  2.217805
C    -1.088728  -0.700776  2.604362
C    -2.598823  -0.758967  2.262818
C    -3.078003  -1.982553  1.457615
N    -2.703295  -1.951207  0.033640
C    -1.572209  -2.384263  -0.543568
N    -1.132678  -2.141682  -1.755363
N    -0.594557  -3.073677  0.226139
H    -0.988221  -0.418878  3.660907
H    -0.647910  -1.706474  2.552597
H    -2.943225  0.166532  1.773988
H    -3.151767  -0.789691  3.211850
H    -4.173250  -2.031992  1.490933
H    -2.728397  -2.921702  1.910504
H    -3.340351  -1.447606  -0.580589
H    -1.787093  -1.709834  -2.410765
H    -0.374637  -3.978339  -0.199874
H    -0.792106  -3.201478  1.217702
O    1.869032  0.231934  3.211093
H    1.355933  0.869598  3.745359
Pb    1.079593  -1.427525  -0.958173
