27
Energy: -606652.202454 eV PBE+vdW (tier 2 basis)
N    0.693929  -0.204984  0.450726
C    0.005397  -0.083172  1.808004
C    1.119541  -0.281397  2.854537
O    1.219997  0.503011  3.834518
H    1.291308  0.608009  0.241510
H    0.010679  -0.298713  -0.314809
H    -0.419601  0.925715  1.869764
C    -1.060450  -1.193921  1.896190
C    -2.146661  -1.081631  2.986651
C    -1.745415  -0.845569  4.447392
N    -0.631010  -1.693270  4.890289
C    0.023815  -1.546064  6.060715
N    1.334854  -1.852235  6.106193
N    -0.646574  -1.070148  7.121522
H    -0.536432  -2.160668  1.960404
H    -1.606379  -1.216139  0.939185
H    -2.734800  -2.007303  2.915562
H    -2.839029  -0.269067  2.726338
H    -2.643054  -1.035078  5.054337
H    -1.456509  0.204227  4.609056
H    -0.181438  -2.315650  4.228123
H    1.653041  -2.084007  7.050604
H    -0.159006  -0.817131  7.972917
H    -1.659669  -1.094582  7.165982
O    1.870065  -1.297479  2.680061
H    1.298052  -1.045709  0.463787
Pb    2.977636  -0.883236  4.826551
