27
Energy: -606650.08958 eV PBE+vdW (tier 2 basis)
N    0.424506  -0.874366  -0.048322
C    0.056499  -0.300437  1.316621
C    1.371806  0.083246  2.004378
O    1.345240  0.464955  3.211975
H    0.497259  -1.901070  -0.013828
H    -0.263500  -0.631633  -0.772519
H    -0.479549  0.640832  1.114535
C    -0.833950  -1.247542  2.124602
C    -2.203778  -1.515061  1.486094
C    -3.141697  -2.291938  2.441641
N    -4.470729  -2.490212  1.910447
C    -5.445914  -1.515875  1.904924
N    -5.336014  -0.307077  2.399113
N    -6.619171  -1.831138  1.290429
H    -0.963127  -0.770246  3.107266
H    -0.290179  -2.188099  2.317151
H    -2.109139  -2.094279  0.552638
H    -2.685792  -0.560662  1.220568
H    -3.204165  -1.763961  3.406790
H    -2.721657  -3.282033  2.663810
H    -4.674507  -3.385689  1.481094
H    -4.465690  -0.169683  2.918207
H    -7.365966  -1.150819  1.380231
H    -6.877086  -2.780212  1.050553
O    2.453666  0.044052  1.324927
H    1.359616  -0.506551  -0.309632
Pb    3.664621  0.923959  3.235608
