27
Energy: -606652.202365 eV PBE+vdW (tier 2 basis)
N    0.719032  -0.204697  0.308240
C    0.138914  0.181614  1.661030
C    1.254274  -0.016664  2.695364
O    1.326309  0.770954  3.679013
H    1.312933  0.539203  -0.085967
H    -0.016766  -0.417749  -0.380360
H    -0.165602  1.233603  1.608481
C    -1.039127  -0.757014  1.995107
C    -1.643875  -0.491555  3.391932
C    -2.057209  -1.755491  4.166775
N    -1.029409  -2.806222  4.282889
C    0.191910  -2.695476  4.842876
N    0.641560  -1.625315  5.489028
N    1.078007  -3.727739  4.671512
H    -0.665860  -1.791873  1.938751
H    -1.812375  -0.643111  1.220990
H    -2.546806  0.125534  3.296891
H    -0.951410  0.108651  3.994034
H    -2.906139  -2.240464  3.669884
H    -2.416029  -1.463100  5.165435
H    -1.344872  -3.749390  4.076290
H    -0.082920  -0.967911  5.776709
H    1.632774  -3.982423  5.483811
H    0.815701  -4.516439  4.088257
O    1.984568  -1.051843  2.560453
H    1.313097  -1.043066  0.444362
Pb    2.729251  -0.776434  4.889893
