27
Energy: -606652.002371 eV PBE+vdW (tier 2 basis)
N    -0.265274  0.236086  -0.044722
C    0.003217  -0.143883  1.406505
C    1.446418  -0.684719  1.419587
O    1.978136  -0.852564  2.565314
H    -0.184161  1.249269  -0.200566
H    -1.189481  -0.060826  -0.381265
H    -0.066411  0.767945  2.010980
C    -0.989490  -1.196378  1.938151
C    -0.927834  -2.590818  1.261994
C    -0.720824  -3.785886  2.219381
N    0.449614  -3.675691  3.104840
C    1.741482  -3.802653  2.782020
N    2.790748  -3.622768  3.556509
N    2.123151  -4.015692  1.435753
H    -2.004821  -0.779025  1.880574
H    -0.771515  -1.268412  3.012116
H    -0.147031  -2.604356  0.484988
H    -1.864902  -2.793304  0.725613
H    -0.661227  -4.721238  1.645093
H    -1.588801  -3.893223  2.880809
H    0.269625  -3.390195  4.063430
H    2.615905  -3.516114  4.557184
H    2.697214  -4.854681  1.329508
H    1.394077  -3.983534  0.726220
O    1.969833  -1.004791  0.325010
H    0.495960  -0.239362  -0.588437
Pb    3.901636  -2.118652  2.071138
