27
Energy: -606650.032249 eV PBE+vdW (tier 2 basis)
N    -0.159259  0.279809  -0.077499
C    -0.403211  0.397322  1.426048
C    0.975108  0.609451  2.067017
O    1.966682  0.852406  1.295215
H    -0.924481  0.690485  -0.628440
H    0.735193  0.758247  -0.300116
H    -0.964407  1.334863  1.568340
C    -1.230077  -0.792837  1.937512
C    -1.895948  -0.554243  3.300895
C    -2.851566  -1.711882  3.671520
N    -3.583369  -1.484131  4.898098
C    -4.704834  -0.690455  4.986567
N    -5.290507  -0.062092  3.995580
N    -5.231795  -0.512570  6.229765
H    -0.597617  -1.695104  1.962760
H    -2.021562  -0.981055  1.191971
H    -2.470346  0.384711  3.272507
H    -1.138180  -0.439915  4.086439
H    -2.287698  -2.646833  3.792550
H    -3.566088  -1.892415  2.852236
H    -3.190992  -1.864160  5.752327
H    -4.890452  -0.302680  3.085665
H    -6.111418  -0.009107  6.270190
H    -5.003154  -1.114025  7.011477
O    1.097574  0.584757  3.327002
H    -0.059793  -0.705130  -0.362688
Pb    3.400019  1.160956  3.214642
