27
Energy: -606651.794803 eV PBE+vdW (tier 2 basis)
N    -0.856794  -1.794950  4.548518
C    0.116944  -1.582841  3.478251
C    1.287822  -0.833471  4.087112
O    2.243439  -1.515618  4.635142
H    -0.598674  -2.539266  5.193631
H    -1.111195  -0.957270  5.068494
H    0.513002  -2.570500  3.206908
C    -0.525788  -0.983369  2.212475
C    -1.375630  0.285091  2.385653
C    -2.448892  0.445164  1.299451
N    -1.939054  0.627058  -0.069005
C    -1.943791  1.765384  -0.775697
N    -2.101873  2.952646  -0.174861
N    -1.771408  1.722422  -2.105780
H    -1.171370  -1.792075  1.834853
H    0.259605  -0.827803  1.456955
H    -0.740563  1.181070  2.440302
H    -1.934680  0.235339  3.331697
H    -3.113080  1.288353  1.529895
H    -3.091805  -0.446428  1.280231
H    -1.658479  -0.209164  -0.571254
H    -2.347634  3.778379  -0.707848
H    -1.574334  2.561548  -2.638191
H    -1.916700  0.868300  -2.630581
O    1.329443  0.455570  4.174411
H    -2.066680  3.044371  0.831492
Pb    3.330454  0.343712  5.316626
