27
Energy: -606650.507347 eV PBE+vdW (tier 2 basis)
N    0.291992  0.726401  0.663012
C    -0.543357  0.342396  1.866874
C    0.757197  1.050131  1.973887
O    0.853565  2.326442  2.431728
H    -0.047291  1.559304  0.172918
H    -0.202153  -3.412604  -2.769886
H    -1.395049  0.996237  2.082223
C    -0.760419  -1.129143  2.128493
C    -2.096717  -1.660825  1.580491
C    -2.304735  -1.532718  0.065205
N    -1.369971  -2.314177  -0.756314
C    -1.596450  -3.535814  -1.258782
N    -0.784218  -4.023611  -2.210303
N    -2.618744  -4.282460  -0.823247
H    -0.750412  -1.296016  3.215819
H    0.084180  -1.707302  1.723665
H    -2.927911  -1.123979  2.062817
H    -2.202320  -2.712381  1.888282
H    -2.203369  -0.489005  -0.258869
H    -3.327264  -1.828557  -0.206127
H    -0.486190  -1.875641  -0.994459
H    -0.818303  -4.999723  -2.479555
H    -3.130661  -4.047691  0.017031
H    -2.923949  -5.101201  -1.336198
O    1.981599  0.364990  2.389323
H    2.306697  -0.209089  1.669749
Pb    2.758393  2.457197  3.378274
