27
Energy: -606650.269735 eV PBE+vdW (tier 2 basis)
N    -0.052892  0.136693  0.387807
C    0.175298  -0.221095  1.764537
C    1.663905  -0.299017  2.096649
O    2.093466  -0.512031  3.231382
H    -1.031388  0.267856  0.142970
H    0.521042  0.894622  0.026991
H    -0.202254  0.545254  2.478403
C    -0.578759  -1.557332  2.039446
C    -0.400744  -2.233156  3.409174
C    -0.714405  -1.317778  4.588038
N    -0.407977  -1.942039  5.913707
C    0.955112  -2.288838  6.252341
N    0.966899  -3.234103  7.184975
N    1.971125  -1.718193  5.648463
H    -0.283394  -2.267407  1.255952
H    -1.645766  -1.345291  1.873748
H    0.623662  -2.623211  3.488887
H    -1.074460  -3.106165  3.435447
H    -1.781978  -1.063273  4.619795
H    -0.162091  -0.368427  4.520039
H    -0.751185  -1.317855  6.654749
H    1.860208  -3.509732  7.597262
H    2.918607  -2.029895  5.854943
H    1.875691  -1.094049  4.812768
O    2.458181  -0.074470  1.060112
H    3.393139  -0.093608  1.354006
Pb    -1.058916  -4.215554  6.915978
