27
Energy: -606650.526582 eV PBE+vdW (tier 2 basis)
N    -2.037307  0.124504  1.341429
C    -0.843033  -0.173484  2.080881
C    0.364329  0.745924  1.834561
O    1.263614  0.908714  2.670988
H    -2.446908  1.037116  1.524195
H    -1.980180  -0.049114  0.339841
H    -1.075005  -0.037860  3.151444
C    -0.458936  -1.659114  1.832606
C    0.775315  -2.254585  2.527271
C    0.797359  -2.225296  4.062835
N    1.304929  -0.927298  4.561585
C    1.816828  -0.674023  5.734858
N    2.337106  0.478695  6.159676
N    1.880262  -1.668222  6.798427
H    -0.328682  -1.797892  0.748812
H    -1.353880  -2.235396  2.107051
H    1.711458  -1.818186  2.147326
H    0.815834  -3.313620  2.237289
H    1.452054  -3.026331  4.433459
H    -0.211141  -2.400123  4.471539
H    1.281058  -0.123522  3.840805
H    2.382567  1.255956  5.496663
H    2.519905  -2.437338  6.565942
H    0.966772  -2.092541  6.995059
O    0.368232  1.343320  0.656645
H    1.172884  1.896186  0.565034
Pb    2.847271  0.138778  8.323737
