27
Energy: -606651.885198 eV PBE+vdW (tier 2 basis)
N    1.730537  -0.946171  2.168689
C    0.395827  -0.283137  2.167993
C    0.428039  0.849408  3.184338
O    1.090152  0.789484  4.237783
H    2.341006  -0.470947  1.495081
H    1.637415  -1.903615  1.820687
H    0.184454  0.130849  1.171986
C    -0.797413  -1.181067  2.604740
C    -0.939943  -2.585931  1.989953
C    -0.254262  -3.747502  2.748237
N    -0.482066  -3.713475  4.196041
C    0.307926  -3.070963  5.082465
N    1.605037  -2.815354  4.833917
N    -0.218578  -2.649386  6.248383
H    -1.692669  -0.599737  2.347917
H    -0.809365  -1.261276  3.701371
H    -0.613474  -2.611201  0.938619
H    -2.016693  -2.802164  1.954834
H    0.826822  -3.786698  2.564523
H    -0.641799  -4.701742  2.371508
H    -1.364944  -4.091252  4.531371
H    1.983095  -3.504323  4.178735
H    -1.210811  -2.733594  6.443579
H    0.394373  -2.552093  7.050948
O    -0.362330  1.849722  2.891709
H    -0.366153  2.526535  3.604764
Pb    2.796559  -0.866020  4.498740
