27
Energy: -606650.968296 eV PBE+vdW (tier 2 basis)
N    -0.223001  0.608988  2.391924
C    0.656649  -0.517209  2.342841
C    2.000286  -0.440045  3.085320
O    2.720904  -1.446806  3.300845
H    -0.510583  0.881560  3.329610
H    0.118337  1.427224  1.889909
H    0.151275  -1.333908  2.895868
C    0.852239  -0.957141  0.859486
C    -0.288402  -1.857994  0.349680
C    -0.036763  -3.372655  0.413723
N    0.595579  -3.754713  1.709947
C    0.746220  -5.112321  2.154069
N    1.770135  -5.225909  2.968086
N    -0.068871  -6.061415  1.709324
H    1.838483  -1.426814  0.690015
H    0.887980  -0.036490  0.262340
H    -0.505978  -1.628070  -0.701273
H    -1.206225  -1.599913  0.899694
H    0.641011  -3.701011  -0.386404
H    -0.997244  -3.890233  0.267472
H    0.181260  -3.223621  2.483458
H    1.921019  -6.116451  3.446079
H    0.071712  -7.037273  1.958560
H    -0.901931  -5.844679  1.170710
O    2.324694  0.739394  3.542357
H    3.171633  0.712886  4.040359
Pb    3.132881  -3.477647  2.177428
