27
Energy: -606650.711822 eV PBE+vdW (tier 2 basis)
N    2.467025  -1.376771  0.960342
C    1.180615  -0.916117  0.340100
C    1.180878  0.630198  0.209766
O    2.353518  1.223879  0.067586
H    2.360708  -1.415670  1.981790
H    2.676846  -2.338241  0.673888
H    1.199374  -1.291156  -0.697304
C    -0.069042  -1.454099  1.074744
C    -1.257564  -1.909029  0.201396
C    -1.923202  -0.926843  -0.761240
N    -2.425805  0.340172  -0.100415
C    -3.371613  0.124140  1.097431
N    -4.407213  -0.584871  1.061352
N    -2.865533  0.740637  2.206252
H    -0.396064  -0.714673  1.819468
H    0.226968  -2.345638  1.646545
H    -2.019573  -2.311313  0.883960
H    -0.947887  -2.762185  -0.421781
H    -2.777499  -1.413012  -1.247155
H    -1.247854  -0.584118  -1.556457
H    -2.929356  0.904474  -0.797981
H    -4.633424  -1.066687  0.191478
H    -2.358402  1.615159  2.105634
H    -3.490134  0.715932  3.010416
O    0.135469  1.262625  0.197230
H    -1.559041  0.865259  0.169821
Pb    4.255244  0.279743  0.416026
