27
Energy: -606651.499703 eV PBE+vdW (tier 2 basis)
N    0.397168  -0.962140  0.791166
C    0.295818  -0.119014  2.010087
C    1.113633  -0.837096  3.094902
O    1.068142  -2.065351  3.164958
H    -0.217429  -0.606065  0.054454
H    1.350024  -0.920475  0.412355
H    0.682931  0.891054  1.805539
C    -1.158676  -0.057755  2.552834
C    -2.315329  0.009478  1.529662
C    -3.313098  -1.135599  1.695212
N    -2.789659  -2.491876  1.286320
C    -2.809890  -2.769928  -0.142699
N    -1.627294  -2.967180  -0.645868
N    -3.992684  -2.812017  -0.763364
H    -1.214606  0.801934  3.232292
H    -1.312900  -0.938725  3.195539
H    -1.977517  0.065755  0.483717
H    -2.878741  0.940016  1.677664
H    -4.231915  -0.908972  1.133996
H    -3.600808  -1.231139  2.750066
H    -3.364892  -3.195649  1.763297
H    -1.583510  -3.205826  -1.639525
H    -4.064924  -3.037125  -1.751999
H    -4.867196  -2.657383  -0.272435
O    1.795806  -0.154467  3.989052
H    1.802830  0.808987  3.825718
Pb    -0.239935  -3.315786  1.346168
