27
Energy: -606652.084506 eV PBE+vdW (tier 2 basis)
N    -0.964019  0.442138  0.597283
C    -0.223641  0.512846  1.860087
C    1.213934  0.990593  1.718731
O    1.811763  0.970995  0.579855
H    -0.382259  0.016666  -0.128644
H    -4.086275  -2.112636  -0.719499
H    -0.706217  1.256179  2.514767
C    -0.237343  -0.863770  2.586361
C    -1.477521  -1.123494  3.462307
C    -2.849813  -0.821881  2.843192
N    -3.078884  -1.441222  1.538002
C    -3.813272  -2.524293  1.278098
N    -4.130906  -2.817765  0.005044
N    -4.237164  -3.336759  2.257639
H    0.643479  -0.955658  3.235675
H    -0.135359  -1.639841  1.812660
H    -1.406327  -0.522923  4.381528
H    -1.433362  -2.174723  3.785105
H    -2.977966  0.259472  2.695961
H    -3.650170  -1.118229  3.533668
H    -2.585693  -0.961090  0.775756
H    -4.527817  -3.715285  -0.244538
H    -4.973108  -4.013302  2.095008
H    -3.873896  -3.267579  3.198717
O    1.854990  1.414236  2.754885
H    -1.206474  1.374983  0.259085
Pb    3.724874  1.850691  1.523759
