27
Energy: -606650.68626 eV PBE+vdW (tier 2 basis)
N    0.393862  1.165811  0.816890
C    0.438712  -0.153992  1.528373
C    0.749709  -1.281983  0.510354
O    1.523853  -0.965457  -0.512423
H    -0.555922  1.338608  0.464035
H    0.583128  1.930365  1.472991
H    1.321309  -0.108812  2.188471
C    -0.819764  -0.421797  2.376044
C    -0.623938  -1.413027  3.560306
C    -1.559619  -2.625969  3.568732
N    -1.087953  -3.708527  2.636147
C    -2.169681  -4.692114  2.098979
N    -3.334332  -4.802559  2.552458
N    -1.610208  -5.457444  1.128582
H    -1.629097  -0.760110  1.711225
H    -1.152649  0.538621  2.792321
H    -0.809884  -0.875515  4.498594
H    0.421717  -1.750053  3.629163
H    -2.572278  -2.345912  3.252438
H    -1.627266  -3.058395  4.573121
H    -0.375802  -4.285971  3.103413
H    -3.589423  -4.279931  3.388252
H    -2.215175  -6.164274  0.719835
H    -0.862798  -5.112642  0.536735
O    0.332413  -2.420213  0.670444
H    -0.598997  -3.247971  1.826216
Pb    1.968046  1.054342  -1.118541
