27
Energy: -606650.272385 eV PBE+vdW (tier 2 basis)
N    -0.299254  -0.996038  -0.121629
C    -0.395407  -0.607764  1.262666
C    0.852212  0.064823  1.860242
O    0.786444  1.050167  2.600296
H    0.336740  -1.772339  -0.297692
H    -0.109870  -0.234535  -0.769570
H    -1.165511  0.177288  1.324277
C    -0.861383  -1.834857  2.092302
C    -0.637361  -1.894054  3.612686
C    -1.040682  -0.710894  4.508219
N    -2.374451  -0.129456  4.248500
C    -2.589881  1.096824  3.801974
N    -1.713102  1.967660  3.337529
N    -3.930603  1.654941  3.850014
H    -0.350485  -2.716651  1.679479
H    -1.923776  -1.978297  1.851350
H    0.428306  -2.059716  3.833829
H    -1.145594  -2.800456  3.970983
H    -0.320347  0.108616  4.437208
H    -1.049899  -1.043574  5.555531
H    -3.186054  -0.697703  4.489221
H    -0.728733  1.649376  3.102428
H    -4.497483  1.373442  3.041828
H    -4.452741  1.416655  4.699888
O    1.995718  -0.505017  1.507653
H    2.747768  -0.020696  1.909120
Pb    -2.807740  3.934023  3.415339
