27
Energy: -606651.892602 eV PBE+vdW (tier 2 basis)
N    -0.437465  1.899549  0.807431
C    -0.306494  1.003874  1.946952
C    0.894637  1.591777  2.679230
O    0.706916  2.389640  3.674663
H    0.059446  1.608122  -0.029282
H    -1.382475  2.206588  0.604181
H    -1.165661  1.173711  2.610948
C    -0.177012  -0.502101  1.648792
C    -1.491813  -1.076071  1.102641
C    -1.515559  -2.590514  0.882864
N    -0.706153  -2.997103  -0.276903
C    -0.408404  -4.266763  -0.594122
N    -0.874992  -5.278528  0.147009
N    0.385498  -4.525468  -1.644160
H    0.093676  -1.027156  2.579135
H    0.659028  -0.661099  0.949341
H    -1.780899  -0.567628  0.168412
H    -2.302625  -0.859668  1.814291
H    -2.560578  -2.906818  0.732336
H    -1.124877  -3.106319  1.773232
H    -0.564530  -2.301870  -1.003168
H    -1.634721  -5.147764  0.802738
H    0.897526  -3.790475  -2.115302
H    0.473378  -5.461668  -2.020985
O    2.099877  1.382390  2.268170
H    -0.548098  -6.226918  0.004408
Pb    2.914424  2.904680  3.777699
