27
Energy: -606649.925121 eV PBE+vdW (tier 2 basis)
N    -0.055621  0.687965  -0.166459
C    0.713607  0.421088  1.017150
C    2.057507  -0.311723  0.723916
O    2.175198  -1.191297  -0.091960
H    0.277138  1.474806  -0.719758
H    -0.188526  -0.128221  -0.765068
H    0.977084  1.380784  1.485082
C    -0.082303  -0.473875  2.000873
C    -1.432727  0.122860  2.421650
C    -1.380180  1.298337  3.404284
N    -0.931195  0.893037  4.756448
C    -1.621423  0.867655  5.885097
N    -1.226344  0.437443  7.070008
N    -2.981576  1.368132  5.953757
H    0.556803  -0.717715  2.865354
H    -0.272793  -1.435770  1.502549
H    -2.073162  -0.667177  2.841169
H    -1.938238  0.494740  1.517288
H    -2.368975  1.762891  3.493291
H    -0.690690  2.084085  3.064792
H    0.024922  0.539370  4.808700
H    -0.288354  0.043683  7.166010
H    -3.061556  2.340658  5.636966
H    -3.632324  0.809270  5.390310
O    3.039232  0.152574  1.526135
H    3.859928  -0.339405  1.313006
Pb    -2.972010  0.885193  8.488448
