27
Energy: -606651.202137 eV PBE+vdW (tier 2 basis)
N    1.071165  -1.056069  1.198402
C    0.376556  0.128050  1.845882
C    1.379451  0.710710  2.849132
O    2.415470  0.144865  3.151064
H    0.461996  -1.495358  0.495891
H    1.936598  -0.754481  0.730312
H    0.227220  0.877159  1.055390
C    -1.003886  -0.264324  2.418446
C    -1.082856  -1.578289  3.208988
C    -0.329624  -1.617842  4.559403
N    0.133369  -2.966253  4.891838
C    1.196443  -3.559639  4.327575
N    1.503568  -4.856320  4.482315
N    2.091043  -2.896617  3.513546
H    -1.707634  -0.326366  1.575992
H    -1.347431  0.587556  3.022013
H    -0.733744  -2.419107  2.588812
H    -2.145931  -1.791149  3.382985
H    -0.979131  -1.284853  5.376671
H    0.535472  -0.943999  4.577230
H    -0.447754  -3.527928  5.508463
H    0.866205  -5.492142  4.957803
H    1.351073  -1.778273  1.912846
H    2.291477  -1.927484  3.783209
O    0.956821  1.883561  3.303683
H    1.618769  2.264071  3.919616
Pb    3.583388  -4.704374  3.662463
