27
Energy: -606650.712249 eV PBE+vdW (tier 2 basis)
N    1.012311  -0.771854  0.160541
C    0.770996  -0.624524  1.617195
C    1.830865  -1.300012  2.473482
O    1.728345  -1.579281  3.628824
H    0.193691  -0.411198  -0.337222
H    1.789945  -0.173012  -0.131455
H    0.888480  0.438433  1.904697
C    -0.675359  -1.006895  2.013445
C    -1.098027  -2.467993  2.244725
C    -0.819270  -3.524552  1.158577
N    0.439190  -4.255064  1.418035
C    1.591443  -4.188327  0.773400
N    2.727467  -4.791359  1.096639
N    1.762413  -3.310416  -0.347727
H    -1.327683  -0.552019  1.251634
H    -0.905065  -0.468161  2.941882
H    -2.186053  -2.442732  2.394860
H    -0.690484  -2.827275  3.201355
H    -0.783020  -3.104860  0.146791
H    -1.615404  -4.279824  1.158986
H    0.426059  -4.840406  2.254283
H    2.744892  -5.439878  1.886041
H    1.337581  -2.293810  -0.217270
H    1.452430  -3.734672  -1.228234
O    3.098459  -1.490292  1.811974
H    3.717754  -1.554483  2.571748
Pb    4.167389  -3.331750  0.098391
