27
Energy: -606652.104924 eV PBE+vdW (tier 2 basis)
N    -0.694242  0.799674  0.062846
C    -1.114633  0.511673  1.503402
C    -0.064517  1.201396  2.402204
O    0.071167  2.448339  2.205849
H    -0.421626  1.793863  -0.020204
H    0.110305  0.220059  -0.220348
H    -2.022865  1.118288  1.638351
C    -1.431713  -0.967464  1.692599
C    -2.001751  -1.393948  3.074158
C    -2.859987  -0.394557  3.869274
N    -1.984405  0.537997  4.585714
C    -2.193626  1.813423  4.958789
N    -1.125068  2.564981  5.284375
N    -3.451639  2.296815  4.961938
H    -0.535340  -1.573027  1.492672
H    -2.171533  -1.233838  0.920919
H    -1.174781  -1.720692  3.719722
H    -2.607002  -2.292538  2.902621
H    -3.477924  -0.960003  4.582988
H    -3.550763  0.173245  3.226986
H    -1.066618  0.172444  4.815567
H    -1.380142  3.379390  5.845865
H    -3.620837  3.279022  5.145388
H    -4.249349  1.677720  5.059617
O    0.531518  0.569148  3.321954
H    -1.458224  0.611778  -0.602272
Pb    1.035230  2.671919  4.446747
