27
Energy: -606650.920188 eV PBE+vdW (tier 2 basis)
N    0.739015  -0.453152  1.104154
C    0.425155  -0.488293  2.514636
C    1.543861  -1.118698  3.326208
O    1.431287  -1.477353  4.523187
H    0.022694  0.057252  0.587799
H    1.635750  -0.013992  0.899857
H    0.357800  0.516273  3.001794
C    -0.942955  -1.168920  2.747743
C    -1.130005  -2.533001  2.040551
C    -1.702403  -3.661505  2.908486
N    -0.694543  -4.191440  3.852128
C    -0.472332  -3.852189  5.112279
N    0.545256  -4.209712  5.886832
N    -1.297238  -2.906071  5.784802
H    -1.709506  -0.465477  2.397020
H    -1.094337  -1.228410  3.833649
H    -0.181555  -2.863447  1.590794
H    -1.810013  -2.414546  1.187110
H    -2.011598  -4.506101  2.280120
H    -2.598054  -3.357318  3.467884
H    0.016953  -4.784881  3.426676
H    1.165977  -4.946812  5.547987
H    -1.782950  -3.334871  6.578705
H    -1.965701  -2.397177  5.205267
O    2.690137  -1.194162  2.692444
H    3.410403  -1.512269  3.276147
Pb    1.009263  -2.108297  6.744931
