27
Energy: -606650.459907 eV PBE+vdW (tier 2 basis)
N    0.757021  -0.189576  0.354914
C    -0.146894  0.010187  1.453629
C    0.482269  0.231599  2.846967
O    -0.178777  0.308524  3.890388
H    1.319037  -1.037167  0.408662
H    1.344897  0.609174  0.127911
H    -0.669363  0.965534  1.262033
C    -1.197635  -1.140209  1.536088
C    -2.670896  -0.729419  1.385703
C    -3.201054  0.326915  2.370553
N    -2.811314  0.046712  3.761534
C    -3.562762  -0.214305  4.794912
N    -3.160524  -0.443055  6.046405
N    -5.018205  -0.285609  4.725036
H    -1.058546  -1.715359  2.462443
H    -0.972199  -1.831598  0.715113
H    -3.286866  -1.637417  1.464405
H    -2.845946  -0.326433  0.377053
H    -4.290971  0.414577  2.284287
H    -2.785294  1.319210  2.139843
H    -1.746763  0.111885  3.900324
H    -2.156777  -0.415088  6.238994
H    -5.342656  -1.023853  4.090458
H    -5.435309  0.594167  4.400692
O    1.797403  0.357540  2.829325
H    2.126751  0.524644  3.737625
Pb    -5.046158  -0.762283  7.232209
