27
Energy: -606649.484918 eV PBE+vdW (tier 2 basis)
N    0.852265  -0.203858  0.071055
C    0.084055  0.036337  1.325117
C    1.052815  0.500100  2.413995
O    2.266921  0.226383  2.376364
H    0.378450  -0.923163  -0.485446
H    0.858189  0.639428  -0.512642
H    -0.662425  0.829741  1.155376
C    -0.616598  -1.261931  1.807235
C    -1.786762  -1.742067  0.932286
C    -3.107878  -0.990169  1.155032
N    -4.139980  -1.544513  0.311145
C    -5.233061  -0.891476  -0.214070
N    -5.837190  -1.516090  -1.185320
N    -5.536160  0.341187  0.309626
H    -0.967786  -1.112436  2.839404
H    0.148978  -2.052033  1.871051
H    -1.943580  -2.805393  1.167251
H    -1.534994  -1.712960  -0.141430
H    -3.009112  0.082591  0.913401
H    -3.380545  -1.055991  2.226131
H    -4.054169  -2.495953  -0.037184
H    -6.649032  -1.011560  -1.553746
H    -6.353131  0.804044  -0.075168
H    -5.400676  0.510768  1.301700
O    0.617065  1.155338  3.459953
H    -0.335239  1.373442  3.426667
Pb    3.285040  -0.797962  0.576079
