27
Energy: -606650.345378 eV PBE+vdW (tier 2 basis)
N    0.597427  0.482697  0.105890
C    0.522677  -0.165922  1.389398
C    1.886071  -0.186964  2.077935
O    2.067335  -0.546323  3.247865
H    -0.295146  0.546977  -0.377482
H    1.086500  1.373847  0.085576
H    -0.133588  0.357071  2.122406
C    -0.076811  -1.588497  1.178285
C    -0.509444  -2.358761  2.438094
C    0.599933  -3.274629  2.976959
N    0.406191  -3.726772  4.377634
C    0.510364  -2.989095  5.468958
N    0.452358  -3.396702  6.732457
N    0.767824  -1.576670  5.401229
H    0.613554  -2.179075  0.558572
H    -0.967735  -1.432213  0.555455
H    -1.390954  -2.970965  2.208240
H    -0.838101  -1.641804  3.205480
H    1.584370  -2.797081  2.918410
H    0.657128  -4.191610  2.379823
H    0.269791  -4.727403  4.516787
H    0.226120  -4.372244  6.934748
H    -0.122606  -1.064655  5.405513
H    1.295376  -1.228476  4.546769
O    2.879757  0.239516  1.315231
H    3.715614  0.222258  1.826848
Pb    1.476265  -1.684367  7.821040
