27
Energy: -606652.141638 eV PBE+vdW (tier 2 basis)
N    0.613581  -0.364475  -0.163857
C    -0.007621  0.243294  1.089839
C    1.151776  0.949664  1.813993
O    0.973838  2.078051  2.360154
H    -0.012835  -1.050251  -0.608713
H    0.850608  0.350639  -0.867104
H    -0.777707  0.951446  0.762376
C    -0.565265  -0.908183  1.969597
C    -1.796831  -0.654140  2.858681
C    -1.803036  0.530613  3.851418
N    -0.514252  0.930088  4.415361
C    0.362089  0.229655  5.155136
N    1.638807  0.655118  5.206677
N    -0.059202  -0.880034  5.794488
H    0.265296  -1.307823  2.568418
H    -0.861355  -1.729142  1.296386
H    -1.945925  -1.594652  3.406344
H    -2.691993  -0.538040  2.231306
H    -2.531734  0.321420  4.648694
H    -2.174381  1.434105  3.353900
H    -0.166024  1.820232  4.080982
H    2.149208  0.265850  6.001221
H    0.593805  -1.439666  6.330419
H    -1.041026  -1.006179  6.016763
O    2.235224  0.293859  1.899283
H    1.493950  -0.837056  0.110376
Pb    2.987452  1.789905  3.708317
