27
Energy: -606651.731656 eV PBE+vdW (tier 2 basis)
N    1.089695  -1.862798  0.433309
C    0.535883  -0.824826  1.338005
C    1.697932  -0.164311  2.070031
O    2.788289  -0.730170  2.254309
H    0.360210  -2.544941  0.205000
H    1.376334  -1.449799  -0.461141
H    0.027289  -0.039079  0.754443
C    -0.518477  -1.495584  2.281519
C    -0.825219  -0.889543  3.658731
C    0.139375  -1.264269  4.835677
N    1.300822  -2.067819  4.455334
C    1.335448  -3.384925  4.164423
N    2.304059  -3.831125  3.343551
N    0.390100  -4.195950  4.670212
H    -0.215767  -2.545272  2.402764
H    -1.451767  -1.515929  1.702834
H    -1.833153  -1.230336  3.925942
H    -0.915562  0.204377  3.599710
H    -0.429167  -1.772969  5.623720
H    0.538860  -0.360845  5.307859
H    2.178643  -1.581372  4.314295
H    2.478374  -4.833724  3.443228
H    0.348889  -5.171816  4.398949
H    -0.130624  -3.937869  5.502355
O    1.550509  1.039544  2.574273
H    0.703055  1.462826  2.330883
Pb    3.243613  -2.915229  1.450786
