27
Energy: -606648.707022 eV PBE+vdW (tier 2 basis)
N    -0.704852  0.691401  0.784806
C    -0.120803  -0.113257  1.849257
C    1.355187  0.231118  1.635511
O    1.894927  1.188174  2.251298
H    -1.126416  0.161213  0.026272
H    -1.319832  1.435423  1.100088
H    -0.390732  0.293430  2.833204
C    -0.467971  -1.605517  1.793328
C    0.119146  -2.459535  2.925246
C    -0.460120  -3.891352  2.909978
N    -0.003437  -4.727773  4.003908
C    -0.557137  -4.734851  5.258367
N    -1.539365  -3.963733  5.677821
N    -0.025552  -5.585279  6.175283
H    -0.197549  -2.028690  0.805985
H    -1.567897  -1.651246  1.823709
H    -0.108921  -1.993994  3.896477
H    1.217317  -2.516453  2.856495
H    -0.189790  -4.402630  1.975902
H    -1.560189  -3.850161  2.923694
H    0.796374  -5.326955  3.828027
H    -1.957244  -3.409120  4.925707
H    -0.483506  -5.612684  7.080299
H    0.585764  -6.354779  5.930580
O    2.089899  -0.379963  0.724818
H    1.602062  -1.109117  0.289412
Pb    3.779528  2.406536  1.899342
