27
Energy: -606650.93949 eV PBE+vdW (tier 2 basis)
N    0.579895  0.062374  0.319398
C    0.120258  -0.107877  1.723602
C    1.371614  -0.016877  2.597878
O    2.109474  0.978686  2.477807
H    1.196345  -0.692291  0.000583
H    -0.220491  0.070574  -0.318815
H    -0.331272  0.857177  1.934836
C    -1.000327  -1.093004  2.092633
C    -1.779764  -0.568735  3.328488
C    -2.749407  0.633228  3.133244
N    -2.247487  1.779004  2.339227
C    -1.145737  2.524341  2.589497
N    -0.466470  3.182699  1.616644
N    -0.608837  2.502321  3.822326
H    -0.634210  -2.116596  2.274799
H    -1.677715  -1.189509  1.229969
H    -1.071821  -0.348719  4.142852
H    -2.408038  -1.382460  3.716345
H    -3.092939  0.980234  4.118958
H    -3.651748  0.300860  2.607072
H    -2.609462  1.847653  1.393805
H    -1.076333  3.430029  0.830864
H    0.080085  3.213422  4.045591
H    -1.127861  2.125418  4.608593
O    1.681047  -0.915196  3.496281
H    1.076360  -1.684697  3.490302
Pb    1.606312  2.478257  0.697002
