27
Energy: -606651.817161 eV PBE+vdW (tier 2 basis)
N    1.175456  1.038246  1.411787
C    0.510067  0.188784  2.372393
C    1.565678  -0.709013  3.016962
O    2.728015  -0.768942  2.585258
H    -4.648271  -1.824843  -1.090611
H    0.593542  1.805268  1.078686
H    0.063538  0.790313  3.190627
C    -0.618594  -0.707267  1.757714
C    -1.759820  0.116157  1.143722
C    -2.823187  -0.697511  0.395092
N    -3.738433  -1.413810  1.295755
C    -4.945290  -1.889400  0.946195
N    -5.319146  -1.913971  -0.337996
N    -5.786544  -2.331276  1.892171
H    -1.002802  -1.381803  2.541899
H    -0.161490  -1.346896  0.987413
H    -1.339734  0.804963  0.397084
H    -2.246085  0.745693  1.905667
H    -2.331517  -1.409671  -0.288950
H    -3.426618  -0.006442  -0.210238
H    -3.419986  -1.631548  2.233386
H    -6.279187  -2.108063  -0.599201
H    -5.665262  -2.086495  2.867267
H    -6.613988  -2.865233  1.652511
O    1.268107  -1.473340  4.049364
H    0.362847  -1.322971  4.380007
Pb    3.284023  0.839038  0.971215
