27
Energy: -606650.685926 eV PBE+vdW (tier 2 basis)
N    -0.789230  -0.251293  -0.270742
C    -0.258395  -0.126098  1.095903
C    1.257640  -0.030680  1.178991
O    1.999697  -0.312576  0.168988
H    -0.524509  -1.155156  -0.674163
H    -2.604903  -0.036687  -0.456864
H    -0.629380  0.820546  1.521039
C    -0.716671  -1.296755  2.014499
C    -2.190541  -1.684408  1.849734
C    -3.205001  -0.556249  2.120015
N    -4.485101  -0.755764  1.433594
C    -4.629661  -0.750243  0.076916
N    -5.442432  -1.268261  -0.739901
N    -3.649946  0.175322  -0.614572
H    -0.495074  -1.013969  3.052339
H    -0.105543  -2.185737  1.795216
H    -2.394326  -2.530114  2.521244
H    -2.355456  -2.079585  0.836222
H    -2.803627  0.427351  1.831555
H    -3.424568  -0.468106  3.190449
H    -5.168391  -1.331340  1.918970
H    -6.123227  -1.917051  -0.336562
H    -3.881978  0.068807  -1.612930
H    -3.828790  1.153505  -0.348099
O    1.807284  0.325145  2.287991
H    -0.365755  0.452305  -0.881605
Pb    3.910499  0.110838  1.411970
