27
Energy: -606650.280641 eV PBE+vdW (tier 2 basis)
N    1.376142  -0.387352  0.706982
C    0.102771  -0.334891  1.413145
C    0.340069  -0.626382  2.898394
O    0.459788  -1.749358  3.399794
H    1.920717  0.470288  0.769919
H    1.965504  -1.189863  0.917326
H    -0.257450  0.699437  1.348937
C    -0.965473  -1.225303  0.751590
C    -0.667567  -2.742383  0.692751
C    -1.582395  -3.548820  1.620561
N    -1.129715  -4.973957  1.773277
C    -0.252994  -5.330084  2.861253
N    -0.341284  -6.633653  3.118306
N    0.446405  -4.421474  3.496553
H    -1.072795  -0.842164  -0.270184
H    -1.931977  -1.043052  1.246690
H    0.386257  -2.938425  0.939284
H    -0.806891  -3.103338  -0.336779
H    -2.602248  -3.581696  1.215639
H    -1.647300  -3.114790  2.625665
H    -0.683101  -5.273753  0.896553
H    0.303900  -7.047246  3.793997
H    0.444733  -3.392710  3.265651
H    0.965629  -4.683309  4.332858
O    0.485058  0.486065  3.608033
H    0.720112  0.263733  4.533585
Pb    -2.384437  -7.159537  2.314202
