27
Energy: -606650.545029 eV PBE+vdW (tier 2 basis)
N    -0.678219  0.945095  0.389421
C    0.132516  0.142017  1.313499
C    1.422772  -0.243590  0.537445
O    2.375564  -0.870298  1.023947
H    -0.807497  1.908143  0.694419
H    -1.593350  0.543390  0.189606
H    0.467527  0.763865  2.159206
C    -0.665108  -1.061020  1.874371
C    0.030550  -1.929614  2.947269
C    0.811057  -3.102627  2.353821
N    1.788708  -3.713172  3.317318
C    2.850909  -2.885486  3.872773
N    3.193441  -3.351360  5.076411
N    3.306779  -1.850428  3.225042
H    -1.007898  -1.695266  1.040913
H    -1.572282  -0.635952  2.323804
H    -0.741324  -2.319321  3.629294
H    0.687509  -1.286594  3.552891
H    1.365088  -2.806447  1.453694
H    0.133354  -3.916400  2.065219
H    2.243558  -4.503665  2.840488
H    3.994470  -2.937166  5.557248
H    4.025982  -1.272299  3.659719
H    2.877402  -1.466707  2.300662
O    1.433867  0.161121  -0.696996
H    0.539428  0.664323  -0.768480
Pb    1.437132  -4.615577  5.652868
