#p hf/6-31g* force 

Gaussian input prepared by ASE

0 1
C                 0.7608000000        0.9031000000       -0.0637000000
C                -0.2241000000        0.7139000000        1.0841000000
C                 1.0511000000       -0.4206000000       -0.7631000000
H                 1.7092000000        1.3273000000        0.3309000000
H                 0.3322000000        1.6189000000       -0.7974000000
H                -1.4030000000        0.2049000000        0.6103000000
H                -0.4263000000        1.6933000000        1.5668000000
H                 0.1966000000        0.0218000000        1.8444000000
H                 0.1161000000       -0.8487000000       -1.1831000000
H                 1.7687000000       -0.2521000000       -1.5935000000
H                 1.4982000000       -1.1446000000       -0.0489000000
O                -3.0261644861       -1.6048571266        0.1045637327
O                -2.1659000000       -0.6457000000        0.3726000000
H                -3.8982254387       -1.2484001201        0.4097126593



