#p m062x/6-311+g(2df,2p) force opt=(ts) 

Gaussian input prepared by ASE

0 1
C                -0.4262000000        0.4325000000       -0.6026000000
C                 0.6171000000        0.4431000000        0.4813000000
C                -1.7695000000       -0.0473000000       -0.0681000000
C                 1.6534000000       -0.6322000000        0.1812000000
H                -0.5745000000        1.4506000000       -1.0410000000
H                -0.1061000000       -0.2467000000       -1.4172000000
H                 1.0817000000        1.4524000000        0.5509000000
H                 0.1920000000        0.2443000000        1.4963000000
H                -1.7125000000       -0.3234000000        0.9948000000
H                -2.5313000000        0.7573000000       -0.1640000000
H                -2.1341000000       -0.8831000000       -0.6968000000
H                 1.5692000000       -1.4898000000        0.8921000000
H                 2.6437000000       -0.1513000000        0.2556000000
H                 1.4973000000       -1.0065000000       -0.8627000000



