32
Energy: -241840.661894 eV PBE+vdW (tier 2 basis)
C    -0.104125  0.358198  -0.304570
C    -0.307885  0.513456  1.166370
O    0.537302  1.138370  1.879338
H    0.867583  -0.117409  -0.491721
H    -0.064750  1.356672  -0.762406
H    -0.891209  -0.225996  -0.792280
N    -1.406185  -0.012506  1.726659
C    -1.793726  0.205268  3.126161
C    -0.888677  -0.620907  4.065613
O    0.046995  -0.001256  4.671976
H    -2.082118  -0.458995  1.111433
H    -1.523134  1.244638  3.364903
C    -3.321217  0.090277  3.332685
C    -4.078095  1.111843  2.446589
C    -3.660480  0.241912  4.821515
C    -3.709986  2.584769  2.633064
H    -3.648745  -0.909236  3.007664
H    -5.147432  0.973375  2.660747
H    -3.969071  0.841469  1.383934
H    -3.218012  -0.550685  5.440230
H    -4.746319  0.192077  4.963836
H    -3.322722  1.205799  5.225642
H    -4.364374  3.214278  2.018493
H    -2.679492  2.810072  2.315963
H    -3.830707  2.918976  3.671643
N    -1.017350  -1.928619  4.239411
C    -1.984128  -2.870486  3.669702
H    -0.353420  -2.318708  4.908568
H    -1.548547  -3.872655  3.725259
H    -2.182586  -2.645890  2.618020
H    -2.923350  -2.865603  4.236874
Ba    1.700691  1.645928  3.952890
