32
Energy: -241839.57782 eV PBE+vdW (tier 2 basis)
C    -2.103264  -1.270848  -1.063198
C    -2.429902  -0.207469  -0.070591
O    -2.448425  1.041358  -0.479181
H    -1.038223  -1.206136  -1.329740
H    -2.681486  -1.107285  -1.981153
H    -2.301896  -2.277916  -0.686433
N    -2.697875  -0.447274  1.180614
C    -2.786891  -1.697730  1.941080
C    -3.590044  -1.216071  3.192211
O    -3.707046  0.009485  3.370757
H    -2.991326  0.314602  1.850989
H    -3.376637  -2.435095  1.376521
C    -1.381864  -2.291207  2.269254
C    -1.488638  -3.740027  2.787914
C    -0.574299  -1.380329  3.198763
C    -0.172162  -4.516577  2.701407
H    -0.860000  -2.344606  1.297434
H    -2.254760  -4.280173  2.205485
H    -1.828102  -3.733469  3.835930
H    -0.481993  -0.358771  2.805219
H    0.442099  -1.768413  3.327486
H    -1.031853  -1.313828  4.195435
H    -0.313789  -5.548602  3.043615
H    0.611635  -4.073286  3.327946
H    0.201052  -4.559274  1.668824
N    -4.096289  -2.155494  3.993613
C    -4.834567  -1.866618  5.221585
H    -3.944460  -3.128861  3.749466
H    -5.834014  -2.314631  5.173093
H    -4.925389  -0.782748  5.326113
H    -4.300354  -2.271956  6.089533
Ba    -2.550349  3.214569  -1.122249
