32
Energy: -241840.513562 eV PBE+vdW (tier 2 basis)
C    0.982920  1.545140  1.068889
C    0.211768  0.537654  1.856455
O    0.243609  0.540916  3.127100
H    2.044421  1.490796  1.344214
H    0.632715  2.550499  1.341783
H    0.884474  1.415387  -0.013719
N    -0.523611  -0.367872  1.199155
C    -1.438105  -1.310116  1.851344
C    -0.654248  -2.425336  2.576650
O    -0.523067  -2.322851  3.841481
H    -0.564494  -0.310642  0.183494
H    -1.891514  -0.755595  2.684977
C    -2.618862  -1.790427  0.930718
C    -2.456112  -1.444523  -0.564820
C    -3.933004  -1.239192  1.502722
C    -3.430563  -2.202050  -1.471954
H    -2.659951  -2.887533  1.012264
H    -1.436224  -1.681753  -0.915898
H    -2.598497  -0.359944  -0.708589
H    -4.079300  -1.551720  2.545810
H    -4.795337  -1.607613  0.936665
H    -3.953430  -0.140268  1.460772
H    -3.242118  -1.956237  -2.523431
H    -4.475294  -1.946054  -1.261005
H    -3.320153  -3.289521  -1.359174
N    -0.115212  -3.463608  1.952613
C    -0.086126  -3.797518  0.527184
H    0.333191  -4.130451  2.580816
H    0.730648  -4.506944  0.365513
H    0.109714  -2.909245  -0.079881
H    -1.024771  -4.265574  0.205926
Ba    0.085063  -0.477380  5.323649
