32
Energy: -241840.604459 eV PBE+vdW (tier 2 basis)
C    0.937948  -0.302012  0.328622
C    0.693810  -0.434338  1.801054
O    1.633437  -0.797896  2.561568
H    0.057384  0.011863  -0.241239
H    1.290937  -1.267158  -0.059315
H    1.746590  0.422840  0.164509
N    -0.543333  -0.155717  2.243834
C    -1.195499  -0.192381  3.574658
C    -0.492086  0.655273  4.639230
O    0.688855  0.410723  5.029577
H    -1.187196  0.102605  1.502025
H    -2.144783  0.312840  3.364209
C    -1.662797  -1.589795  4.125510
C    -0.663282  -2.491831  4.885483
C    -2.427910  -2.346737  3.032943
C    0.278213  -3.389313  4.071542
H    -2.400905  -1.291335  4.889811
H    -1.275453  -3.155558  5.513840
H    -0.118327  -1.879884  5.627669
H    -2.870624  -3.261686  3.445786
H    -1.781704  -2.640338  2.195611
H    -3.252332  -1.745049  2.627427
H    0.857414  -2.856621  3.300499
H    -0.276244  -4.161954  3.524917
H    0.961278  -3.944921  4.734625
N    -1.178664  1.639020  5.213174
C    -2.541338  2.108923  4.935839
H    -0.669450  2.122385  5.952806
H    -2.743120  2.955829  5.597468
H    -3.284946  1.330437  5.146281
H    -2.639749  2.458814  3.901048
Ba    2.610801  -1.075646  4.748342
