32
Energy: -241840.731372 eV PBE+vdW (tier 2 basis)
C    0.242295  0.071650  0.017250
C    -0.161894  -0.029893  1.451895
O    0.712701  -0.038129  2.373437
H    0.767449  1.025852  -0.132120
H    -0.602642  0.019752  -0.677082
H    0.956506  -0.726962  -0.221229
N    -1.466105  -0.097728  1.748367
C    -2.033318  -0.040246  3.107651
C    -1.843862  -1.409610  3.795286
O    -0.796116  -1.602777  4.491937
H    -2.123874  -0.074357  0.972311
H    -1.389224  0.641114  3.683974
C    -3.439967  0.617809  3.068292
C    -3.873705  1.132731  4.459961
C    -4.549305  -0.176487  2.356889
C    -4.091207  0.094086  5.563216
H    -3.262460  1.522205  2.461711
H    -4.806097  1.695845  4.309756
H    -3.137708  1.878733  4.799493
H    -5.360361  0.507636  2.079406
H    -5.019078  -0.935219  3.000135
H    -4.229033  -0.662327  1.421639
H    -4.489529  0.584019  6.459706
H    -3.160951  -0.407163  5.869429
H    -4.816066  -0.680918  5.280331
N    -2.733465  -2.368778  3.619796
C    -2.642622  -3.697385  4.227478
H    -3.568789  -2.139641  3.086983
H    -2.592614  -3.612894  5.319844
H    -1.752640  -4.226070  3.866146
H    -3.533104  -4.266426  3.949102
Ba    1.531785  -0.869423  4.494009
