32
Energy: -241840.21764 eV PBE+vdW (tier 2 basis)
C    -1.270989  1.808972  0.290991
C    -0.671206  0.924241  1.334900
O    0.178410  1.374324  2.165486
H    -2.140227  2.347830  0.700664
H    -1.595224  1.256033  -0.596682
H    -0.529515  2.564044  0.006322
N    -1.048488  -0.368311  1.425356
C    -2.432105  -0.823094  1.293853
C    -3.240726  -0.125001  2.416537
O    -2.645176  0.398548  3.415701
H    -0.481185  -0.927304  2.063599
H    -2.831917  -0.495508  0.322451
C    -2.465080  -2.381472  1.338601
C    -1.570112  -2.963308  0.216170
C    -3.886383  -2.956743  1.292100
C    -1.991097  -2.633852  -1.216316
H    -2.018584  -2.677584  2.306095
H    -1.567916  -4.053848  0.357320
H    -0.526190  -2.650090  0.369911
H    -3.830448  -4.047382  1.192246
H    -4.458305  -2.594525  0.425099
H    -4.460017  -2.756978  2.205290
H    -1.317677  -3.129156  -1.925802
H    -1.937759  -1.557480  -1.440405
H    -3.006932  -2.978750  -1.446621
N    -4.556037  -0.071460  2.300906
C    -5.459116  0.506378  3.299130
H    -4.975248  -0.507381  1.483431
H    -6.488290  0.316975  2.983861
H    -5.305252  1.589687  3.375743
H    -5.291969  0.044299  4.278824
Ba    -0.688067  1.477883  4.472941
