32
Energy: -241839.415118 eV PBE+vdW (tier 2 basis)
C    0.043140  1.307010  0.655951
C    -0.458116  1.200633  2.055895
O    0.332095  1.589546  3.031304
H    0.436459  2.317075  0.483098
H    -0.726199  1.088482  -0.089315
H    0.874790  0.602305  0.512434
N    -1.637166  0.745253  2.367341
C    -2.738970  0.229156  1.543916
C    -3.923788  0.355757  2.550930
O    -3.628679  0.392280  3.760834
H    -1.981240  0.703684  3.362167
H    -2.880331  0.871524  0.664725
C    -2.445194  -1.239995  1.086016
C    -3.409350  -1.704536  -0.019979
C    -2.378123  -2.216643  2.264195
C    -2.943154  -2.972426  -0.739996
H    -1.441157  -1.187189  0.627323
H    -3.522795  -0.899365  -0.763665
H    -4.406699  -1.879281  0.410641
H    -3.362700  -2.357885  2.729981
H    -2.030069  -3.197199  1.921742
H    -1.685158  -1.884474  3.048990
H    -3.622789  -3.211298  -1.566689
H    -2.924020  -3.845518  -0.076466
H    -1.937736  -2.847176  -1.166109
N    -5.191206  0.403638  2.123840
C    -5.737747  0.570345  0.780522
H    -5.861387  0.429541  2.891188
H    -6.472381  1.384032  0.793950
H    -6.232449  -0.345623  0.435027
H    -4.952243  0.833069  0.067547
Ba    1.626790  2.263459  4.768667
