32
Energy: -241840.273612 eV PBE+vdW (tier 2 basis)
C    -0.889373  0.794268  5.942247
C    -2.305142  0.318017  5.954139
O    -2.897630  0.052188  7.045762
H    -0.854644  1.890466  6.045913
H    -0.358110  0.519390  5.024850
H    -0.372143  0.370981  6.810357
N    -2.992321  0.187638  4.798434
C    -2.906612  1.134125  3.690470
C    -3.384090  2.518338  4.204551
O    -3.974438  2.631473  5.324959
H    -3.891360  -0.283226  4.893030
H    -1.853121  1.224445  3.385527
C    -3.725423  0.650285  2.455037
C    -5.260064  0.796751  2.591537
C    -3.274486  -0.751924  2.028613
C    -5.978004  -0.011027  3.679785
H    -3.436852  1.337520  1.642833
H    -5.682392  0.500881  1.620753
H    -5.520766  1.861178  2.701802
H    -3.525862  -1.527442  2.763955
H    -2.189915  -0.794057  1.864317
H    -3.762696  -1.026691  1.085733
H    -7.064193  0.030455  3.533859
H    -5.798399  0.398116  4.693738
H    -5.701012  -1.074469  3.682178
N    -3.161636  3.568794  3.432809
C    -3.590413  4.935456  3.743526
H    -2.679762  3.417191  2.550250
H    -3.235903  5.597417  2.949522
H    -3.162659  5.261284  4.698649
H    -4.684337  4.991448  3.796578
Ba    -4.728792  1.650794  7.475516
