32
Energy: -241840.813349 eV PBE+vdW (tier 2 basis)
C    -0.478770  0.496430  -0.228371
C    -0.736153  0.428787  1.241554
O    -0.704240  1.479615  1.955369
H    -0.489513  -0.483382  -0.716885
H    0.488200  0.982056  -0.412205
H    -1.248595  1.132117  -0.688767
N    -1.013984  -0.760229  1.790283
C    -1.440320  -0.975430  3.182826
C    -0.195322  -0.908037  4.095938
O    0.148331  0.213436  4.585842
H    -1.046076  -1.564245  1.167840
H    -2.053865  -0.105813  3.466776
C    -2.320745  -2.238631  3.326106
C    -3.519471  -2.185506  2.351476
C    -2.782209  -2.383542  4.783393
C    -4.391795  -3.442483  2.365753
H    -1.715175  -3.125835  3.050907
H    -3.164791  -2.025671  1.321103
H    -4.131795  -1.301910  2.599010
H    -1.954977  -2.369732  5.504846
H    -3.310279  -3.331934  4.925644
H    -3.480897  -1.578017  5.051411
H    -5.160873  -3.375521  1.587439
H    -4.911346  -3.579657  3.321308
H    -3.800626  -4.347167  2.166754
N    0.496320  -2.013828  4.310336
C    1.704388  -2.124955  5.126917
H    0.128571  -2.872481  3.905779
H    1.583598  -2.948435  5.839820
H    1.858446  -1.191048  5.671587
H    2.573145  -2.330409  4.488938
Ba    -0.048182  2.581456  4.006277
