32
Energy: -241839.657648 eV PBE+vdW (tier 2 basis)
C    0.071501  -0.393882  0.729729
C    -0.253384  -0.103741  2.156385
O    0.670024  0.107493  3.002766
H    0.974903  -1.007773  0.650331
H    0.300942  0.572443  0.250688
H    -0.753734  -0.842985  0.169804
N    -1.536439  -0.055383  2.571993
C    -2.593812  -1.001462  2.160087
C    -1.958342  -2.420972  2.319272
O    -1.085526  -2.549442  3.253745
H    -1.654486  0.356878  3.494855
H    -3.307967  -0.970078  3.000922
C    -3.419428  -0.591693  0.902289
C    -3.421563  0.940116  0.673970
C    -4.853100  -1.129489  1.032188
C    -4.078196  1.806395  1.751273
H    -2.941729  -1.021211  0.008341
H    -3.946450  1.102689  -0.278877
H    -2.392788  1.285742  0.498253
H    -5.401793  -0.989038  0.093224
H    -5.398408  -0.589665  1.816918
H    -4.906850  -2.194244  1.286665
H    -3.983760  2.865490  1.483166
H    -3.616974  1.692905  2.744071
H    -5.149794  1.601517  1.859885
N    -2.250422  -3.509269  1.620951
C    -3.086548  -3.813046  0.453370
H    -1.769765  -4.326182  2.000734
H    -2.562035  -4.575904  -0.132098
H    -3.242440  -2.936882  -0.172710
H    -4.053584  -4.221238  0.771893
Ba    0.805657  -1.756025  4.619551
