32
Energy: -241840.490063 eV PBE+vdW (tier 2 basis)
C    0.178102  -1.613971  0.482761
C    -0.098997  -1.135900  1.869075
O    0.844809  -0.762907  2.634443
H    0.665549  -0.806115  -0.080860
H    -0.722396  -1.929151  -0.054219
H    0.888521  -2.450444  0.520488
N    -1.366633  -1.095790  2.304279
C    -1.738429  -0.515936  3.597074
C    -1.229169  -1.387436  4.770643
O    -0.298554  -0.883630  5.487322
H    -2.110171  -1.350940  1.658151
H    -1.122515  0.388369  3.710167
C    -3.199145  0.018122  3.638261
C    -3.452030  0.654979  5.020930
C    -4.317150  -0.941570  3.219850
C    -4.742753  1.471185  5.106792
H    -3.179427  0.837042  2.897580
H    -2.600046  1.308276  5.273314
H    -3.467780  -0.138625  5.787899
H    -4.099875  -1.516325  2.306380
H    -5.218426  -0.361557  2.991259
H    -4.584626  -1.646819  4.015041
H    -4.812950  1.968979  6.081002
H    -5.637994  0.846975  4.998832
H    -4.776715  2.251105  4.333716
N    -1.653820  -2.611384  5.050130
C    -2.604111  -3.491838  4.372615
H    -1.213523  -3.003826  5.883429
H    -2.165752  -4.495029  4.319441
H    -2.808151  -3.143662  3.360230
H    -3.544249  -3.549472  4.934076
Ba    1.896670  -0.117021  4.741168
