32
Energy: -241839.592209 eV PBE+vdW (tier 2 basis)
C    -0.152768  -0.545767  -0.192581
C    -0.111722  0.029689  1.182197
O    1.061458  0.289878  1.714445
H    0.239120  -1.572954  -0.170637
H    0.498529  0.039131  -0.854431
H    -1.162594  -0.571191  -0.611270
N    -1.175981  0.290268  1.885100
C    -2.603786  0.149056  1.585187
C    -3.222075  1.093246  2.661968
O    -2.490534  1.472302  3.593667
H    -1.127285  0.762985  2.827498
H    -2.809297  0.538823  0.578755
C    -3.077082  -1.335007  1.690403
C    -4.479617  -1.563950  1.094523
C    -2.979010  -1.872879  3.120897
C    -4.672602  -1.117411  -0.355827
H    -2.372766  -1.902614  1.056890
H    -5.243591  -1.113208  1.747871
H    -4.666501  -2.645886  1.160114
H    -1.972147  -1.760462  3.545726
H    -3.223731  -2.941709  3.137280
H    -3.682286  -1.364251  3.794351
H    -5.649679  -1.443606  -0.731632
H    -3.911909  -1.555203  -1.018663
H    -4.638574  -0.024890  -0.489630
N    -4.505907  1.429495  2.514093
C    -5.240907  2.269702  3.457603
H    -5.006835  1.073889  1.706419
H    -5.657840  3.140581  2.938402
H    -4.550336  2.604788  4.235344
H    -6.057470  1.700095  3.918007
Ba    3.048299  0.810132  2.677083
