32
Energy: -241839.641244 eV PBE+vdW (tier 2 basis)
C    0.269433  1.089019  0.762962
C    -0.257613  0.143268  1.792181
O    0.538497  -0.288284  2.723921
H    0.681486  1.982741  1.250543
H    -0.497103  1.396962  0.045198
H    1.091293  0.604072  0.217732
N    -1.511218  -0.231677  1.733602
C    -2.259086  -1.235989  2.497450
C    -3.287052  -1.715038  1.416244
O    -3.614289  -0.896612  0.551209
H    -2.124386  0.078488  0.947415
H    -1.585792  -2.053854  2.794155
C    -2.981670  -0.604198  3.727819
C    -2.003494  -0.100268  4.816432
C    -4.053399  -1.527139  4.323372
C    -1.294505  -1.195144  5.624322
H    -3.493771  0.289981  3.338858
H    -2.582525  0.514103  5.520833
H    -1.282788  0.600393  4.359476
H    -4.468036  -1.081035  5.236667
H    -3.664453  -2.520839  4.590084
H    -4.889795  -1.671158  3.631307
H    -0.640795  -0.770975  6.411972
H    -0.734761  -1.914225  4.991690
H    -2.002386  -1.819478  6.184038
N    -3.729480  -2.977089  1.493995
C    -4.733275  -3.528696  0.583486
H    -3.407720  -3.562869  2.256520
H    -4.414419  -4.519068  0.241008
H    -4.828890  -2.857540  -0.274115
H    -5.706863  -3.614009  1.083200
Ba    1.708925  -0.510313  4.684781
