32
Energy: -241840.435126 eV PBE+vdW (tier 2 basis)
C    0.360759  -0.080533  0.188167
C    0.119921  0.094247  1.650380
O    1.049477  0.484392  2.426510
H    1.196906  -0.775735  0.035631
H    0.665847  0.884648  -0.239827
H    -0.517674  -0.447676  -0.352301
N    -1.098176  -0.160085  2.146316
C    -1.433302  0.107952  3.548214
C    -0.680432  -0.842480  4.504914
O    0.172502  -0.296304  5.285644
H    -1.843888  -0.428176  1.507978
H    -0.959111  1.073534  3.780320
C    -2.941893  0.369875  3.829862
C    -3.972114  -0.745332  3.543908
C    -3.334176  1.703985  3.172126
C    -4.236989  -1.124819  2.082662
H    -2.966900  0.528089  4.921173
H    -4.917108  -0.378659  3.970495
H    -3.735794  -1.638917  4.136537
H    -2.708839  2.532022  3.532778
H    -4.374384  1.949256  3.417441
H    -3.258682  1.681092  2.076728
H    -5.090778  -1.810599  2.022117
H    -3.402971  -1.659177  1.596610
H    -4.490083  -0.254640  1.463147
N    -0.831786  -2.158883  4.550158
C    -1.599077  -3.081068  3.714873
H    -0.269848  -2.598171  5.280906
H    -0.923749  -3.862350  3.345202
H    -2.040116  -2.564252  2.863422
H    -2.394288  -3.554710  4.302752
Ba    2.139285  0.965876  4.559326
