32
Energy: -241840.279294 eV PBE+vdW (tier 2 basis)
C    0.017505  0.176707  0.140716
C    -0.020110  0.054268  1.629809
O    1.048727  -0.119952  2.295173
H    0.236372  1.214753  -0.155076
H    -0.920388  -0.128053  -0.335033
H    0.838864  -0.444565  -0.234524
N    -1.192315  0.139378  2.293409
C    -2.233706  1.106730  1.971545
C    -1.722419  2.505078  2.432865
O    -0.532631  2.655982  2.862672
H    -1.136517  -0.113909  3.280146
H    -2.312230  1.169080  0.875182
C    -3.621921  0.657390  2.509001
C    -3.628499  0.267680  3.999942
C    -4.157829  -0.483378  1.634454
C    -3.187914  1.338236  5.000328
H    -4.302596  1.517806  2.386545
H    -3.045224  -0.658652  4.142719
H    -4.659261  -0.030483  4.237524
H    -3.507561  -1.367646  1.684736
H    -4.249488  -0.183960  0.581759
H    -5.153273  -0.789623  1.976807
H    -3.774898  2.261003  4.896045
H    -2.124260  1.613746  4.904375
H    -3.326883  0.982011  6.028147
N    -2.541244  3.533327  2.308622
C    -2.205948  4.914248  2.662313
H    -3.483794  3.348040  1.975732
H    -3.017079  5.564290  2.324565
H    -1.275558  5.217182  2.169720
H    -2.094375  5.015843  3.749200
Ba    1.682627  1.857923  3.612231
