32
Energy: -241840.785934 eV PBE+vdW (tier 2 basis)
C    -0.281634  -1.055000  -0.223322
C    -0.185671  -0.758352  1.238602
O    0.868351  -0.241906  1.725308
H    -0.196266  -0.108381  -0.776065
H    -1.217834  -1.547071  -0.506528
H    0.564756  -1.681665  -0.531751
N    -1.238731  -1.038996  2.014384
C    -1.420435  -0.653393  3.422064
C    -0.689518  -1.647466  4.354402
O    0.579020  -1.585160  4.431301
H    -2.051580  -1.451859  1.561891
H    -0.869672  0.290680  3.561515
C    -2.918120  -0.375166  3.713336
C    -3.883600  -1.471929  3.191759
C    -3.298345  1.009909  3.170569
C    -5.220438  -1.505423  3.938843
H    -3.005106  -0.331579  4.812208
H    -3.427281  -2.477681  3.238290
H    -4.086467  -1.295660  2.121067
H    -3.157124  1.070860  2.081892
H    -2.706170  1.806778  3.639565
H    -4.352461  1.229342  3.373466
H    -5.879672  -2.274625  3.520422
H    -5.750320  -0.547804  3.869259
H    -5.081688  -1.729940  5.006131
N    -1.392398  -2.510550  5.065281
C    -0.851079  -3.489061  6.007069
H    -2.403016  -2.488528  4.948398
H    -1.059828  -4.504469  5.648111
H    -1.324882  -3.352625  6.986257
H    0.227442  -3.346050  6.097198
Ba    2.523768  -0.466229  3.466076
