32
Energy: -241840.177103 eV PBE+vdW (tier 2 basis)
C    -1.236684  -1.525651  -0.436365
C    -0.326987  -0.974527  0.613766
O    0.851422  -1.426819  0.757885
H    -1.087564  -0.993798  -1.389520
H    -2.294442  -1.447892  -0.163575
H    -0.975876  -2.576161  -0.605750
N    -0.742879  0.029482  1.415087
C    -1.530506  1.167535  0.947997
C    -0.619332  1.969644  -0.029313
O    0.600455  1.635650  -0.199223
H    -0.106814  0.238978  2.185503
H    -2.381521  0.783998  0.366309
C    -2.079357  1.971795  2.179916
C    -3.556598  2.398741  2.029951
C    -1.151583  3.106570  2.633080
C    -3.927609  3.368118  0.905415
H    -2.088816  1.217909  2.983114
H    -3.844841  2.851108  2.989884
H    -4.172549  1.491229  1.938279
H    -0.109681  2.773480  2.760123
H    -1.479882  3.484562  3.608524
H    -1.144729  3.960217  1.943121
H    -3.885633  2.897337  -0.093387
H    -3.324909  4.288575  0.913334
H    -4.970902  3.688838  1.014019
N    -1.145303  2.989689  -0.676674
C    -0.415285  3.852942  -1.606075
H    -2.119968  3.220969  -0.475641
H    -1.112707  4.591882  -2.008887
H    -0.003030  3.264366  -2.433939
H    0.399886  4.373695  -1.088810
Ba    2.572510  0.169711  0.014793
