32
Energy: -241840.152211 eV PBE+vdW (tier 2 basis)
C    1.531459  0.912738  1.947348
C    0.947560  2.169012  2.507304
O    1.662024  3.205694  2.678622
H    1.475992  0.921996  0.846814
H    1.018560  0.014280  2.307013
H    2.592116  0.868296  2.217622
N    -0.366016  2.228941  2.809237
C    -1.429177  1.641418  1.994364
C    -1.275156  2.239767  0.571113
O    -0.687077  3.358383  0.405884
H    -0.647138  3.049950  3.344919
H    -1.291692  0.550580  1.929776
C    -2.812387  1.924631  2.666829
C    -3.055930  0.998355  3.880780
C    -3.994275  1.821660  1.695477
C    -2.085518  1.078846  5.060166
H    -2.769256  2.972032  3.023456
H    -3.116641  -0.040137  3.515458
H    -4.065909  1.238282  4.243232
H    -4.922851  2.027842  2.240331
H    -4.099332  0.808027  1.279930
H    -3.943713  2.539636  0.867217
H    -2.466206  0.473407  5.891563
H    -1.984792  2.106722  5.439747
H    -1.083585  0.696891  4.825718
N    -1.752134  1.535923  -0.441349
C    -1.795367  1.952595  -1.842165
H    -2.210449  0.655659  -0.214486
H    -1.363861  1.165852  -2.471436
H    -1.226857  2.876578  -1.963371
H    -2.835751  2.122647  -2.147377
Ba    1.023262  5.004432  1.111288
