32
Energy: -241840.043837 eV PBE+vdW (tier 2 basis)
C    0.093906  0.148286  1.550470
C    -0.959646  0.612579  2.504634
O    -0.708846  1.565174  3.311275
H    -0.289826  0.104071  0.524052
H    0.446953  -0.861123  1.808868
H    0.940225  0.839618  1.590005
N    -2.186548  0.047575  2.543713
C    -2.474099  -1.392511  2.461403
C    -1.746342  -2.058970  3.670085
O    -1.032202  -1.363178  4.466538
H    -2.837245  0.572369  3.126509
H    -3.549929  -1.471436  2.685362
C    -2.291004  -2.027709  1.044981
C    -2.961925  -1.130004  -0.023424
C    -2.833495  -3.467311  0.967287
C    -4.475307  -0.946911  0.104508
H    -1.216588  -2.074483  0.816945
H    -2.730545  -1.585521  -0.997148
H    -2.479853  -0.141705  -0.037802
H    -3.823007  -3.579686  1.435192
H    -2.140804  -4.211687  1.383091
H    -2.957889  -3.749466  -0.085417
H    -4.766903  -0.425870  1.029095
H    -5.019025  -1.899357  0.067315
H    -4.848268  -0.334343  -0.724828
N    -1.934945  -3.347123  3.890042
C    -1.362263  -4.092163  5.012798
H    -2.510048  -3.857592  3.223641
H    -0.270113  -4.000055  5.017656
H    -1.631238  -5.145436  4.899198
H    -1.764164  -3.723678  5.964652
Ba    -0.200213  0.701457  5.544681
