32
Energy: -241840.205438 eV PBE+vdW (tier 2 basis)
C    0.677175  0.046779  2.188972
C    -0.257524  -0.049702  3.350448
O    0.179982  -0.164116  4.536230
H    0.963376  1.096671  2.017119
H    0.243323  -0.347167  1.263752
H    1.593360  -0.502918  2.431282
N    -1.593854  0.008643  3.155669
C    -2.244024  0.917759  2.221780
C    -1.898754  2.370733  2.640493
O    -1.318377  2.603490  3.752426
H    -2.152030  -0.221743  3.977689
H    -1.808835  0.767393  1.222240
C    -3.771570  0.598283  2.114296
C    -4.470359  0.302591  3.457693
C    -3.975098  -0.559656  1.129272
C    -4.418632  1.386796  4.536931
H    -4.248511  1.497403  1.696458
H    -4.125167  -0.665612  3.861254
H    -5.525374  0.117561  3.211139
H    -3.592408  -0.316256  0.128929
H    -5.041670  -0.791487  1.024672
H    -3.471613  -1.474186  1.472740
H    -3.411763  1.510006  4.975215
H    -5.095650  1.139973  5.363283
H    -4.718529  2.369938  4.148910
N    -2.169613  3.374107  1.819099
C    -2.757940  3.348191  0.477283
H    -1.922700  4.294606  2.182984
H    -2.245224  4.094954  -0.138268
H    -3.826182  3.596547  0.515995
H    -2.630927  2.368250  0.008994
Ba    -0.268743  1.874485  5.861491
