32
Energy: -241840.028152 eV PBE+vdW (tier 2 basis)
C    -0.473406  0.518735  -0.409931
C    -0.240271  0.018976  0.977532
O    0.785968  0.367645  1.635717
H    -0.807521  1.567476  -0.386692
H    -1.203588  -0.077501  -0.965129
H    0.486736  0.509020  -0.941644
N    -1.141096  -0.801270  1.567107
C    -2.595248  -0.611740  1.505231
C    -2.872542  0.862935  1.857670
O    -2.089216  1.465644  2.669848
H    -0.815833  -1.213086  2.441866
H    -2.951451  -0.825751  0.489525
C    -3.254587  -1.663793  2.463349
C    -4.791782  -1.769715  2.321313
C    -2.814401  -1.530958  3.927514
C    -5.650352  -0.833962  3.178180
H    -2.846073  -2.611045  2.073897
H    -5.053685  -2.804195  2.585893
H    -5.060614  -1.680882  1.257914
H    -3.271457  -2.335861  4.516821
H    -3.126507  -0.580718  4.380318
H    -1.728326  -1.652450  4.077555
H    -5.398802  0.229453  3.067569
H    -5.573438  -1.073377  4.245968
H    -6.707193  -0.948994  2.908525
N    -3.877145  1.528664  1.307632
C    -4.874135  1.103368  0.322901
H    -3.979063  2.483004  1.655397
H    -4.521681  0.240348  -0.247014
H    -5.049165  1.933612  -0.369527
H    -5.818639  0.846326  0.817745
Ba    0.172702  1.758049  3.599562
