32
Energy: -241839.499382 eV PBE+vdW (tier 2 basis)
C    0.390627  0.931892  0.926912
C    -0.284871  -0.109903  1.753260
O    0.364251  -0.674329  2.731151
H    0.713622  1.761808  1.570255
H    -0.260458  1.324981  0.139963
H    1.290919  0.504696  0.464114
N    -1.519618  -0.451785  1.490856
C    -2.345580  -1.457690  2.156412
C    -3.454573  -1.703049  1.081577
O    -3.627183  -0.808576  0.245917
H    -2.064829  -0.046376  0.697268
H    -1.738618  -2.360812  2.314667
C    -2.894808  -0.906709  3.522072
C    -3.075805  -1.999193  4.590445
C    -4.167391  -0.069647  3.352540
C    -1.776988  -2.583681  5.152772
H    -2.104928  -0.227007  3.892174
H    -3.706438  -2.815241  4.215304
H    -3.638203  -1.561484  5.427247
H    -4.048704  0.714766  2.595455
H    -4.425987  0.418423  4.300078
H    -5.022870  -0.690977  3.055255
H    -1.963651  -3.370729  5.894109
H    -1.219783  -1.783754  5.686278
H    -1.155767  -3.040733  4.356181
N    -4.185303  -2.830680  1.092656
C    -4.043863  -4.046203  1.881364
H    -4.898926  -2.838835  0.364983
H    -4.157644  -4.915699  1.223555
H    -4.805187  -4.110534  2.670934
H    -3.048938  -4.104702  2.335244
Ba    1.384530  -1.560703  4.576730
