32
Energy: -241840.679164 eV PBE+vdW (tier 2 basis)
C    0.022056  -0.088857  -0.062126
C    0.014260  0.038892  1.430180
O    1.103682  0.185866  2.054658
H    0.646706  -0.948478  -0.340432
H    0.495390  0.803112  -0.494268
H    -0.972769  -0.213451  -0.501800
N    -1.179142  -0.006884  2.045383
C    -1.576542  0.038682  3.474575
C    -1.033356  1.265839  4.221249
O    0.181752  1.353401  4.576450
H    -1.963974  -0.145471  1.414860
H    -2.661783  0.177703  3.414681
C    -1.412186  -1.302193  4.252573
C    -2.195271  -1.208144  5.580614
C    0.015585  -1.822923  4.455000
C    -2.339647  -2.537524  6.324463
H    -1.929634  -2.038278  3.613754
H    -3.202513  -0.817687  5.363507
H    -1.712907  -0.467097  6.241330
H    0.591014  -1.843551  3.518868
H    -0.012909  -2.857202  4.817454
H    0.537507  -1.251019  5.243516
H    -1.380583  -2.918418  6.697375
H    -2.787431  -3.309247  5.683748
H    -2.993946  -2.413875  7.195267
N    -1.877416  2.238649  4.547363
C    -3.311538  2.367732  4.262862
H    -1.453298  2.987348  5.095070
H    -3.516427  2.263246  3.191433
H    -3.622542  3.371056  4.567135
H    -3.898435  1.638836  4.835264
Ba    2.435295  0.631939  4.014992
