32
Energy: -241839.654826 eV PBE+vdW (tier 2 basis)
C    0.416889  -0.091355  0.314442
C    0.109195  -0.033063  1.771962
O    1.081897  0.075722  2.630725
H    0.959533  0.815781  0.015035
H    -0.485528  -0.184853  -0.297573
H    1.074873  -0.948218  0.114085
N    -1.131151  -0.094405  2.183679
C    -1.628878  -0.092903  3.555431
C    -3.078467  -0.648960  3.367245
O    -3.553343  -0.642424  2.227850
H    -1.939723  -0.232515  1.535688
H    -1.028118  -0.799123  4.150140
C    -1.578747  1.340910  4.182859
C    -1.439661  1.304659  5.715871
C    -2.751912  2.218526  3.733383
C    -0.053650  0.906065  6.230408
H    -0.654011  1.802932  3.787176
H    -2.197609  0.643981  6.162800
H    -1.673512  2.304638  6.107181
H    -2.864129  2.228579  2.642185
H    -2.598627  3.253918  4.061047
H    -3.701086  1.871745  4.162727
H    -0.013847  0.856015  7.325780
H    0.684977  1.682096  5.937011
H    0.249250  -0.095450  5.863599
N    -3.732216  -1.072706  4.457799
C    -5.105775  -1.579322  4.398322
H    -3.238851  -1.134147  5.340402
H    -5.555784  -1.497211  5.391913
H    -5.125541  -2.627764  4.074231
H    -5.681218  -0.980833  3.685482
Ba    2.659992  0.465067  4.239838
