32
Energy: -241840.675341 eV PBE+vdW (tier 2 basis)
C    1.087204  0.188390  0.132936
C    0.707249  -0.530603  1.391017
O    1.538722  -1.302458  1.948938
H    1.993810  0.780714  0.312931
H    0.302497  0.844545  -0.257310
H    1.341238  -0.558463  -0.632140
N    -0.527495  -0.314770  1.871714
C    -1.294916  -0.916820  2.985760
C    -0.725168  -0.588888  4.368339
O    0.488964  -0.803030  4.668540
H    -1.080010  0.321505  1.305021
H    -2.253868  -0.390638  2.913894
C    -1.686526  -2.427737  2.828839
C    -0.605497  -3.475590  3.171319
C    -2.299162  -2.648284  1.439701
C    -1.136540  -4.912575  3.224324
H    -2.490517  -2.562176  3.574133
H    -0.195999  -3.237229  4.173261
H    0.204747  -3.415982  2.423872
H    -1.537992  -2.618609  0.648259
H    -3.062847  -1.893417  1.208949
H    -2.792854  -3.624212  1.385673
H    -0.364277  -5.604939  3.581804
H    -1.453141  -5.266882  2.236974
H    -1.993116  -4.995553  3.906308
N    -1.553921  -0.113401  5.292225
C    -2.977553  0.224663  5.175090
H    -1.119582  0.039143  6.202062
H    -3.580263  -0.655915  4.922262
H    -3.138564  1.018611  4.435341
H    -3.313487  0.596950  6.146713
Ba    2.482862  -2.059350  4.030250
