32
Energy: -241840.120636 eV PBE+vdW (tier 2 basis)
C    -0.063314  0.405303  -0.243699
C    -0.219242  -0.209550  1.108132
O    0.782187  -0.661353  1.741776
H    0.353810  1.420365  -0.155014
H    -1.001099  0.453387  -0.805183
H    0.670112  -0.186640  -0.805725
N    -1.438627  -0.272031  1.690892
C    -2.414812  0.821226  1.679708
C    -1.681795  2.098778  2.143351
O    -0.670190  1.986860  2.918184
H    -1.467262  -0.847225  2.533038
H    -2.807953  0.956009  0.663661
C    -3.607747  0.417274  2.611322
C    -4.845978  1.307915  2.401052
C    -3.208028  0.324373  4.089709
C    -6.119179  0.747377  3.041051
H    -3.872150  -0.593713  2.255140
H    -5.019965  1.421304  1.319799
H    -4.653490  2.315884  2.803143
H    -2.329777  -0.318797  4.272475
H    -4.020780  -0.126237  4.669435
H    -3.004601  1.314004  4.522512
H    -6.980801  1.369478  2.772039
H    -6.066719  0.729325  4.136507
H    -6.328102  -0.272621  2.691107
N    -2.072033  3.303773  1.757010
C    -3.104976  3.714844  0.802647
H    -1.538995  4.063724  2.182129
H    -2.683815  4.489000  0.151529
H    -3.973369  4.126513  1.329992
H    -3.429241  2.873269  0.187126
Ba    1.245465  0.693874  3.766701
