32
Energy: -241840.723695 eV PBE+vdW (tier 2 basis)
C    1.589722  -0.080985  0.671324
C    0.936327  -0.765216  1.830293
O    1.641329  -1.365356  2.694558
H    2.135580  -0.833579  0.084775
H    2.334268  0.634984  1.042704
H    0.886495  0.439855  0.013428
N    -0.402682  -0.722597  1.906657
C    -1.316098  -1.420361  2.838905
C    -1.235468  -0.802744  4.243287
O    -0.227931  -1.020175  4.986809
H    -0.860647  -0.230233  1.145331
H    -2.313681  -1.211546  2.433715
C    -1.184769  -2.966909  2.880870
C    -1.247337  -3.561952  1.461255
C    -2.269825  -3.532326  3.807666
C    -0.989788  -5.068665  1.404623
H    -0.194857  -3.230125  3.300821
H    -0.511764  -3.055926  0.818747
H    -2.237361  -3.338797  1.029484
H    -2.222517  -3.120553  4.825175
H    -2.173203  -4.619524  3.898047
H    -3.273209  -3.330828  3.405793
H    -1.766500  -5.648539  1.917329
H    -0.019132  -5.330480  1.851253
H    -0.969552  -5.410036  0.363008
N    -2.236091  -0.057529  4.691340
C    -3.493645  0.299485  4.022783
H    -2.110487  0.285062  5.643980
H    -4.029081  0.999024  4.670458
H    -4.127367  -0.583010  3.872459
H    -3.308209  0.801014  3.066032
Ba    2.016478  -1.960434  5.001087
