32
Energy: -241840.784594 eV PBE+vdW (tier 2 basis)
C    -0.514606  -3.447175  0.850783
C    -0.655226  -2.181603  1.631791
O    0.114283  -1.194931  1.412377
H    -0.688951  -3.224198  -0.211490
H    -1.209258  -4.232199  1.166856
H    0.514720  -3.819040  0.934376
N    -1.617490  -2.102803  2.560239
C    -1.985750  -0.882894  3.293701
C    -0.971358  -0.617299  4.427799
O    0.048689  0.099522  4.172489
H    -2.210712  -2.919056  2.690801
H    -1.825172  -0.048462  2.596920
C    -3.498842  -0.880278  3.635554
C    -3.942050  0.470700  4.235122
C    -4.009902  -2.053358  4.489639
C    -3.619134  1.708235  3.395915
H    -3.976932  -0.968490  2.644459
H    -3.523889  0.583096  5.248849
H    -5.030374  0.409979  4.377154
H    -5.097579  -2.135440  4.374311
H    -3.849527  -1.903771  5.569008
H    -3.601838  -3.038409  4.216474
H    -2.540769  1.929634  3.360337
H    -4.100345  2.595187  3.824599
H    -3.985419  1.608142  2.364264
N    -1.170282  -1.147295  5.621243
C    -0.291783  -0.984694  6.779577
H    -2.016007  -1.700270  5.744618
H    0.354259  -1.864545  6.896397
H    -0.907239  -0.874420  7.678320
H    0.324205  -0.091985  6.647153
Ba    1.433278  0.658121  2.239367
