32
Energy: -241839.380652 eV PBE+vdW (tier 2 basis)
C    -1.089703  0.832877  -0.637788
C    -0.679895  0.781774  0.793682
O    0.284735  1.581464  1.190471
H    -1.351176  1.866798  -0.900845
H    -1.934281  0.178552  -0.864366
H    -0.242722  0.536336  -1.271858
N    -1.225346  0.001659  1.684089
C    -2.343594  -0.952395  1.639936
C    -2.963354  -0.711089  3.049899
O    -2.177051  -0.358892  3.947851
H    -0.972647  0.092898  2.696133
H    -3.030254  -0.696248  0.824181
C    -1.810900  -2.414474  1.482769
C    -1.091698  -2.596752  0.132270
C    -2.926122  -3.445650  1.685071
C    -0.420379  -3.961896  -0.042138
H    -1.070986  -2.552976  2.290532
H    -0.314559  -1.823231  0.025110
H    -1.812540  -2.434585  -0.687377
H    -3.397015  -3.362955  2.671218
H    -3.702626  -3.364124  0.911716
H    -2.509855  -4.456664  1.622072
H    0.169564  -3.982485  -0.966520
H    -1.149260  -4.777770  -0.108757
H    0.259296  -4.185304  0.792036
N    -4.276411  -0.870397  3.261712
C    -5.350650  -1.221043  2.338748
H    -4.540970  -0.721693  4.234760
H    -6.192553  -0.535531  2.489879
H    -5.696907  -2.248997  2.505401
H    -5.020334  -1.131781  1.300476
Ba    1.908152  2.969775  1.958596
