32
Energy: -241840.444129 eV PBE+vdW (tier 2 basis)
C    -0.607782  -1.430751  0.511100
C    -0.427141  -0.753420  1.828091
O    0.709547  -0.311164  2.189316
H    -0.336242  -0.729493  -0.290326
H    -1.630604  -1.783525  0.343756
H    0.084403  -2.280261  0.439495
N    -1.483296  -0.606287  2.640302
C    -1.390148  0.159967  3.885865
C    -0.471935  -0.544958  4.905743
O    0.579395  0.094211  5.254453
H    -2.397275  -0.908103  2.311650
H    -0.806116  1.058430  3.635523
C    -2.747273  0.731897  4.391814
C    -3.793430  -0.292921  4.867218
C    -3.293103  1.692342  3.322077
C    -5.093085  0.345932  5.367587
H    -2.462724  1.337557  5.269348
H    -3.369425  -0.885866  5.688887
H    -4.038555  -1.001243  4.055141
H    -2.519012  2.379169  2.952663
H    -4.096361  2.308202  3.739037
H    -3.716682  1.160035  2.457875
H    -5.740183  -0.417835  5.814380
H    -5.662841  0.822448  4.561489
H    -4.894468  1.102598  6.139016
N    -0.671066  -1.760995  5.397573
C    -1.670154  -2.787704  5.099908
H    0.036108  -2.031132  6.082869
H    -2.300559  -2.492300  4.262221
H    -2.302286  -2.967341  5.977542
H    -1.148431  -3.718485  4.845634
Ba    2.366445  0.687093  3.691460
