32
Energy: -241840.752491 eV PBE+vdW (tier 2 basis)
C    -1.504040  -0.298926  -0.414665
C    -1.422296  0.127994  1.015931
O    -0.564082  -0.394431  1.788278
H    -1.852521  -1.342268  -0.440128
H    -0.503812  -0.283203  -0.864106
H    -2.183871  0.312014  -1.017576
N    -2.295772  1.051759  1.441077
C    -2.562256  1.537188  2.814205
C    -1.401296  2.421918  3.305630
O    -0.290811  1.913816  3.648415
H    -2.941355  1.390433  0.733746
H    -3.443294  2.185094  2.699073
C    -2.960258  0.456893  3.856476
C    -4.236407  -0.325492  3.468970
C    -3.158173  1.131301  5.223884
C    -4.137396  -1.363714  2.347517
H    -2.137130  -0.277728  3.937981
H    -5.041735  0.395290  3.250578
H    -4.558997  -0.842477  4.384092
H    -3.417128  0.379389  5.978405
H    -3.989014  1.850623  5.192798
H    -2.267284  1.663960  5.583107
H    -3.261081  -2.016893  2.471871
H    -4.098355  -0.922137  1.344471
H    -5.021575  -2.011931  2.364737
N    -1.624183  3.726418  3.374882
C    -0.669328  4.730024  3.843876
H    -2.539279  4.062889  3.086481
H    0.176636  4.228231  4.318494
H    -1.163233  5.385883  4.569462
H    -0.312978  5.334147  2.999997
Ba    0.976302  -0.167064  3.621045
