32
Energy: -241840.667501 eV PBE+vdW (tier 2 basis)
C    0.869464  0.542222  0.038464
C    0.195999  -0.001126  1.255212
O    0.456013  0.465216  2.407781
H    1.958379  0.475213  0.161557
H    0.623219  1.609467  -0.053812
H    0.578654  0.029292  -0.884034
N    -0.699202  -0.988229  1.112782
C    -1.527707  -1.509629  2.208682
C    -0.659496  -2.359836  3.162459
O    -0.306385  -1.827977  4.266448
H    -0.914017  -1.299613  0.168426
H    -1.814378  -0.643709  2.826483
C    -2.844750  -2.139550  1.695466
C    -3.705642  -1.051103  1.015276
C    -3.586325  -2.819773  2.852671
C    -4.937691  -1.594746  0.289478
H    -2.600662  -2.900469  0.935452
H    -3.095298  -0.488024  0.290588
H    -4.014302  -0.319620  1.781375
H    -2.999646  -3.613298  3.334648
H    -4.509965  -3.284507  2.492473
H    -3.869402  -2.090870  3.625962
H    -5.462314  -0.781657  -0.225963
H    -5.656593  -2.057303  0.976191
H    -4.663458  -2.341707  -0.468227
N    -0.242092  -3.583477  2.869232
C    -0.498596  -4.413795  1.689806
H    0.305398  -4.017603  3.612456
H    0.289870  -5.170264  1.634377
H    -0.462373  -3.819581  0.772449
H    -1.467383  -4.923011  1.766587
Ba    0.634644  0.354467  4.829606
