32
Energy: -241840.81853 eV PBE+vdW (tier 2 basis)
C    -0.462751  0.280794  0.352846
C    -0.187474  0.320672  1.820468
O    1.002358  0.418213  2.255456
H    -0.111290  1.221770  -0.094074
H    -1.522875  0.148582  0.113268
H    0.116568  -0.528409  -0.110024
N    -1.221401  0.263714  2.669019
C    -1.136960  0.466879  4.123849
C    -0.629220  -0.833304  4.785836
O    0.623289  -1.004793  4.920741
H    -2.153355  0.217926  2.263701
H    -0.338061  1.204254  4.295249
C    -2.451390  1.051071  4.689467
C    -2.921190  2.295876  3.894185
C    -2.290902  1.354735  6.186357
C    -1.920756  3.448640  3.788545
H    -3.252047  0.295239  4.570901
H    -3.837802  2.650809  4.386181
H    -3.247578  2.000881  2.883895
H    -1.518359  2.114897  6.362697
H    -2.028188  0.469297  6.779751
H    -3.231451  1.746283  6.591014
H    -2.380952  4.295404  3.265814
H    -1.019749  3.179988  3.215973
H    -1.602302  3.817670  4.771764
N    -1.510253  -1.743422  5.162412
C    -1.201899  -3.030873  5.783487
H    -2.493671  -1.508544  5.044112
H    -1.448652  -3.849200  5.095475
H    -1.796304  -3.142780  6.697415
H    -0.139318  -3.065481  6.032869
Ba    2.690934  -0.259789  3.849351
