11
Energy: -26284.9567543 eV PBE+vdW (tier 2 basis)
N    0.663563  -0.416465  0.054330
C    0.287167  0.015012  1.436362
C    1.483736  -0.075878  2.366104
O    2.605471  -0.399578  1.912416
H    0.113340  -1.249479  -0.185506
H    0.329278  0.291827  -0.608948
H    -0.070231  1.056666  1.434249
H    -0.537662  -0.593593  1.837429
O    1.388255  0.185670  3.631822
H    0.490694  0.430991  3.942905
Ca    3.101389  -0.872174  -0.103164
