11
Energy: -26285.10666 eV PBE+vdW (tier 2 basis)
N    0.432943  -0.221524  0.039129
C    0.001107  0.190133  1.411407
C    1.114291  -0.032528  2.408256
O    2.262536  -0.387191  2.038293
H    -0.126379  -1.035406  -0.243382
H    0.143989  0.508028  -0.622634
H    -0.262792  1.258827  1.436329
H    -0.898546  -0.347619  1.744625
O    0.786241  0.185125  3.640420
H    1.531724  0.055204  4.270433
Ca    2.833887  -0.747050  -0.004877
