11
Energy: -26285.6354816 eV PBE+vdW (tier 2 basis)
N    0.042123  -0.128965  0.106076
C    0.079155  -0.559878  1.551059
C    1.435795  -0.296613  2.188884
O    1.592605  -0.616072  3.408938
H    0.747871  -0.624340  -0.460097
H    -0.883878  -0.319131  -0.308464
H    -0.702681  -0.017683  2.099681
H    -0.155919  -1.631449  1.604170
O    2.379323  0.229932  1.505681
H    0.232218  0.879422  0.001354
Ca    3.667388  0.099778  3.354719
