11
Energy: -26285.6295149 eV PBE+vdW (tier 2 basis)
N    0.303042  -0.328450  -0.013426
C    0.350860  0.483654  1.260943
C    1.490579  -0.001632  2.145552
O    2.230662  -0.968184  1.746372
H    1.072636  -1.026666  0.020666
H    -0.587178  -0.834799  -0.123203
H    0.493973  1.544753  1.020862
H    -0.601470  0.390430  1.797927
O    1.683311  0.565318  3.264030
H    0.430729  0.252351  -0.854427
Ca    3.382856  -0.756776  3.685704
