36
Energy: -39736.8201712 eV PBE+vdW (tier 2 basis)
C    -0.605999  -0.088708  0.515488
C    -0.649946  0.020932  2.010323
O    0.371118  -0.292516  2.688116
H    -1.543648  0.190568  0.024026
H    -0.351039  -1.121557  0.243757
H    0.202119  0.549482  0.133935
N    -1.795857  0.462885  2.558865
C    -2.178894  0.657282  3.978480
C    -0.919534  0.711804  4.843078
O    -0.562712  -0.367736  5.503829
H    -2.527433  0.697366  1.892134
H    -2.624430  1.663467  4.018271
C    -3.298909  -0.320058  4.400369
C    -3.131676  -1.825762  4.117518
C    -2.619971  -2.717653  5.255507
N    -3.464449  -2.686401  6.454847
C    -3.156182  -2.124318  7.632222
N    -3.927813  -2.378422  8.702534
N    -2.100641  -1.311487  7.752522
H    -4.201554  0.020152  3.872460
H    -3.519906  -0.130903  5.461579
H    -2.464876  -1.987144  3.257490
H    -4.107130  -2.218145  3.795944
H    -1.601409  -2.445834  5.544677
H    -2.589060  -3.759493  4.908004
H    -4.354353  -3.172653  6.402746
H    -3.835237  -1.845405  9.558159
H    -4.605050  -3.131098  8.701956
H    -1.788636  -1.026674  8.672367
N    -0.075164  1.709816  4.824677
C    -0.290314  2.940968  4.075603
H    -1.569872  -0.973315  6.938275
H    0.104713  2.858050  3.049707
H    0.251179  3.753078  4.572065
H    -1.347821  3.233895  4.007382
Ca    1.419049  -0.027208  4.598032
