36
Energy: -39737.5290654 eV PBE+vdW (tier 2 basis)
C    1.380775  -1.173514  1.458507
C    0.544124  -1.163223  2.698476
O    0.420727  -2.207011  3.395783
H    1.431748  -0.204172  0.952163
H    0.968888  -1.919127  0.764386
H    2.396883  -1.502166  1.713332
N    -0.069218  -0.006278  3.027729
C    -1.014985  0.230769  4.139656
C    -0.267977  0.190949  5.489558
O    0.108223  -0.901804  5.998016
H    0.097008  0.778117  2.404455
H    -1.374873  1.257191  3.991773
C    -2.223711  -0.734758  4.054366
C    -3.011263  -0.989626  5.348068
C    -3.782353  -2.329036  5.263723
N    -3.854221  -3.056981  6.520699
C    -2.997438  -4.039922  6.890655
N    -3.425258  -4.866063  7.873302
N    -1.797422  -4.173507  6.314909
H    -1.861180  -1.697336  3.666200
H    -2.885968  -0.353440  3.265178
H    -3.699944  -0.161769  5.562319
H    -2.336946  -1.048966  6.213336
H    -3.301383  -2.995179  4.532551
H    -4.807991  -2.169291  4.909394
H    -4.672564  -2.913395  7.101560
H    -2.786043  -5.497918  8.337339
H    -4.401497  -4.929331  8.135740
H    -1.458041  -5.114697  6.541164
N    -0.050331  1.356337  6.087396
C    0.650865  1.530543  7.359120
H    -0.376321  2.198170  5.620341
H    0.070964  2.200864  8.002904
H    1.642304  1.967923  7.186095
H    0.761527  0.557244  7.842440
Ca    -0.010745  -3.017966  5.400538
