36
Energy: -39736.0522611 eV PBE+vdW (tier 2 basis)
C    -0.166007  -1.034298  1.971415
C    -1.170911  -1.310433  3.043463
O    -1.242468  -2.464547  3.580981
H    0.471836  -0.185301  2.247770
H    -0.662989  -0.768875  1.026185
H    0.456541  -1.918909  1.814804
N    -2.028881  -0.345919  3.444020
C    -2.767056  0.514279  2.489920
C    -3.408539  -0.396156  1.393948
O    -3.549031  -1.675553  1.720862
H    -2.568085  -0.619244  4.264141
H    -3.608736  0.892994  3.090318
C    -1.956872  1.728791  1.973902
C    -2.640840  3.096768  2.141427
C    -3.971062  3.269847  1.394642
N    -3.878301  2.935500  -0.023068
C    -3.727596  3.784552  -1.033799
N    -3.505800  5.095921  -0.840567
N    -3.795182  3.323108  -2.297507
H    -1.686804  1.568484  0.921954
H    -1.017120  1.769446  2.537983
H    -1.927809  3.864961  1.806436
H    -2.823703  3.298383  3.208058
H    -4.362215  4.287788  1.523657
H    -4.741568  2.605641  1.813118
H    -3.814742  1.897991  -0.168132
H    -3.323923  5.468910  0.080951
H    -3.628307  5.763891  -1.591427
H    -3.527528  3.897657  -3.086128
N    -3.785537  0.141976  0.290749
C    -4.474969  -0.675046  -0.701561
H    -4.161107  2.400961  -2.492031
H    -3.771786  -0.972037  -1.494515
H    -5.267659  -0.078608  -1.172789
H    -4.928035  -1.583406  -0.283780
Ca    -3.023401  -3.391423  2.721369
