36
Energy: -39734.44459 eV PBE+vdW (tier 2 basis)
C    0.030311  0.161012  0.079388
C    -0.291100  0.298606  1.527401
O    0.706322  0.582154  2.353183
H    0.592139  1.041634  -0.258998
H    -0.864356  0.047119  -0.538586
H    0.676229  -0.715825  -0.072277
N    -1.472094  0.161650  2.036863
C    -2.779433  -0.106079  1.427837
C    -3.708089  0.383319  2.591467
O    -3.147679  0.553129  3.706462
H    -1.738076  0.345958  3.077681
H    -2.926066  0.519201  0.535501
C    -2.928169  -1.606614  1.060287
C    -4.052575  -1.910699  0.054813
C    -5.412933  -2.282526  0.684758
N    -6.534242  -2.074113  -0.212437
C    -6.971043  -0.820649  -0.546421
N    -7.941722  -0.774568  -1.512979
N    -6.429457  0.227973  0.024311
H    -3.044374  -2.194137  1.984047
H    -1.972323  -1.924382  0.619958
H    -3.728323  -2.737083  -0.591903
H    -4.199700  -1.043149  -0.603747
H    -5.594498  -1.707758  1.600732
H    -5.418015  -3.339882  0.978231
H    -6.816869  -2.845662  -0.804155
H    -8.405220  0.110655  -1.674640
H    -8.523178  -1.588555  -1.677623
H    -6.880937  1.091111  -0.281596
N    -4.985661  0.584778  2.345651
C    -5.903460  1.001959  3.402762
H    -5.422656  0.421375  1.383860
H    -6.913672  1.014884  2.983090
H    -5.650631  2.004689  3.770353
H    -5.869743  0.306242  4.250212
Ca    2.083867  1.048399  3.689293
