36
Energy: -39734.8073883 eV PBE+vdW (tier 2 basis)
C    0.821595  1.326371  1.068269
C    0.335367  0.758208  2.357159
O    1.107413  0.694819  3.372324
H    0.866020  2.425413  1.123605
H    0.205742  1.036948  0.211773
H    1.852614  0.981856  0.913332
N    -0.934243  0.316720  2.482650
C    -2.094317  1.080549  2.016762
C    -2.128209  2.405983  2.828542
O    -1.346624  2.546511  3.847220
H    -1.110693  -0.210951  3.339679
H    -1.949374  1.339369  0.957616
C    -3.384813  0.249707  2.146489
C    -3.722984  -0.261202  3.557040
C    -5.213627  -0.669573  3.707095
N    -6.127078  0.452919  3.886347
C    -6.408436  1.396013  2.899572
N    -6.564340  0.872996  1.620010
N    -6.499664  2.674845  3.065848
H    -3.288894  -0.599460  1.454539
H    -4.218941  0.845519  1.757101
H    -3.517338  0.511396  4.319019
H    -3.105656  -1.139778  3.810747
H    -5.321202  -1.318059  4.585329
H    -5.521552  -1.276881  2.845139
H    -6.108034  0.858169  4.817195
H    -6.999670  1.548642  0.996833
H    -7.027308  -0.031236  1.572705
H    -6.300504  2.948750  4.031868
N    -2.927359  3.391795  2.485701
C    -3.884327  3.501210  1.379665
H    -2.895487  4.195793  3.115123
H    -3.786885  4.502888  0.946671
H    -4.909997  3.365310  1.778894
H    -3.676313  2.757492  0.606474
Ca    0.424289  2.038601  4.914245
