36
Energy: -39737.4923316 eV PBE+vdW (tier 2 basis)
C    -0.503126  1.416945  1.611439
C    -0.475804  0.316202  2.619908
O    0.237612  0.401739  3.659546
H    -0.780907  2.352979  2.114408
H    -1.193839  1.232402  0.782274
H    0.509472  1.562007  1.210929
N    -1.238338  -0.774251  2.406268
C    -1.332811  -1.887360  3.354932
C    -0.166240  -2.870554  3.140553
O    0.920717  -2.609699  3.734696
H    -1.791136  -0.811994  1.553244
H    -1.107218  -1.453616  4.333770
C    -2.762367  -2.434474  3.472624
C    -3.683429  -1.480747  4.261275
C    -3.456217  -1.424608  5.783869
N    -2.147655  -0.872431  6.161401
C    -1.265347  -1.384383  7.064294
N    -1.749574  -2.217460  8.011757
N    0.028471  -1.084353  6.936994
H    -2.722623  -3.409773  3.981051
H    -3.195784  -2.623190  2.477079
H    -4.723794  -1.801644  4.114344
H    -3.632917  -0.464165  3.838649
H    -3.518209  -2.439314  6.199456
H    -4.264827  -0.833951  6.239488
H    -1.881294  0.024916  5.768764
H    -1.113732  -2.714766  8.623489
H    -2.715164  -2.161521  8.315297
H    0.512315  -1.266185  7.821364
N    -0.324554  -3.921506  2.349824
C    0.709926  -4.910643  2.041271
H    -1.239761  -4.061844  1.929254
H    0.918320  -4.905282  0.964651
H    0.365049  -5.908796  2.335345
H    1.618347  -4.657567  2.592147
Ca    1.369277  -0.858691  5.064367
