36
Energy: -39736.4434714 eV PBE+vdW (tier 2 basis)
C    0.168220  -3.189685  2.009743
C    -0.260120  -1.908171  2.657286
O    0.553379  -0.870634  2.484977
H    0.283646  -3.040097  0.927496
H    1.150608  -3.497412  2.393552
H    -0.558752  -3.984286  2.196021
N    -1.373032  -1.869659  3.328640
C    -1.769407  -0.581049  3.889566
C    -0.843496  -0.190830  5.048006
O    -0.017920  0.775541  4.888022
H    -6.950650  -3.876595  1.401935
H    -1.613625  0.233316  3.153415
C    -3.273772  -0.582886  4.228517
C    -4.106961  -0.697059  2.947164
C    -5.625527  -0.687765  3.163059
N    -6.171574  -1.879827  3.832011
C    -6.657933  -2.967310  3.220567
N    -7.396067  -3.848412  3.914379
N    -6.417313  -3.190459  1.922097
H    -3.530902  0.344334  4.764699
H    -3.500142  -1.426142  4.894752
H    -3.794221  -1.604132  2.406351
H    -3.879980  0.152410  2.283670
H    -6.150614  -0.571748  2.204736
H    -5.923419  0.173184  3.776746
H    -6.246411  -1.858659  4.843060
H    -7.610641  -4.764586  3.539482
H    -7.837997  -3.593368  4.789131
H    -5.704249  -2.677232  1.420955
N    -0.820664  -0.856447  6.196910
C    -1.537994  -2.076359  6.565818
H    -0.158815  -0.486838  6.878186
H    -0.878944  -2.682327  7.196590
H    -1.778370  -2.648695  5.664933
H    -2.446451  -1.843528  7.136277
Ca    1.322560  0.862698  3.196961
