36
Energy: -39736.4456756 eV PBE+vdW (tier 2 basis)
C    -1.380993  -0.203907  0.402458
C    -0.890145  -0.255798  1.819362
O    0.416201  -0.300702  1.967932
H    -1.029697  -1.088967  -0.145151
H    -0.954457  0.672288  -0.104258
H    -2.471363  -0.148359  0.345644
N    -1.760997  -0.257471  2.791110
C    -1.352631  -0.383160  4.201489
C    -0.333189  0.676258  4.636823
O    0.919787  0.439007  4.708081
H    -3.342133  -0.873021  2.655503
H    -2.261218  -0.165828  4.781361
C    -0.923305  -1.815973  4.576847
C    -1.885633  -2.904002  4.076970
C    -3.200394  -3.107553  4.832053
N    -4.186099  -1.991080  4.898511
C    -4.928027  -1.524299  3.859577
N    -6.244399  -1.329745  4.051018
N    -4.352317  -1.225839  2.697825
H    -0.796624  -1.879042  5.668384
H    0.064914  -2.036987  4.144413
H    -1.371744  -3.872952  4.163536
H    -2.075905  -2.776751  3.003457
H    -2.981886  -3.335121  5.883238
H    -3.702450  -3.991927  4.411381
H    -4.679318  -1.960482  5.786260
H    -6.792294  -0.766680  3.410291
H    -6.751453  -1.826209  4.774645
H    -4.951853  -1.025341  1.904022
N    -0.773830  1.887518  4.955138
C    -2.152076  2.379902  4.924645
H    -0.054106  2.537369  5.269299
H    -2.679034  1.984832  4.050561
H    -2.122251  3.470730  4.844322
H    -2.687501  2.115301  5.846185
Ca    2.123477  -0.227578  3.071854
