36
Energy: -39735.3024838 eV PBE+vdW (tier 2 basis)
C    0.078609  0.139451  0.047826
C    -0.139515  -0.119796  1.501468
O    0.817092  -0.568993  2.213973
H    -0.794283  0.564746  -0.457658
H    0.344902  -0.810692  -0.437994
H    0.936572  0.812486  -0.080469
N    -1.347812  0.128692  2.019123
C    -1.902078  -0.201451  3.353300
C    -1.275374  0.606401  4.501914
O    -0.043901  0.469796  4.807130
H    -2.029762  0.490349  1.357071
H    -2.954395  0.104311  3.280222
C    -1.901842  -1.710010  3.685372
C    -2.575813  -1.976588  5.032445
C    -2.811664  -3.465656  5.358790
N    -3.368595  -3.644569  6.695419
C    -4.584719  -2.990464  6.998093
N    -5.639250  -3.428137  6.212437
N    -4.576211  -2.066615  7.893915
H    -0.875301  -2.111724  3.672352
H    -2.435833  -2.222346  2.871304
H    -3.554937  -1.470908  5.062786
H    -1.985226  -1.537614  5.853521
H    -1.870918  -4.033802  5.306216
H    -3.488574  -3.905578  4.613476
H    -2.703026  -3.396638  7.426606
H    -6.554732  -3.070343  6.463991
H    -5.646386  -4.421867  5.997492
H    -5.523222  -1.781819  8.163666
N    -2.078691  1.380351  5.205674
C    -1.723722  2.111257  6.422973
H    -3.055708  1.418375  4.923185
H    -2.235554  1.655291  7.280581
H    -2.044962  3.154231  6.323948
H    -0.643139  2.069327  6.571359
Ca    1.723285  -0.456921  4.103652
