36
Energy: -39737.2087886 eV PBE+vdW (tier 2 basis)
C    -1.024165  -0.644277  -0.437757
C    -1.532385  -0.163250  0.881609
O    -1.292950  1.004272  1.291603
H    0.074523  -0.632706  -0.421591
H    -1.336797  0.058030  -1.221356
H    -1.366444  -1.651873  -0.695542
N    -2.267358  -1.012476  1.638241
C    -2.814932  -0.585636  2.923459
C    -1.705696  -0.618779  4.007502
O    -1.122998  0.473494  4.267535
H    -2.460947  -1.943623  1.280642
H    -2.988474  0.485738  2.790877
C    -4.192669  -1.155593  3.286533
C    -4.832866  -0.337152  4.428687
C    -5.715584  0.862116  4.020432
N    -5.166995  1.798596  3.019572
C    -4.085615  2.588805  3.182645
N    -3.583184  3.263382  2.039060
N    -3.307303  2.704812  4.226626
H    -4.138852  -2.212605  3.569963
H    -4.820716  -1.111005  2.383873
H    -4.054922  -0.021702  5.141029
H    -5.496051  -0.990259  5.011457
H    -6.011418  1.415611  4.924611
H    -6.643968  0.486120  3.574376
H    -5.773054  2.004727  2.231525
H    -3.589558  4.277974  2.161152
H    -4.013808  3.015048  1.149007
H    -3.689102  2.324902  5.093372
N    -1.327450  -1.734917  4.621650
C    -1.793593  -3.111677  4.454385
H    -0.577585  -1.590051  5.298382
H    -0.964572  -3.783025  4.699501
H    -2.086307  -3.310708  3.419488
H    -2.631216  -3.335737  5.127333
Ca    -1.279482  2.365007  3.083647
