36
Energy: -39734.8534504 eV PBE+vdW (tier 2 basis)
C    -0.685516  0.541201  2.282947
C    -1.212421  -0.078199  3.533454
O    -0.502984  -0.124445  4.591140
H    -1.454519  1.126116  1.767007
H    -0.340554  -0.240604  1.585616
H    0.172681  1.175092  2.526307
N    -2.443328  -0.641443  3.553572
C    -2.903552  -1.589926  2.512975
C    -1.761110  -2.618641  2.300400
O    -1.015609  -2.912030  3.316500
H    -2.768226  -0.864101  4.493738
H    -3.691815  -2.166294  3.025164
C    -3.545356  -0.988101  1.249235
C    -4.736822  -1.847709  0.763999
C    -5.063691  -1.752872  -0.751565
N    -4.764096  -2.970121  -1.506404
C    -3.506471  -3.532283  -1.576805
N    -2.439653  -2.582388  -1.500086
N    -3.161135  -4.762833  -1.668746
H    -2.795626  -0.865998  0.455989
H    -3.895286  0.021196  1.500964
H    -5.622116  -1.570078  1.352815
H    -4.551571  -2.909245  0.989505
H    -4.553621  -0.888994  -1.205166
H    -6.132298  -1.559572  -0.894163
H    -5.517794  -3.649536  -1.537719
H    -1.631214  -3.003767  -1.961196
H    -2.658678  -1.701814  -1.968153
H    -3.952942  -5.410055  -1.651123
N    -1.597535  -3.185341  1.135139
C    -0.676227  -4.291940  0.866036
H    -2.076549  -2.810431  0.270125
H    0.311799  -3.910616  0.573384
H    -1.099553  -4.872076  0.036531
H    -0.574487  -4.923316  1.753086
Ca    0.058132  -2.185212  4.991494
