36
Energy: -39735.8236965 eV PBE+vdW (tier 2 basis)
C    -0.152367  0.642079  -0.015871
C    -0.252269  0.916792  1.447631
O    0.821737  1.033201  2.144454
H    -1.132779  0.610504  -0.501379
H    0.360421  -0.319933  -0.156622
H    0.471715  1.408958  -0.493478
N    -1.461381  1.032894  1.976117
C    -1.856080  1.142819  3.393662
C    -1.432656  2.486324  4.011572
O    -0.214181  2.738821  4.284648
H    -2.285857  0.820735  1.334448
H    -2.952262  1.150066  3.343945
C    -1.434524  -0.034997  4.312010
C    -1.636791  -1.466766  3.784381
C    -3.075090  -2.005473  3.641880
N    -3.918177  -1.309140  2.665790
C    -3.522306  -1.016722  1.379018
N    -2.660187  -1.916873  0.797506
N    -3.794678  0.084638  0.722330
H    -1.972185  0.102834  5.263711
H    -0.366755  0.068860  4.562318
H    -1.124175  -2.135854  4.491336
H    -1.107822  -1.587389  2.828472
H    -3.603968  -1.953062  4.602475
H    -3.013881  -3.078689  3.402793
H    -4.627797  -0.692107  3.041294
H    -2.725678  -2.884822  1.096411
H    -2.600271  -1.810363  -0.210718
H    -4.484369  0.660353  1.213973
N    -2.386907  3.360661  4.281465
C    -2.190953  4.672454  4.900964
H    -3.337378  3.111977  4.019149
H    -3.008354  4.856689  5.605737
H    -2.195317  5.457375  4.133679
H    -1.237273  4.684067  5.433769
Ca    1.722356  2.066237  3.702813
