36
Energy: -39737.3295767 eV PBE+vdW (tier 2 basis)
C    -0.620872  0.300175  0.032094
C    -0.986316  -0.244291  1.380616
O    -0.747685  -1.458255  1.651871
H    0.450759  0.142629  -0.146888
H    -0.851536  1.362565  -0.097634
H    -1.157105  -0.278225  -0.733069
N    -1.555756  0.611950  2.245418
C    -2.180873  0.461125  3.574040
C    -1.395936  -0.395538  4.585267
O    -0.237908  -0.835972  4.361265
H    -1.669701  1.550068  1.870127
H    -2.088780  1.472649  4.005914
C    -3.712785  0.214144  3.463634
C    -4.260742  -1.043513  2.773435
C    -4.123249  -2.388122  3.495591
N    -2.765932  -2.901739  3.351347
C    -2.199379  -3.947484  4.008494
N    -2.978400  -4.671442  4.843253
N    -0.893173  -4.150099  3.840410
H    -4.108870  1.083776  2.919141
H    -4.157169  0.307253  4.467312
H    -3.854044  -1.135349  1.753047
H    -5.335230  -0.866417  2.627992
H    -4.857636  -3.089339  3.064742
H    -4.360011  -2.278867  4.565543
H    -2.270673  -2.600780  2.515448
H    -2.575149  -5.438029  5.368414
H    -3.986036  -4.689773  4.735452
H    -0.606571  -5.061914  4.200640
N    -1.963759  -0.559749  5.776481
C    -1.306505  -1.247104  6.889152
H    -2.875656  -0.148842  5.946385
H    -1.934835  -1.146116  7.777792
H    -0.325701  -0.800530  7.088923
H    -1.178345  -2.312523  6.659378
Ca    0.514111  -2.490501  3.147063
