36
Energy: -39737.0108833 eV PBE+vdW (tier 2 basis)
C    0.229284  -1.226835  0.958413
C    -0.427859  -0.229146  1.855059
O    0.159750  0.827541  2.204755
H    0.583357  -0.718430  0.052215
H    -0.424908  -2.058380  0.676600
H    1.118875  -1.627105  1.464511
N    -1.687211  -0.482157  2.287396
C    -2.385137  0.442067  3.177612
C    -1.835437  0.343362  4.622210
O    -0.949145  1.171865  4.971825
H    -2.130948  -1.355209  2.015456
H    -2.050478  1.432601  2.861195
C    -3.913354  0.453538  3.057555
C    -4.492788  1.107314  1.782410
C    -3.845171  2.416892  1.267832
N    -3.431886  3.349972  2.330389
C    -2.166206  3.753377  2.594186
N    -1.168828  3.633461  1.594602
N    -1.664698  4.158001  3.735733
H    -4.284175  0.995818  3.939937
H    -4.332631  -0.561139  3.146360
H    -5.559626  1.285648  1.974350
H    -4.463706  0.402741  0.939308
H    -4.547744  2.915044  0.586644
H    -2.961827  2.164466  0.669285
H    -4.094956  3.485774  3.089477
H    -0.709770  4.536269  1.456506
H    -1.470384  3.274508  0.691352
H    -2.349493  4.307853  4.479361
N    -2.296573  -0.603838  5.428004
C    -1.844212  -0.834137  6.801878
H    -3.026019  -1.216773  5.073446
H    -2.700487  -0.783193  7.484320
H    -1.115762  -0.065480  7.068805
H    -1.380661  -1.824969  6.880006
Ca    0.139489  2.586321  3.611814
