36
Energy: -39735.1466774 eV PBE+vdW (tier 2 basis)
C    0.284682  -0.077246  3.417361
C    -0.565310  -1.278750  3.158979
O    -0.005886  -2.424112  3.016444
H    1.286991  -0.409773  3.704066
H    0.372928  0.543181  2.512213
H    -0.138489  0.550737  4.208889
N    -1.905690  -1.204607  3.061733
C    -2.671553  -0.222262  2.282481
C    -2.310237  -0.420749  0.810517
O    -1.346607  -1.210406  0.465770
H    -2.385620  -2.102487  3.149426
H    -3.722860  -0.600030  2.443396
C    -2.647301  1.218483  2.832276
C    -3.273985  1.273706  4.236765
C    -4.761532  1.653469  4.282822
N    -5.656530  1.010415  3.296991
C    -6.037159  -0.327287  3.390135
N    -7.377873  -0.548913  3.221387
N    -5.121164  -1.246180  3.515456
H    -3.205461  1.866374  2.146270
H    -1.625786  1.615064  2.838977
H    -2.746487  2.027242  4.838223
H    -3.123261  0.314079  4.747677
H    -4.855085  2.729617  4.086287
H    -5.127556  1.482011  5.307493
H    -6.431338  1.618366  3.047782
H    -7.714352  -1.504521  3.207452
H    -8.051179  0.138246  3.542339
H    -5.536247  -2.167522  3.668401
N    -3.020116  0.149794  -0.147732
C    -4.236457  0.959544  -0.044130
H    -2.687449  -0.046346  -1.091586
H    -4.920565  0.648189  -0.841147
H    -4.001188  2.023085  -0.179086
H    -4.723685  0.810069  0.925241
Ca    -0.079438  -2.859220  0.919328
