36
Energy: -39735.8434166 eV PBE+vdW (tier 2 basis)
C    -0.190616  2.062152  0.872256
C    -0.220499  0.800207  1.671494
O    0.713256  -0.061529  1.520641
H    -1.034328  2.724102  1.090562
H    -0.190889  1.805752  -0.196319
H    0.748256  2.597008  1.068692
N    -1.227003  0.614461  2.519643
C    -1.566710  -0.582924  3.322170
C    -0.549105  -0.833882  4.438370
O    0.612194  -1.309782  4.168347
H    -1.953564  1.352266  2.546927
H    -2.512925  -0.296060  3.798877
C    -1.837811  -1.869904  2.511251
C    -2.784462  -1.770259  1.299402
C    -4.249686  -1.333964  1.530615
N    -4.439310  0.108512  1.608578
C    -4.344217  0.841840  2.763343
N    -3.868512  2.158514  2.574090
N    -4.487601  0.429851  3.980444
H    -2.235622  -2.604158  3.229253
H    -0.891879  -2.302750  2.145847
H    -2.810638  -2.776472  0.855478
H    -2.343362  -1.121084  0.526928
H    -4.667478  -1.808445  2.428985
H    -4.856338  -1.703756  0.694475
H    -4.413109  0.606098  0.725021
H    -4.136250  2.752364  3.359086
H    -4.146745  2.595181  1.695999
H    -4.881212  -0.513629  4.018880
N    -0.858874  -0.596742  5.699305
C    -2.075085  -0.050908  6.311814
H    -0.112081  -0.842462  6.353128
H    -2.522250  -0.815797  6.958929
H    -2.812709  0.265824  5.564054
H    -1.795319  0.810370  6.930325
Ca    1.912419  -1.464131  2.515555
