36
Energy: -39734.9595353 eV PBE+vdW (tier 2 basis)
C    -0.540932  -0.067204  -0.236304
C    -0.395848  -0.321719  1.214836
O    0.756427  -0.432021  1.767597
H    -0.905737  0.956259  -0.420374
H    -1.307027  -0.746136  -0.669795
H    0.428357  -0.187190  -0.728062
N    -1.481839  -0.450430  2.013497
C    -2.637630  0.438857  1.978297
C    -2.200148  1.758300  2.671164
O    -0.981775  1.939158  3.022864
H    -1.272273  -0.839817  2.934606
H    -2.855261  0.696380  0.924591
C    -3.851226  -0.287975  2.611756
C    -5.273819  0.244059  2.371187
C    -5.703286  0.456968  0.898312
N    -5.272660  -0.593539  -0.015331
C    -4.112210  -0.535473  -0.768706
N    -3.746137  0.762395  -1.173981
N    -3.327817  -1.507221  -1.091107
H    -3.690391  -0.382011  3.697413
H    -3.797924  -1.305796  2.202435
H    -5.479412  1.169325  2.937169
H    -5.944860  -0.494889  2.833761
H    -5.313288  1.410211  0.521011
H    -6.797949  0.546235  0.867593
H    -5.594865  -1.533494  0.193912
H    -3.073196  0.694492  -1.935303
H    -4.532675  1.340800  -1.465844
H    -3.614347  -2.401597  -0.685104
N    -3.101762  2.699025  2.865006
C    -2.835076  4.003702  3.480018
H    -4.057385  2.494303  2.582896
H    -3.763142  4.580713  3.477827
H    -2.073851  4.545561  2.907112
H    -2.493491  3.876907  4.514090
Ca    1.050078  1.218523  3.096245
