36
Energy: -39737.3920071 eV PBE+vdW (tier 2 basis)
C    -1.696132  -1.187793  -0.099812
C    -1.801189  -0.833709  1.352135
O    -2.105045  -1.716786  2.194568
H    -2.646958  -1.630482  -0.424681
H    -0.926478  -1.962326  -0.219728
H    -1.453399  -0.339991  -0.748546
N    -1.557234  0.451791  1.686830
C    -1.555622  1.151184  2.996158
C    -0.546665  0.522816  3.982188
O    -0.735867  -0.606457  4.511070
H    -1.326043  1.052158  0.901019
H    -1.172676  2.147575  2.740667
C    -2.958500  1.401228  3.614148
C    -3.614742  0.197113  4.290900
C    -5.043830  0.389402  4.800969
N    -5.411114  -0.589018  5.832796
C    -5.355209  -1.952187  5.758681
N    -6.292665  -2.609299  6.480685
N    -4.410052  -2.594954  5.071491
H    -3.598969  1.784475  2.806128
H    -2.851283  2.221876  4.339528
H    -3.007610  -0.081772  5.167934
H    -3.658549  -0.618595  3.556720
H    -5.754470  0.358047  3.959678
H    -5.145921  1.374053  5.275334
H    -6.047279  -0.228599  6.535665
H    -7.136619  -2.155783  6.809163
H    -6.192363  -3.594504  6.690476
H    -4.687406  -3.578668  5.000160
N    0.530720  1.244738  4.273353
C    1.572577  0.807823  5.205305
H    0.654626  2.141420  3.813651
H    2.234489  1.653822  5.407044
H    2.156613  -0.013648  4.771867
H    1.118859  0.468541  6.142807
Ca    -2.227239  -2.264758  4.313778
