36
Energy: -39736.7164303 eV PBE+vdW (tier 2 basis)
C    0.733045  1.777966  1.124075
C    0.295288  0.994700  2.321763
O    1.118309  0.730530  3.247845
H    1.044119  2.778349  1.456100
H    -0.045989  1.884352  0.362155
H    1.615185  1.301310  0.678134
N    -0.984061  0.585342  2.374698
C    -1.628823  -0.076513  3.522857
C    -0.669569  -1.097594  4.152275
O    -0.382689  -0.866713  5.418734
H    -1.579220  0.831561  1.588248
H    -1.746055  0.690910  4.301995
C    -3.024589  -0.648822  3.170509
C    -4.153703  -0.039007  4.012128
C    -4.086550  -0.309311  5.518467
N    -4.300221  -1.726551  5.853129
C    -3.629430  -2.444988  6.770477
N    -4.238877  -3.496822  7.342081
N    -2.372151  -2.144308  7.111126
H    -3.017698  -1.741843  3.284474
H    -3.243642  -0.469994  2.107668
H    -5.119887  -0.394397  3.622962
H    -4.170285  1.053635  3.881125
H    -4.859667  0.286067  6.026488
H    -3.125607  0.002564  5.945045
H    -5.189091  -2.119832  5.555224
H    -3.711894  -4.204675  7.839307
H    -5.247411  -3.592166  7.337410
H    -1.742963  -1.585689  6.518278
N    0.036281  -2.002558  3.531710
C    -0.142921  -2.352771  2.129044
H    -1.965569  -2.580104  7.929735
H    0.650209  -1.902957  1.510250
H    -1.112063  -2.055948  1.707900
H    -0.044187  -3.440322  2.028474
Ca    1.690741  -0.829873  4.699022
