36
Energy: -39735.6123307 eV PBE+vdW (tier 2 basis)
C    1.388854  0.211436  0.848268
C    0.472571  0.987666  1.737624
O    0.817046  2.171653  2.113521
H    2.083630  -0.384842  1.459625
H    1.986679  0.910319  0.254203
H    0.819467  -0.464487  0.189355
N    -0.651873  0.399145  2.119190
C    -1.859740  0.849234  2.819224
C    -1.803580  2.116206  3.657667
O    -0.810451  2.431318  4.396961
H    -0.800307  -0.593411  1.756947
H    -2.615555  1.014477  2.035348
C    -2.397955  -0.282539  3.756722
C    -3.111439  -1.464806  3.069536
C    -2.229419  -2.603389  2.543486
N    -1.356002  -2.206658  1.429914
C    -1.831251  -2.013082  0.090760
N    -3.143845  -2.349071  -0.136592
N    -0.993197  -1.452867  -0.704216
H    -3.119889  0.181936  4.443450
H    -1.564612  -0.625756  4.388228
H    -3.762801  -1.092847  2.263612
H    -3.786723  -1.908937  3.814862
H    -2.870743  -3.465525  2.294885
H    -1.567245  -2.956294  3.346173
H    -0.485702  -2.734206  1.395565
H    -3.540841  -3.142871  0.356546
H    -3.469423  -2.264277  -1.093982
H    -1.321890  -1.410815  -1.671573
N    -2.895327  2.873996  3.697935
C    -4.166925  2.703176  2.985583
H    -2.856151  3.626251  4.384470
H    -4.006532  2.635719  1.903263
H    -4.782479  3.584770  3.184222
H    -4.707962  1.816231  3.338682
Ca    1.114254  3.177677  3.894594
