36
Energy: -39737.5527634 eV PBE+vdW (tier 2 basis)
C    -0.885654  0.609041  0.397478
C    -1.566237  -0.048555  1.556761
O    -2.065070  -1.199682  1.437479
H    -0.085694  -0.047041  0.030126
H    -0.465841  1.592771  0.631191
H    -1.611857  0.715417  -0.420253
N    -1.621464  0.635881  2.717688
C    -2.329866  0.263950  3.960576
C    -1.705782  -1.003514  4.585801
O    -2.050097  -2.159230  4.201534
H    -1.201951  1.560745  2.706334
H    -2.140117  1.098507  4.646439
C    -3.850618  0.141586  3.769349
C    -4.620357  -0.170078  5.065449
C    -5.870667  -1.027831  4.815209
N    -5.483317  -2.327216  4.263475
C    -5.844855  -2.862265  3.065793
N    -7.080754  -2.577800  2.602136
N    -4.950533  -3.599096  2.406037
H    -4.059206  -0.629593  3.016428
H    -4.203460  1.085900  3.333346
H    -4.922856  0.757563  5.569666
H    -3.981815  -0.705579  5.787594
H    -6.537672  -0.532792  4.097352
H    -6.430381  -1.158021  5.751700
H    -4.724835  -2.809074  4.734528
H    -7.351720  -2.858084  1.667507
H    -7.830701  -2.328165  3.236867
H    -5.409533  -4.195833  1.712840
N    -0.804913  -0.865381  5.552514
C    -0.264456  0.366752  6.138702
H    -0.442588  -1.746500  5.916654
H    -1.045162  0.943371  6.649934
H    0.228935  0.986523  5.380595
H    0.485805  0.082592  6.881594
Ca    -2.705710  -3.105271  2.313573
