36
Energy: -39736.6448922 eV PBE+vdW (tier 2 basis)
C    -1.016123  0.566220  1.763688
C    -0.307112  0.369383  3.080611
O    0.478688  1.319958  3.466974
H    -0.871998  1.599583  1.435708
H    -2.090638  0.361708  1.837491
H    -0.593785  -0.097901  0.995453
N    -0.356597  -0.699893  3.881286
C    -0.617292  -2.071916  3.464333
C    0.728662  -2.590006  2.882833
O    1.801272  -2.038726  3.261542
H    -7.157569  -3.782681  4.710965
H    -0.715153  -2.643665  4.406998
C    -1.897582  -2.393216  2.658535
C    -3.155995  -1.892149  3.384910
C    -4.455107  -1.988475  2.574396
N    -4.967024  -3.350948  2.357848
C    -5.928731  -3.952300  3.074084
N    -6.521153  -5.056952  2.596005
N    -6.301817  -3.471363  4.266684
H    -1.968958  -3.487879  2.540407
H    -1.847917  -1.963449  1.648230
H    -3.023721  -0.833155  3.649502
H    -3.265596  -2.425428  4.343096
H    -4.319608  -1.543715  1.578583
H    -5.250567  -1.403573  3.055923
H    -4.638632  -3.850988  1.538884
H    -7.107837  -5.636113  3.185152
H    -6.479205  -5.296997  1.612895
H    -5.765797  -2.759562  4.744997
N    0.755327  -3.619775  2.043231
C    1.995440  -4.202789  1.523524
H    -0.124297  -4.031440  1.755080
H    1.737863  -5.018539  0.843192
H    2.608087  -4.593911  2.344249
H    2.573695  -3.446624  0.980280
Ca    1.767502  -0.120320  4.468066
