36
Energy: -39736.2499443 eV PBE+vdW (tier 2 basis)
C    -2.096865  -0.871475  0.277672
C    -1.578319  -0.700982  1.675585
O    -0.495036  0.038671  1.791471
H    -2.991724  -1.498478  0.238737
H    -1.316059  -1.310595  -0.358015
H    -2.336856  0.111885  -0.149138
N    -2.202549  -1.284482  2.663955
C    -1.668598  -1.171619  4.043283
C    -1.591201  0.290228  4.511445
O    -0.500911  0.955167  4.518620
H    -3.445299  -2.728956  2.235613
H    -2.435620  -1.631721  4.682759
C    -0.342092  -1.958107  4.248103
C    -0.388152  -3.197063  5.173265
C    -1.584849  -4.160303  5.037699
N    -2.077287  -4.231595  3.650566
C    -3.373095  -4.424397  3.329660
N    -4.095058  -5.336451  3.993665
N    -3.893498  -3.659003  2.367902
H    0.427475  -1.294470  4.668758
H    0.028449  -2.251236  3.255136
H    -0.362605  -2.880544  6.224896
H    0.544472  -3.752902  5.007386
H    -2.419721  -3.834444  5.676153
H    -1.276089  -5.152896  5.393199
H    -1.587991  -3.650609  2.975685
H    -3.637533  -6.091071  4.492356
H    -5.097339  -5.408037  3.863990
H    -4.770068  -3.889562  1.914531
N    -2.705965  0.886064  4.915447
C    -4.057067  0.325273  4.973639
H    -2.587141  1.847438  5.232815
H    -4.241641  -0.312915  4.104011
H    -4.771119  1.154006  4.950269
H    -4.211811  -0.238123  5.903574
Ca    0.800615  1.206787  2.834476
