36
Energy: -39736.2055544 eV PBE+vdW (tier 2 basis)
C    -0.104332  -0.501066  0.581375
C    -0.625491  -0.779660  1.952436
O    -0.094425  -1.724504  2.639758
H    -0.042748  -1.435830  0.010704
H    0.925823  -0.127433  0.679433
H    -0.689917  0.232946  0.022870
N    -1.611441  -0.088597  2.502499
C    -2.374412  1.073806  2.052820
C    -2.495573  1.907379  3.368344
O    -2.436946  1.290035  4.441462
H    -1.752776  -0.164532  3.532321
H    -1.829142  1.616864  1.270974
C    -3.806632  0.713357  1.592675
C    -3.995770  -0.285834  0.430124
C    -4.357865  -1.739275  0.803935
N    -3.223791  -2.679713  0.844397
C    -2.718543  -3.370133  1.874516
N    -2.999988  -2.970908  3.213102
N    -1.845711  -4.354529  1.821951
H    -4.279506  1.663952  1.309859
H    -4.372155  0.370083  2.474437
H    -3.133189  -0.284199  -0.252624
H    -4.833667  0.082861  -0.175937
H    -5.056898  -2.140616  0.058003
H    -4.889090  -1.781961  1.763925
H    -2.865526  -2.954077  -0.068166
H    -3.579782  -3.665480  3.691531
H    -3.432934  -2.051741  3.305954
H    -1.712753  -4.768994  0.897730
N    -2.705378  3.221635  3.255147
C    -2.906248  4.088407  4.419492
H    -2.710877  3.645008  2.333558
H    -2.951292  5.125336  4.076782
H    -2.074914  3.973424  5.124204
H    -3.841297  3.834238  4.933018
Ca    -0.516220  -3.600003  3.520255
