36
Energy: -39735.6675819 eV PBE+vdW (tier 2 basis)
C    -0.179259  1.392614  0.578782
C    0.271394  0.461724  1.658726
O    1.516576  0.270332  1.855879
H    0.004772  2.438734  0.864544
H    -1.234348  1.273856  0.316979
H    0.438688  1.194692  -0.306978
N    -0.632947  -0.189476  2.421004
C    -1.748119  0.532904  3.059166
C    -1.166036  1.197012  4.353274
O    0.107110  1.568218  4.258234
H    -0.211228  -0.907334  3.013455
H    -2.004455  1.362445  2.382296
C    -2.986960  -0.358467  3.247420
C    -4.308169  0.414121  3.081012
C    -5.564911  -0.319842  3.619695
N    -6.243943  0.424652  4.697629
C    -5.585523  0.902722  5.761163
N    -6.013506  1.994670  6.405560
N    -4.459512  0.295433  6.200277
H    -2.929963  -0.842044  4.231725
H    -2.940621  -1.162215  2.500158
H    -4.456721  0.635506  2.015027
H    -4.230520  1.389135  3.581012
H    -5.319446  -1.336673  3.962760
H    -6.314811  -0.448795  2.832585
H    -7.201750  0.722954  4.538819
H    -5.702836  2.161850  7.356160
H    -6.742799  2.591032  6.031683
H    -4.358276  -0.663876  5.882219
N    -1.903247  1.364956  5.391061
C    -1.296821  2.050358  6.534381
H    -3.555591  0.812707  6.094979
H    -0.476228  1.459242  6.969593
H    -2.050910  2.196008  7.315668
H    -0.892249  3.034160  6.255520
Ca    2.062587  1.316417  3.690536
