36
Energy: -39735.8750688 eV PBE+vdW (tier 2 basis)
C    1.307406  -0.680715  0.465896
C    0.904589  -0.269891  1.835567
O    1.800538  0.082806  2.688801
H    2.168685  -0.084105  0.144850
H    0.484845  -0.590052  -0.263949
H    1.634010  -1.732320  0.501473
N    -0.381487  -0.302015  2.180811
C    -0.905516  0.089234  3.499861
C    -0.373741  -0.841768  4.615781
O    0.672690  -0.515867  5.270001
H    -1.109331  -0.377401  1.411979
H    -0.508689  1.086737  3.754252
C    -2.443792  0.166337  3.493894
C    -3.090253  1.144181  2.487818
C    -3.594142  0.477659  1.199600
N    -2.510421  0.003332  0.325294
C    -1.920103  0.841842  -0.673540
N    -2.244518  2.178322  -0.605163
N    -1.072537  0.264210  -1.444638
H    -2.740819  0.446785  4.513640
H    -2.869981  -0.836080  3.316820
H    -2.404500  1.969451  2.243768
H    -3.955939  1.609099  2.978347
H    -4.284528  1.157337  0.675176
H    -4.203992  -0.398699  1.458581
H    -2.708025  -0.894927  -0.112971
H    -1.879428  2.753191  -1.357614
H    -3.183402  2.445269  -0.326420
H    -0.719062  0.877277  -2.182500
N    -1.021799  -1.958938  4.886510
C    -0.651178  -2.927971  5.919354
H    -1.856529  -2.157194  4.340354
H    -0.064621  -3.747019  5.482953
H    -1.564931  -3.340221  6.358696
H    -0.066620  -2.427923  6.695600
Ca    2.542129  0.270252  4.616277
