36
Energy: -39734.9357235 eV PBE+vdW (tier 2 basis)
C    -1.821483  1.651906  1.343076
C    -1.013068  0.584274  1.927290
O    0.271666  0.673460  1.929512
H    -2.196798  1.457738  0.278594
H    -1.212004  2.559169  1.272817
H    -2.718700  1.836718  1.941537
N    -1.539305  -0.519006  2.556664
C    -2.416218  -1.557796  1.993492
C    -1.515464  -2.536715  1.198058
O    -0.382128  -2.145643  0.744943
H    -0.838910  -0.932390  3.173675
H    -2.829318  -2.101914  2.856798
C    -3.576637  -1.077615  1.104953
C    -4.708736  -0.362053  1.854791
C    -5.715107  0.295540  0.887680
N    -5.108471  1.326686  0.046485
C    -4.457950  1.059890  -1.148483
N    -5.194160  0.328618  -2.048716
N    -3.231862  1.475111  -1.304389
H    -3.992864  -1.959498  0.597215
H    -3.173971  -0.446431  0.301807
H    -4.302257  0.406852  2.529437
H    -5.246333  -1.074148  2.500617
H    -6.531870  0.744773  1.467665
H    -6.169981  -0.462519  0.237656
H    -4.657548  2.081429  0.554047
H    -4.779551  0.155680  -2.957184
H    -6.196786  0.490211  -2.071200
H    -2.923835  1.446342  -2.279420
N    -1.903614  -3.780931  0.980276
C    -3.131035  -4.459031  1.405243
H    -1.258828  -4.334245  0.414522
H    -2.878155  -5.485722  1.690238
H    -3.856891  -4.488305  0.582472
H    -3.579334  -3.959080  2.267787
Ca    1.279175  -0.792874  0.782495
