36
Energy: -39734.9095785 eV PBE+vdW (tier 2 basis)
C    -2.222969  0.234059  -0.625868
C    -0.978774  0.114463  0.188751
O    0.163724  0.086715  -0.378635
H    -1.976235  0.202514  -1.690223
H    -2.716946  1.191383  -0.404657
H    -2.949802  -0.556000  -0.392160
N    -1.026944  0.031178  1.539691
C    -1.937291  -0.870197  2.268617
C    -1.726158  -2.305522  1.697424
O    -0.700366  -2.542159  0.948333
H    -0.109209  0.136848  1.971260
H    -1.518920  -0.904101  3.287124
C    -3.409347  -0.385749  2.379391
C    -3.968441  -0.305539  3.813270
C    -3.949885  -1.597869  4.635341
N    -4.581547  -2.706067  3.897705
C    -4.581179  -4.055591  4.397825
N    -3.568865  -4.328490  5.302704
N    -5.307840  -4.996223  3.929122
H    -4.057134  -1.008336  1.747359
H    -3.455466  0.625973  1.959274
H    -5.001827  0.064832  3.737433
H    -3.422833  0.463361  4.380126
H    -4.437847  -1.405273  5.604770
H    -2.913149  -1.897135  4.856286
H    -5.519923  -2.465924  3.576314
H    -3.631348  -5.286750  5.640976
H    -3.429304  -3.667832  6.061836
H    -5.952741  -4.694009  3.194527
N    -2.571341  -3.242120  2.027656
C    -2.427985  -4.650760  1.647547
H    -3.401742  -2.991605  2.650746
H    -3.194562  -5.222343  2.177996
H    -1.435542  -5.022889  1.927441
H    -2.568137  -4.772610  0.565829
Ca    0.913965  -1.937415  -0.280763
