36
Energy: -39736.2189401 eV PBE+vdW (tier 2 basis)
C    -1.226253  0.649815  0.353368
C    -0.825405  0.100650  1.685130
O    0.397026  -0.184495  1.904491
H    -0.992367  -0.101357  -0.414881
H    -0.622895  1.537001  0.122014
H    -2.288068  0.907838  0.286199
N    -1.777316  -0.078185  2.606688
C    -1.739098  -0.762535  3.917842
C    -0.914813  -0.052072  5.005049
O    0.293128  0.344496  4.773061
H    -2.704546  0.217440  2.314892
H    -2.774157  -0.705303  4.269398
C    -1.371729  -2.262658  3.821756
C    -2.473810  -3.159618  3.232819
C    -3.795004  -3.240962  4.031275
N    -3.633577  -3.610285  5.431353
C    -3.367504  -2.718644  6.433352
N    -2.688240  -3.196537  7.514500
N    -3.651383  -1.431326  6.398808
H    -1.127850  -2.605940  4.837887
H    -0.454303  -2.385306  3.228181
H    -2.054710  -4.172211  3.141167
H    -2.720820  -2.848155  2.205456
H    -4.444453  -3.987309  3.557238
H    -4.355739  -2.297735  3.971489
H    -3.590063  -4.600846  5.646445
H    -2.846215  -2.725232  8.397869
H    -2.418978  -4.171392  7.568120
H    -4.387748  -1.221678  5.723736
N    -1.480580  0.051161  6.175079
C    -0.805464  0.615512  7.338816
H    -2.462652  -0.487037  6.338307
H    -1.540393  0.713286  8.142878
H    -0.391101  1.603948  7.108292
H    0.009890  -0.038695  7.677566
Ca    1.838342  0.242560  3.393156
