36
Energy: -39735.8676143 eV PBE+vdW (tier 2 basis)
C    1.475569  1.233599  0.519396
C    0.699834  1.141695  1.790317
O    1.044438  1.862327  2.798212
H    1.335134  2.237392  0.091794
H    2.546414  1.131714  0.736447
H    1.171614  0.477421  -0.211231
N    -0.339711  0.317535  1.850365
C    -1.247771  0.198282  3.008430
C    -0.533315  -0.569045  4.143402
O    0.216860  0.067455  4.957713
H    -0.591099  -0.188957  0.943230
H    -1.416934  1.211549  3.409407
C    -2.596554  -0.418055  2.606334
C    -3.513593  0.488853  1.744769
C    -4.292424  -0.268074  0.644609
N    -3.508834  -0.496072  -0.588323
C    -2.282400  -1.147855  -0.468044
N    -2.354049  -2.438778  0.003300
N    -1.109912  -0.615414  -0.687326
H    -3.131218  -0.676048  3.531113
H    -2.414948  -1.365184  2.073738
H    -2.928847  1.288364  1.262575
H    -4.231423  0.997011  2.403201
H    -5.172200  0.313424  0.346318
H    -4.674845  -1.225366  1.024779
H    -3.404364  0.370109  -1.113818
H    -1.509433  -2.979834  -0.156089
H    -3.208549  -2.941573  -0.217524
H    -1.227703  0.344383  -1.026543
N    -0.708170  -1.872314  4.241842
C    -0.099690  -2.746964  5.244570
H    -1.331464  -2.304091  3.562112
H    -0.868512  -3.412599  5.651625
H    0.321316  -2.139453  6.048483
H    0.691446  -3.352867  4.784792
Ca    1.355519  1.868683  4.857627
