36
Energy: -39735.008362 eV PBE+vdW (tier 2 basis)
C    -0.253385  1.348183  -0.396619
C    -0.010174  0.596049  0.866666
O    1.174538  0.471295  1.329209
H    -0.066694  2.422664  -0.250566
H    -1.261026  1.205948  -0.796121
H    0.484403  1.005622  -1.135812
N    -1.036522  0.051679  1.551333
C    -2.275514  0.781570  1.849379
C    -1.893041  2.054772  2.634154
O    -0.707155  2.173720  3.126769
H    -0.753750  -0.593586  2.291740
H    -2.778441  1.070886  0.915439
C    -3.227116  -0.100497  2.672215
C    -3.801127  -1.306150  1.923889
C    -4.482186  -1.003766  0.580036
N    -5.246766  0.258783  0.498083
C    -6.378253  0.476907  1.312537
N    -7.440960  1.038272  0.632638
N    -6.283547  0.269902  2.582300
H    -4.091983  0.495959  3.000209
H    -2.706203  -0.432374  3.586470
H    -4.531688  -1.753480  2.608181
H    -3.033504  -2.073259  1.735961
H    -5.111784  -1.872046  0.323942
H    -3.723351  -0.933831  -0.214213
H    -5.428487  0.505814  -0.471590
H    -7.636399  0.730331  -0.314958
H    -8.276468  1.231363  1.174512
H    -7.180088  0.392047  3.057732
N    -2.775753  3.012912  2.820831
C    -4.161400  3.089059  2.344413
H    -2.452887  3.785934  3.404344
H    -4.359840  4.120491  2.035288
H    -4.853138  2.806632  3.147989
H    -4.323730  2.411285  1.499860
Ca    1.345216  1.605018  3.155205
