36
Energy: -39735.5606493 eV PBE+vdW (tier 2 basis)
C    -1.027940  -0.349334  -0.288126
C    -0.726775  0.056940  1.115763
O    0.368699  0.653115  1.387637
H    -1.976838  -0.885716  -0.389278
H    -0.212874  -0.974916  -0.674763
H    -1.059285  0.554746  -0.913237
N    -1.623855  -0.202821  2.069176
C    -1.606318  0.278663  3.463320
C    -0.617400  -0.558318  4.313535
O    0.630158  -0.257810  4.179774
H    -2.481265  -0.674143  1.785266
H    -1.104668  1.258381  3.440138
C    -3.034828  0.517936  3.987964
C    -4.164339  -0.386419  3.450776
C    -5.313712  -0.592894  4.470085
N    -5.669576  0.584132  5.236534
C    -5.214945  0.771005  6.527662
N    -5.926255  1.702539  7.247143
N    -4.148395  0.137523  6.926163
H    -3.284550  1.557542  3.741423
H    -3.019493  0.481837  5.089838
H    -3.807482  -1.397556  3.184912
H    -4.574578  0.049368  2.526741
H    -5.032795  -1.373748  5.187886
H    -6.201071  -0.950799  3.931539
H    -6.470368  1.125406  4.937434
H    -6.921065  1.805541  7.077369
H    -5.654449  1.847673  8.211689
H    -3.979380  0.290405  7.921605
N    -0.933639  -1.510728  5.164801
C    -2.220839  -2.101932  5.551946
H    -0.114948  -1.888576  5.644151
H    -2.867748  -1.360897  6.062690
H    -2.000720  -2.921773  6.240675
H    -2.728126  -2.518479  4.675533
Ca    1.911701  0.722706  2.827133
