36
Energy: -39736.107684 eV PBE+vdW (tier 2 basis)
C    -0.533904  2.333565  0.939026
C    -0.873983  1.483014  2.132141
O    -0.904713  2.131492  3.300798
H    0.425412  2.853685  1.077515
H    -1.296395  3.117061  0.827710
H    -0.495441  1.735764  0.025169
N    -1.102690  0.221801  1.955410
C    -1.652004  -0.621789  2.994840
C    -0.912671  -0.722172  4.338701
O    0.271897  -0.278245  4.515426
H    0.151599  -3.014115  -2.695200
H    -2.658223  -0.245449  3.260394
C    -1.856891  -2.033301  2.370532
C    -0.582046  -2.630523  1.767856
C    -0.911875  -3.869251  0.924894
N    0.236439  -4.441855  0.209926
C    0.595370  -4.158753  -1.047959
N    1.486229  -4.939433  -1.679281
N    0.074545  -3.103588  -1.689409
H    -2.602051  -1.890124  1.574792
H    -2.302243  -2.729344  3.094171
H    0.140241  -2.903217  2.553275
H    -0.102278  -1.856776  1.149404
H    -1.691959  -3.641701  0.183516
H    -1.319585  -4.673133  1.552524
H    0.803619  -5.123283  0.703556
H    1.927385  -4.643728  -2.541650
H    1.698206  -5.872786  -1.348240
H    -0.431622  -2.381258  -1.193430
N    -1.519051  -1.296511  5.380793
C    -2.880533  -1.815333  5.506979
H    -0.929636  -1.374194  6.208662
H    -3.558112  -1.304979  4.816211
H    -3.227174  -1.628949  6.528867
H    -2.916608  -2.896143  5.319219
Ca    0.680925  1.836625  4.534121
