36
Energy: -39737.4393981 eV PBE+vdW (tier 2 basis)
C    -1.189909  0.676677  0.769602
C    -1.754615  -0.014138  1.972027
O    -2.194354  -1.190005  1.889797
H    -0.318884  0.109813  0.412946
H    -0.888308  1.712575  0.955641
H    -1.933397  0.656404  -0.037845
N    -1.779086  0.673323  3.131761
C    -2.267140  0.236352  4.456585
C    -1.385173  -0.931171  4.972375
O    -1.650959  -2.120124  4.642289
H    -1.419670  1.621976  3.090052
H    -2.096417  1.110170  5.093415
C    -3.764456  -0.158740  4.565016
C    -4.754727  0.341702  3.502472
C    -5.834798  -0.716100  3.232272
N    -5.224563  -1.912322  2.605486
C    -5.725469  -3.225715  2.799601
N    -6.992901  -3.383496  3.211110
N    -4.826765  -4.161799  2.612402
H    -4.100433  0.158576  5.561507
H    -3.817419  -1.255567  4.596457
H    -4.250878  0.583864  2.556781
H    -5.245889  1.268489  3.825352
H    -6.628260  -0.294394  2.597716
H    -6.293885  -1.026993  4.180426
H    -5.018817  -1.755259  1.617122
H    -7.346584  -4.301860  3.458203
H    -7.678013  -2.641479  3.125103
H    -5.203236  -5.111460  2.604094
N    -0.345516  -0.661334  5.754165
C    0.120818  0.640761  6.241721
H    0.185532  -1.482382  6.043492
H    1.017533  0.471405  6.843954
H    -0.628870  1.122087  6.881777
H    0.393652  1.304624  5.412306
Ca    -2.799143  -3.030458  2.935820
