36
Energy: -39735.0058806 eV PBE+vdW (tier 2 basis)
C    -1.296521  -0.914913  -0.053573
C    -0.947029  -1.112311  1.366655
O    0.255215  -1.381274  1.733758
H    -1.701126  0.090561  -0.243329
H    -2.136359  -1.612060  -0.329173
H    -0.419587  -1.080228  -0.684391
N    -1.886789  -1.021318  2.340340
C    -2.894081  0.028092  2.367313
C    -2.157676  1.363868  2.681783
O    -0.881758  1.396141  2.778339
H    -1.569097  -1.348973  3.254064
H    -3.325985  0.126330  1.353594
C    -4.049423  -0.289224  3.355760
C    -5.442394  0.140038  2.847468
C    -6.257024  -0.994447  2.168407
N    -5.486074  -1.934280  1.366216
C    -4.754202  -1.672217  0.232112
N    -4.846597  -0.357373  -0.249636
N    -3.928969  -2.473982  -0.359385
H    -3.839620  0.168547  4.332441
H    -4.045058  -1.376428  3.512419
H    -5.349748  0.982483  2.143070
H    -6.046306  0.513300  3.684882
H    -7.083942  -0.546536  1.593389
H    -6.736499  -1.595614  2.950311
H    -5.504368  -2.904280  1.653907
H    -4.501461  -0.319339  -1.207143
H    -5.776689  0.053872  -0.194865
H    -3.881103  -3.393432  0.086643
N    -2.891357  2.449582  2.830090
C    -2.404675  3.799373  3.119872
H    -3.900231  2.335912  2.742112
H    -2.733421  4.483787  2.328893
H    -1.314372  3.790895  3.167511
H    -2.812151  4.139301  4.079582
Ca    1.018227  0.378545  2.661198
