36
Energy: -39735.899802 eV PBE+vdW (tier 2 basis)
C    -0.430231  1.921743  1.066871
C    -0.632465  1.112136  2.319106
O    0.448603  0.972737  3.074692
H    0.388368  1.511929  0.458753
H    -0.126987  2.939832  1.348296
H    -1.333354  1.980119  0.452986
N    -1.808365  0.620261  2.575183
C    -2.139258  0.023104  3.864618
C    -1.225400  -1.071857  4.434090
O    -0.375502  -1.710933  3.725178
H    -3.150812  0.782627  1.096157
H    -2.129705  0.828977  4.620717
C    -3.603047  -0.505855  3.799349
C    -3.801520  -1.671569  2.816833
C    -5.210830  -1.799480  2.205960
N    -5.816509  -0.548990  1.693687
C    -5.158529  0.489702  1.168136
N    -5.677542  1.723951  1.224183
N    -3.945444  0.344768  0.582738
H    -4.203034  0.366666  3.511905
H    -3.957999  -0.788588  4.798300
H    -3.614325  -2.631192  3.320589
H    -3.043082  -1.610836  2.026043
H    -5.914536  -2.158625  2.967763
H    -5.200658  -2.559219  1.410557
H    -6.812053  -0.435290  1.863051
H    -5.341018  2.430081  0.578993
H    -6.487739  1.946381  1.790944
H    -3.720601  -0.607520  0.313425
N    -1.330747  -1.401747  5.722900
C    -2.164053  -0.827789  6.779929
H    -0.755438  -2.199631  5.991084
H    -1.615715  -0.895776  7.725240
H    -3.108226  -1.377444  6.885405
H    -2.376292  0.226853  6.581589
Ca    1.474500  -0.791175  3.135247
