36
Energy: -39736.9467482 eV PBE+vdW (tier 2 basis)
C    1.103655  -4.334539  1.600819
C    1.229131  -3.424183  2.776948
O    2.324406  -3.240731  3.368939
H    1.351562  -3.786617  0.677825
H    0.099219  -4.758064  1.496430
H    1.841038  -5.138736  1.700758
N    0.135642  -2.737571  3.227375
C    -0.836117  -2.066633  2.377239
C    -0.088518  -1.130827  1.388919
O    1.077607  -0.724202  1.654616
H    0.304101  -2.271636  4.117853
H    -1.389866  -2.810689  1.785145
C    -1.866165  -1.294379  3.247194
C    -1.393038  -0.606792  4.544518
C    -0.323050  0.503851  4.490915
N    1.015214  0.007757  4.984653
C    2.004273  1.053714  5.188674
N    1.807615  1.916380  6.195977
N    3.004736  1.012849  4.358210
H    -2.646527  -2.010322  3.538042
H    -2.363273  -0.554134  2.605025
H    -1.098080  -1.363990  5.291663
H    -2.301948  -0.167653  4.977312
H    -0.657753  1.349772  5.108281
H    -0.175982  0.894242  3.476312
H    0.854818  -0.452213  5.888353
H    2.481116  2.647095  6.406087
H    0.982308  1.882116  6.783322
H    3.693861  1.758570  4.480159
N    -0.733515  -0.786862  0.282966
C    -0.229329  0.119289  -0.750246
H    -1.657401  -1.186616  0.133061
H    0.764934  0.468528  -0.463999
H    -0.905716  0.975943  -0.854573
H    -0.171857  -0.409228  -1.709156
Ca    2.669647  -0.985302  3.198345
