36
Energy: -39735.0507738 eV PBE+vdW (tier 2 basis)
C    -0.979630  -1.035875  0.498943
C    -1.106229  -0.911740  1.963805
O    -0.189872  -1.333807  2.758788
H    -1.037049  -0.059346  -0.004867
H    -1.865482  -1.603956  0.099007
H    -0.040851  -1.529591  0.236537
N    -2.199843  -0.336636  2.524032
C    -2.783257  0.899526  2.012622
C    -1.677605  1.980493  2.044679
O    -0.607477  1.785775  2.728167
H    -2.248072  -0.447729  3.538056
H    -3.118140  0.749965  0.968866
C    -3.992138  1.334144  2.872766
C    -5.163591  0.343403  2.995975
C    -5.971958  0.003358  1.721647
N    -5.489449  -1.150570  0.969684
C    -4.503668  -1.165129  0.013487
N    -4.313177  0.048215  -0.678495
N    -3.725439  -2.153125  -0.288265
H    -4.370110  2.282509  2.466943
H    -3.628979  1.573277  3.886649
H    -5.856755  0.797427  3.719352
H    -4.832327  -0.596985  3.463165
H    -6.041715  0.878099  1.061122
H    -7.003716  -0.220172  2.022134
H    -5.645395  -2.049081  1.415351
H    -5.185793  0.517771  -0.918570
H    -3.784421  -0.143756  -1.528806
H    -3.887151  -2.973579  0.302166
N    -1.821048  3.107903  1.373123
C    -2.915275  3.511509  0.485645
H    -1.068006  3.784671  1.503047
H    -3.451425  2.633402  0.113069
H    -2.485884  4.048416  -0.366876
H    -3.608635  4.181536  1.009881
Ca    0.792468  0.383118  3.567209
