36
Energy: -39734.7588508 eV PBE+vdW (tier 2 basis)
C    -1.042748  -0.217294  -1.597739
C    -0.695772  -0.876229  -0.313959
O    -0.400146  -2.127343  -0.295386
H    -0.577267  0.784032  -1.730222
H    -2.129469  -0.045982  -1.663426
H    -0.757564  -0.884884  -2.416816
N    -0.668706  -0.233856  0.883589
C    -1.698671  0.671031  1.406627
C    -2.948723  -0.190143  1.728567
O    -2.996841  -1.429224  1.411869
H    -0.207073  -0.788892  1.604799
H    -1.303076  1.043975  2.363937
C    -1.993166  1.882411  0.496278
C    -2.240793  3.233571  1.179955
C    -1.983065  4.398743  0.191431
N    -0.590104  4.529341  -0.196025
C    0.039385  3.790838  -1.184433
N    1.407780  3.867229  -1.173844
N    -0.535314  2.984838  -2.035546
H    -2.822200  1.653671  -0.188822
H    -1.104827  2.002108  -0.135222
H    -1.564205  3.356991  2.039776
H    -3.273424  3.326817  1.558470
H    -2.283781  5.340406  0.665964
H    -2.626884  4.294103  -0.696897
H    -0.070810  5.286166  0.232848
H    1.863557  3.637905  -2.049265
H    1.881308  4.548647  -0.594574
H    -1.545819  3.138729  -2.061231
N    -3.961290  0.396212  2.336038
C    -5.215118  -0.267343  2.709906
H    -3.866383  1.385522  2.556691
H    -5.878214  0.477692  3.156448
H    -5.023429  -1.060790  3.442024
H    -5.698834  -0.695066  1.824314
Ca    -2.010027  -3.181465  0.626834
