36
Energy: -39735.1860297 eV PBE+vdW (tier 2 basis)
C    -1.193283  -1.145069  1.502953
C    -1.649486  -0.872927  2.892778
O    -1.060916  -1.360983  3.894334
H    -0.436667  -0.398211  1.208037
H    -2.011228  -1.111064  0.776021
H    -0.706259  -2.125372  1.481696
N    -2.642703  0.064525  3.212619
C    -2.974650  1.178870  2.314060
C    -1.923832  2.274678  2.603058
O    -1.208974  2.186349  3.656006
H    -3.497222  -0.422108  3.677590
H    -2.876219  0.869221  1.262247
C    -4.418835  1.709540  2.544986
C    -5.502566  1.225591  1.560231
C    -6.165315  -0.140362  1.799330
N    -5.298583  -1.302157  1.612823
C    -4.617465  -2.013337  2.563731
N    -4.741310  -1.522542  3.901113
N    -3.776224  -2.973173  2.409248
H    -4.390324  2.804998  2.481193
H    -4.708371  1.498034  3.586362
H    -5.107878  1.258093  0.532107
H    -6.314039  1.968026  1.584627
H    -7.003750  -0.239124  1.097025
H    -6.628796  -0.165545  2.796035
H    -5.270078  -1.699445  0.680014
H    -4.452976  -2.279672  4.524302
H    -5.676081  -1.203049  4.155829
H    -3.677751  -3.276443  1.436670
N    -1.761440  3.297261  1.779756
C    -2.462070  3.593628  0.529324
H    -1.069599  3.981529  2.088748
H    -2.892751  2.686096  0.097246
H    -1.742968  4.009703  -0.184004
H    -3.259292  4.329531  0.696857
Ca    -1.056699  0.529841  5.060649
