36
Energy: -39737.4192572 eV PBE+vdW (tier 2 basis)
C    0.268256  -0.507506  -0.353282
C    -0.201996  0.059169  0.950545
O    0.538138  0.025118  1.966484
H    1.169596  0.035790  -0.668768
H    -0.477074  -0.455668  -1.153519
H    0.566114  -1.553414  -0.202492
N    -1.438172  0.592685  0.989265
C    -2.132021  1.274442  2.101666
C    -1.264293  2.408340  2.704588
O    -0.449276  2.180796  3.637462
H    -1.954247  0.563579  0.115241
H    -2.980271  1.754856  1.598915
C    -2.729494  0.390466  3.244316
C    -2.746166  -1.143097  3.133218
C    -1.484925  -1.920663  3.535485
N    -0.880214  -1.382326  4.803386
C    0.220407  -2.158699  5.321524
N    -0.067778  -3.246309  6.053128
N    1.394203  -1.675937  5.030623
H    -3.772360  0.714222  3.349982
H    -2.247809  0.683109  4.185933
H    -3.026986  -1.470446  2.122090
H    -3.569861  -1.483716  3.778491
H    -0.704662  -1.880967  2.767712
H    -1.758592  -2.980524  3.653941
H    -1.613171  -1.306796  5.515767
H    0.663163  -3.800023  6.489270
H    -1.016732  -3.586889  6.155835
H    2.182515  -2.250177  5.336533
N    -1.447120  3.628038  2.210985
C    -0.729760  4.820411  2.663934
H    -2.127302  3.746738  1.465721
H    -1.385423  5.689435  2.554320
H    0.177366  4.977071  2.065760
H    -0.455095  4.699229  3.715504
Ca    0.859577  0.416941  4.102189
