36
Energy: -39735.7266096 eV PBE+vdW (tier 2 basis)
C    -0.628715  -0.226603  -0.165592
C    -0.520265  -0.146818  1.321776
O    0.629862  0.024809  1.866431
H    -1.450792  -0.879466  -0.492750
H    0.317863  -0.590013  -0.578522
H    -0.802630  0.781967  -0.571426
N    -1.633285  -0.235124  2.041619
C    -1.802119  -0.376397  3.498375
C    -1.362952  0.851450  4.307125
O    -0.135991  1.170896  4.431559
H    -2.518683  -0.521874  1.535785
H    -2.893631  -0.446330  3.607640
C    -1.200675  -1.681049  4.078440
C    -1.509496  -2.935599  3.247539
C    -3.013514  -3.288891  3.052451
N    -3.363846  -3.646304  1.677875
C    -3.375134  -2.721668  0.644519
N    -3.945442  -1.454079  0.992232
N    -2.951140  -2.843631  -0.557029
H    -1.581196  -1.786464  5.106072
H    -0.107262  -1.586156  4.170152
H    -0.993536  -3.780128  3.723331
H    -1.048823  -2.831827  2.254520
H    -3.664076  -2.465287  3.377366
H    -3.287939  -4.137292  3.690136
H    -3.017705  -4.556560  1.385419
H    -4.215805  -1.001698  0.116148
H    -4.779144  -1.554285  1.574468
H    -2.483288  -3.736542  -0.733231
N    -2.309335  1.541292  4.921579
C    -2.090728  2.698396  5.791085
H    -3.272855  1.253265  4.770755
H    -2.791556  2.646645  6.630627
H    -2.265336  3.628639  5.235130
H    -1.065082  2.682329  6.167395
Ca    1.713518  0.855086  3.428124
