36
Energy: -39737.4331562 eV PBE+vdW (tier 2 basis)
C    -1.177527  -0.790480  0.073516
C    -1.449210  -0.500055  1.516155
O    -1.769596  -1.428241  2.305880
H    -0.349068  -1.508271  0.004309
H    -0.931871  0.097802  -0.517325
H    -2.059212  -1.280305  -0.360804
N    -1.348462  0.777281  1.927794
C    -1.601160  1.337443  3.272700
C    -0.487787  0.900494  4.255080
O    -0.509481  -0.258039  4.755240
H    -1.085708  1.451741  1.215635
H    -1.537627  2.423163  3.123667
C    -2.975449  1.017350  3.896893
C    -4.197410  0.955721  2.979953
C    -5.348689  0.176334  3.647308
N    -5.403267  -1.262770  3.332515
C    -5.131621  -2.278832  4.202552
N    -5.992988  -3.321484  4.183891
N    -4.046758  -2.252758  4.980588
H    -3.140337  1.773750  4.679178
H    -2.927791  0.077530  4.464031
H    -3.963718  0.476805  2.019992
H    -4.542913  1.971325  2.744512
H    -6.307446  0.597796  3.321054
H    -5.312164  0.288927  4.739179
H    -6.069216  -1.502791  2.604413
H    -5.754660  -4.203074  4.621634
H    -6.943457  -3.221618  3.845959
H    -4.197261  -2.878093  5.779094
N    0.458426  1.785336  4.541564
C    1.583312  1.551040  5.447560
H    0.402211  2.699478  4.100619
H    2.520507  1.505935  4.878957
H    1.427575  0.605863  5.972283
H    1.642008  2.370786  6.172240
Ca    -1.813648  -2.035583  4.391233
