36
Energy: -39735.4772433 eV PBE+vdW (tier 2 basis)
C    0.210656  0.797627  0.292701
C    0.116692  0.566575  1.759515
O    1.172770  0.620583  2.489810
H    0.443352  1.859514  0.123196
H    -0.717213  0.561190  -0.239445
H    1.043176  0.212413  -0.117547
N    -1.068175  0.312834  2.309810
C    -1.300820  0.223763  3.759748
C    -0.552729  -0.986781  4.358170
O    0.538063  -0.759732  4.992604
H    -1.947611  0.498956  1.754690
H    -0.822830  1.091744  4.245675
C    -2.810829  0.266672  4.066278
C    -3.493404  1.642627  3.924369
C    -3.313106  2.385437  2.591192
N    -3.439302  1.486817  1.429958
C    -3.092648  1.909317  0.103623
N    -2.372821  3.093280  0.040999
N    -3.257985  1.198250  -0.946444
H    -2.956522  -0.074500  5.101062
H    -3.327300  -0.463876  3.431446
H    -3.157266  2.315097  4.726870
H    -4.564269  1.475950  4.111632
H    -2.310133  2.832735  2.543933
H    -4.035176  3.217934  2.559504
H    -4.323121  0.978160  1.412659
H    -2.720358  3.874542  0.590676
H    -2.205308  3.359737  -0.927509
H    -3.709575  0.298112  -0.765137
N    -0.969811  -2.236091  4.240998
C    -2.118155  -2.798215  3.522159
H    -0.381814  -2.909084  4.734466
H    -1.875654  -3.834796  3.268576
H    -2.300914  -2.251868  2.592827
H    -3.016836  -2.793258  4.150636
Ca    2.251209  0.269029  4.247905
