36
Energy: -39734.6270855 eV PBE+vdW (tier 2 basis)
C    0.535548  0.389729  1.291694
C    0.051872  0.787625  2.643356
O    0.832900  1.380710  3.463158
H    0.700611  1.273242  0.657072
H    -0.131705  -0.309124  0.779340
H    1.520348  -0.081676  1.421742
N    -1.214368  0.528415  3.033960
C    -2.378133  0.826388  2.200406
C    -2.577761  2.376006  2.246936
O    -1.683086  3.130389  2.767598
H    -1.377312  0.645112  4.035917
H    -2.118364  0.585363  1.157928
C    -3.612966  0.009373  2.600258
C    -4.075017  0.175446  4.054146
C    -5.453204  -0.485532  4.328901
N    -5.532254  -1.898540  4.012205
C    -5.604078  -2.399498  2.706428
N    -6.355083  -1.598876  1.832931
N    -5.043574  -3.463293  2.257311
H    -3.379911  -1.044043  2.390066
H    -4.442602  0.233742  1.910543
H    -4.160755  1.244193  4.324513
H    -3.338049  -0.272844  4.742318
H    -6.225003  0.055316  3.766088
H    -5.696772  -0.355432  5.391735
H    -5.058487  -2.521502  4.658624
H    -6.477621  -2.093858  0.950976
H    -7.258991  -1.316893  2.209872
H    -4.441324  -3.915631  2.950993
N    -3.672949  2.863559  1.705047
C    -4.037725  4.276659  1.591397
H    -4.340366  2.185111  1.339728
H    -4.313927  4.492897  0.553121
H    -3.189183  4.898441  1.882850
H    -4.894899  4.491880  2.241496
Ca    0.177088  3.397577  3.809800
