36
Energy: -39734.9967269 eV PBE+vdW (tier 2 basis)
C    -0.078927  0.473354  -0.387093
C    -0.098336  0.001972  1.022051
O    0.975520  -0.361542  1.624439
H    -0.025671  1.574845  -0.425984
H    -0.995131  0.152463  -0.916921
H    0.819194  0.084629  -0.877106
N    -1.238412  0.025901  1.743152
C    -2.238811  1.073019  1.651655
C    -1.573047  2.377216  2.169958
O    -0.428827  2.326909  2.747393
H    -1.227853  -0.510306  2.610189
H    -2.488802  1.210404  0.587224
C    -3.530608  0.705146  2.432042
C    -4.674176  0.139498  1.569557
C    -4.725623  -1.388352  1.360782
N    -3.451899  -2.057506  1.106043
C    -2.704848  -1.841687  -0.041670
N    -1.524310  -2.577904  -0.101745
N    -2.909475  -0.945780  -0.953789
H    -3.896028  1.604593  2.943360
H    -3.264238  0.003951  3.238987
H    -4.682796  0.665433  0.604048
H    -5.626411  0.408114  2.047749
H    -5.459729  -1.598124  0.564123
H    -5.122485  -1.850225  2.273570
H    -3.396550  -2.992373  1.499583
H    -1.201615  -2.712817  -1.056098
H    -1.478374  -3.432334  0.445038
H    -3.840421  -0.533631  -0.889429
N    -2.166342  3.544374  1.999245
C    -3.437445  3.838902  1.331982
H    -1.669848  4.341034  2.400079
H    -3.690457  3.057578  0.610222
H    -3.332744  4.787545  0.795376
H    -4.247078  3.935343  2.066630
Ca    1.374431  1.183737  3.055564
