36
Energy: -39735.2045277 eV PBE+vdW (tier 2 basis)
C    0.317018  -0.492343  0.283463
C    0.032870  -0.270198  1.729507
O    0.988779  -0.130608  2.562132
H    0.872784  0.375218  -0.101264
H    -0.585951  -0.632977  -0.319215
H    0.972429  -1.365758  0.167641
N    -1.237681  -0.206203  2.145218
C    -1.666014  0.176018  3.503755
C    -1.407614  -0.986958  4.494126
O    -0.269818  -0.986701  5.091907
H    -1.966697  -0.302160  1.441121
H    -0.964824  0.953744  3.843930
C    -3.063910  0.803007  3.493414
C    -3.526954  1.193974  4.900407
C    -5.025671  1.564896  4.974251
N    -5.555977  1.465850  6.325257
C    -5.573110  0.229485  6.977568
N    -6.142128  -0.803678  6.202829
N    -5.063298  0.133402  8.151034
H    -3.793288  0.121209  3.032776
H    -3.016790  1.688907  2.841986
H    -2.918392  2.027191  5.283965
H    -3.368093  0.357992  5.599897
H    -5.599652  0.900914  4.311930
H    -5.195146  2.586385  4.609817
H    -5.206636  2.176193  6.966238
H    -6.359089  -1.625169  6.762515
H    -6.970022  -0.509969  5.683436
H    -5.291045  -0.753452  8.610310
N    -2.249906  -1.971150  4.740992
C    -3.591960  -2.257046  4.220699
H    -1.907054  -2.619851  5.451719
H    -3.763154  -3.331655  4.336869
H    -3.658430  -2.017512  3.156377
H    -4.365371  -1.712487  4.790853
Ca    1.697664  -0.431127  4.536944
