36
Energy: -39734.8441512 eV PBE+vdW (tier 2 basis)
C    -0.638118  -0.847104  0.322553
C    -0.347206  -0.070142  1.560335
O    0.795723  -0.145475  2.123378
H    -0.170148  -0.367192  -0.551402
H    -1.708821  -0.966116  0.132332
H    -0.169611  -1.834908  0.422747
N    -1.280670  0.743250  2.100218
C    -2.066527  1.691738  1.306945
C    -1.065079  2.696074  0.667904
O    0.164207  2.700346  1.062548
H    -1.039967  1.093343  3.029337
H    -2.573299  1.147750  0.496534
C    -3.125621  2.380159  2.190608
C    -2.558423  3.241362  3.325391
C    -3.606969  4.204072  3.940292
N    -4.348580  4.994105  2.967899
C    -3.782855  5.720214  1.931840
N    -2.481186  6.174573  2.174042
N    -4.314305  5.961179  0.779434
H    -3.790957  1.594120  2.576552
H    -3.741808  3.012329  1.539169
H    -1.725749  3.854307  2.946125
H    -2.170430  2.624043  4.152825
H    -3.094936  4.847512  4.672734
H    -4.350270  3.635136  4.512990
H    -5.311337  4.721743  2.810148
H    -2.242482  6.894049  1.494207
H    -2.329478  6.517228  3.121130
H    -5.245386  5.545792  0.684378
N    -1.445586  3.534437  -0.269667
C    -2.750372  3.711372  -0.911309
H    -0.718848  4.187801  -0.566387
H    -2.579757  3.898543  -1.977048
H    -3.273889  4.581794  -0.463593
H    -3.360963  2.810084  -0.806480
Ca    1.836175  1.739492  1.953844
