36
Energy: -39736.0318771 eV PBE+vdW (tier 2 basis)
C    -0.214652  -0.757198  0.235020
C    0.066796  -0.676879  1.701678
O    1.175502  -1.105257  2.165008
H    0.554448  -1.357238  -0.258697
H    -0.191770  0.254542  -0.195401
H    -1.206522  -1.176641  0.023783
N    -0.838178  -0.144148  2.553975
C    -2.274598  -0.496940  2.517558
C    -2.422903  -2.049451  2.460544
O    -1.328505  -2.751643  2.728335
H    -0.459239  -0.028495  3.492814
H    -2.631548  -0.220801  3.521431
C    -3.100630  0.306479  1.482827
C    -3.996958  1.379349  2.117888
C    -5.299983  0.861473  2.740497
N    -6.334676  0.566959  1.741501
C    -6.889978  -0.626221  1.472575
N    -8.084172  -0.652908  0.851553
N    -6.280992  -1.764477  1.803697
H    -3.696271  -0.387058  0.874900
H    -2.408314  0.803490  0.794210
H    -4.248179  2.138082  1.362492
H    -3.436402  1.920719  2.895205
H    -5.711263  1.620878  3.419952
H    -5.142591  -0.044290  3.341026
H    -6.767906  1.370397  1.296609
H    -8.432075  -1.500610  0.421516
H    -8.694486  0.154979  0.840666
H    -6.813024  -2.625399  1.760251
N    -3.591361  -2.523653  2.227847
C    -3.804941  -3.965871  2.265879
H    -5.248051  -1.852606  1.982245
H    -4.328557  -4.277922  1.351670
H    -4.452710  -4.218185  3.118536
H    -2.878588  -4.546535  2.354017
Ca    0.681548  -3.046497  3.026541
