36
Energy: -39734.9865958 eV PBE+vdW (tier 2 basis)
C    0.148889  0.216718  -0.246529
C    0.437914  0.535982  1.176901
O    1.614306  0.870937  1.548000
H    0.735699  -0.682716  -0.495175
H    0.515806  1.010012  -0.910495
H    -0.909139  0.009740  -0.437763
N    -0.536941  0.467841  2.108734
C    -1.857959  1.075778  1.921429
C    -1.639320  2.605160  1.821616
O    -0.470240  3.094229  2.071457
H    -0.189048  0.513336  3.068697
H    -2.288650  0.707592  0.969225
C    -2.794988  0.684568  3.085670
C    -2.893968  -0.825933  3.365012
C    -3.316842  -1.732386  2.190409
N    -4.545045  -1.325840  1.519303
C    -4.604690  -0.456460  0.446562
N    -3.486433  -0.515924  -0.423988
N    -5.525260  0.398116  0.167656
H    -3.791367  1.083671  2.859469
H    -2.466322  1.194773  4.005592
H    -3.615177  -0.942260  4.187788
H    -1.941271  -1.212730  3.760018
H    -3.443691  -2.753601  2.575237
H    -2.514417  -1.791340  1.444761
H    -5.384963  -1.338902  2.090246
H    -3.742673  -0.026815  -1.282342
H    -3.222592  -1.475488  -0.651846
H    -6.260063  0.433664  0.880037
N    -2.608648  3.429528  1.483480
C    -4.002640  3.163806  1.111671
H    -2.334821  4.413238  1.495832
H    -4.277012  3.864306  0.315795
H    -4.658377  3.341643  1.973745
H    -4.158273  2.143883  0.738043
Ca    1.644302  2.914138  2.227509
