36
Energy: -39736.2033863 eV PBE+vdW (tier 2 basis)
C    0.043010  0.382617  0.567970
C    -0.070506  0.041023  2.024596
O    0.769155  -0.877589  2.463537
H    1.057121  0.744118  0.349445
H    -0.677358  1.149642  0.271880
H    -0.106796  -0.521151  -0.038567
N    -0.970525  0.650273  2.743379
C    -1.202926  0.321883  4.162810
C    0.027057  0.632714  5.033981
O    0.948842  -0.214537  5.263032
H    -2.698939  0.939726  2.069009
H    -1.965205  1.046001  4.491751
C    -1.776474  -1.101759  4.421861
C    -3.069493  -1.173132  5.263658
C    -4.423172  -1.023921  4.539295
N    -4.853618  0.351191  4.231073
C    -4.348207  1.126205  3.261942
N    -4.475757  2.462980  3.325685
N    -3.681672  0.606850  2.215385
H    -1.017316  -1.702327  4.945186
H    -1.931905  -1.596494  3.453100
H    -3.024139  -0.462493  6.103894
H    -3.106702  -2.168761  5.729066
H    -5.211289  -1.432579  5.182220
H    -4.448673  -1.638596  3.626974
H    -5.556707  0.755829  4.842025
H    -4.410786  3.001187  2.468155
H    -4.896961  2.917568  4.127477
H    -3.761587  -0.398013  2.097995
N    0.106041  1.858780  5.535247
C    1.221032  2.371024  6.329794
H    -0.639290  2.505772  5.295583
H    0.848952  3.152766  6.998590
H    1.998270  2.797033  5.681342
H    1.648203  1.558882  6.924704
Ca    1.922504  -1.612251  3.953613
