36
Energy: -39736.1707741 eV PBE+vdW (tier 2 basis)
C    1.128233  0.854410  1.908027
C    0.417687  -0.428493  1.619346
O    0.991399  -1.545728  1.837765
H    1.014346  1.118479  2.971055
H    0.758186  1.689048  1.304387
H    2.198240  0.707350  1.722163
N    -0.844219  -0.413258  1.139601
C    -1.880125  0.444827  1.725275
C    -2.145308  0.011186  3.202822
O    -1.429987  -1.003681  3.667902
H    -1.182251  -1.338620  0.869274
H    -1.473344  1.464471  1.784076
C    -3.147546  0.443023  0.848839
C    -3.214119  1.613544  -0.137221
C    -3.573853  2.955227  0.512554
N    -4.977121  3.036185  0.939341
C    -5.432667  3.238345  2.189146
N    -6.649291  3.793149  2.342462
N    -4.707251  2.906808  3.259420
H    -4.026672  0.453112  1.505616
H    -3.200168  -0.509076  0.299911
H    -3.948614  1.390777  -0.924779
H    -2.251978  1.731435  -0.658819
H    -3.399350  3.770591  -0.203460
H    -2.949944  3.170653  1.390200
H    -5.664268  3.133360  0.197647
H    -7.145268  3.732693  3.223099
H    -7.087831  4.324556  1.600007
H    -5.009649  3.262078  4.159571
N    -3.014374  0.704683  3.839178
C    -3.327735  0.397717  5.228699
H    -4.009824  2.114898  3.291392
H    -4.412329  0.256367  5.333223
H    -3.046909  1.250596  5.863539
H    -2.820412  -0.499196  5.605645
Ca    0.058386  -2.415157  3.611364
