36
Energy: -39737.3598453 eV PBE+vdW (tier 2 basis)
C    -0.235609  1.522657  1.104511
C    -0.963753  1.191079  2.365390
O    -0.787879  1.860690  3.418413
H    -0.491185  0.865700  0.266788
H    0.845647  1.468829  1.289454
H    -0.459621  2.562252  0.829484
N    -1.828000  0.151150  2.355780
C    -2.641294  -0.190943  3.525249
C    -1.771969  -0.914854  4.580632
O    -1.334809  -0.218105  5.543512
H    -1.963155  -0.356509  1.485760
H    -2.857370  0.772057  4.005340
C    -3.998518  -0.800161  3.157076
C    -4.960718  -1.013132  4.340729
C    -5.452708  0.248784  5.090142
N    -4.673578  0.595929  6.287580
C    -3.746527  1.563349  6.397826
N    -2.896942  1.539811  7.532225
N    -3.404597  2.481097  5.523620
H    -3.880567  -1.755976  2.630469
H    -4.465996  -0.113609  2.433829
H    -4.536828  -1.721396  5.069780
H    -5.850239  -1.512674  3.933979
H    -6.483305  0.086318  5.427917
H    -5.495288  1.119160  4.421777
H    -4.905877  0.078057  7.130278
H    -3.002069  2.378701  8.106368
H    -2.952339  0.702406  8.111318
H    -4.081935  2.638549  4.776582
N    -1.445748  -2.200651  4.494148
C    -1.779211  -3.191631  3.469390
H    -0.848554  -2.520158  5.256793
H    -1.741091  -2.755550  2.466417
H    -2.766094  -3.637675  3.646020
H    -1.029502  -3.987276  3.513547
Ca    -1.116676  2.022401  5.611567
