36
Energy: -39737.2885748 eV PBE+vdW (tier 2 basis)
C    -0.898382  1.531094  -0.068608
C    -0.918684  0.482357  1.005170
O    -0.423902  -0.650043  0.788300
H    0.144865  1.739482  -0.341225
H    -1.385770  2.469820  0.214149
H    -1.387683  1.129044  -0.965437
N    -1.486673  0.831144  2.178383
C    -1.740063  0.112159  3.448078
C    -0.490048  -0.505356  4.091495
O    0.199869  -1.389479  3.512714
H    -1.838905  1.783437  2.192132
H    -2.047093  0.932678  4.105919
C    -2.963696  -0.854537  3.483652
C    -2.871860  -2.328641  3.053327
C    -2.969599  -2.631909  1.543940
N    -1.768726  -3.342465  1.030591
C    -1.396305  -4.619874  1.584604
N    -2.360919  -5.492408  1.911967
N    -0.107975  -4.739811  1.740465
H    -3.776853  -0.351367  2.938852
H    -3.283198  -0.853120  4.536661
H    -3.700838  -2.840102  3.558949
H    -1.968376  -2.792235  3.477398
H    -3.027647  -1.707866  0.956275
H    -3.895519  -3.186693  1.324797
H    -1.812454  -3.418658  0.009937
H    -2.137481  -6.387277  2.335771
H    -3.317185  -5.363692  1.601519
H    0.208055  -5.664456  2.041407
N    -0.175758  -0.131467  5.330504
C    -0.817877  0.866123  6.193334
H    0.630714  -0.622001  5.715912
H    -0.782701  1.866168  5.743965
H    -0.261220  0.901864  7.133879
H    -1.854163  0.591090  6.425529
Ca    0.516310  -2.462292  1.612308
