36
Energy: -39735.5098468 eV PBE+vdW (tier 2 basis)
C    0.094374  -0.065452  0.135186
C    -0.000066  -0.272778  1.613327
O    1.055664  -0.596035  2.278485
H    0.282808  1.000751  -0.064437
H    -0.839938  -0.364929  -0.365022
H    0.943413  -0.625297  -0.268981
N    -1.196117  -0.125392  2.161188
C    -1.706015  -0.096725  3.536028
C    -0.968871  -0.889162  4.604818
O    -0.303790  -1.952190  4.365577
H    -1.988744  0.117532  1.484429
H    -1.707297  0.955664  3.864065
C    -3.185857  -0.618123  3.497820
C    -4.293657  0.407294  3.191270
C    -4.154298  1.294024  1.938887
N    -3.473343  0.644401  0.807865
C    -3.958713  -0.537489  0.155734
N    -5.277209  -0.844699  0.377548
N    -3.065210  -1.206072  -0.481025
H    -3.430210  -1.073475  4.467188
H    -3.205268  -1.445482  2.774237
H    -4.425499  1.082158  4.049831
H    -5.220550  -0.177890  3.127594
H    -3.540979  2.176141  2.172528
H    -5.149696  1.692929  1.679615
H    -3.156890  1.313240  0.107008
H    -5.945844  -0.089323  0.492580
H    -5.651206  -1.654303  -0.106579
H    -3.460106  -1.976721  -1.026483
N    -1.098667  -0.486698  5.865513
C    -1.835452  0.665699  6.394565
H    -0.690216  -1.120715  6.550836
H    -1.586984  0.765265  7.454666
H    -2.919606  0.524175  6.303345
H    -1.538502  1.590674  5.886507
Ca    1.535178  -2.298160  3.359661
