36
Energy: -39737.3090599 eV PBE+vdW (tier 2 basis)
C    0.396001  1.413099  1.661156
C    0.007362  0.220244  2.469897
O    0.815886  -0.312313  3.281872
H    -0.405739  1.778541  1.011251
H    1.272357  1.163481  1.047919
H    0.704318  2.217809  2.342521
N    -1.237808  -0.282550  2.325931
C    -1.710717  -1.387812  3.160403
C    -1.188591  -2.736921  2.610770
O    -0.145976  -3.211992  3.153070
H    -1.875882  0.179629  1.683599
H    -1.150165  -1.283339  4.094390
C    -3.188313  -1.293888  3.567770
C    -3.523285  -2.187103  4.779040
C    -3.016398  -1.683718  6.144250
N    -1.557696  -1.708643  6.317063
C    -0.780948  -2.770252  6.684344
N    -1.385265  -3.840318  7.240337
N    0.523779  -2.702471  6.423568
H    -3.859782  -1.536516  2.735717
H    -3.389672  -0.241628  3.824099
H    -4.617485  -2.253263  4.855889
H    -3.176249  -3.219596  4.612430
H    -3.510226  -2.255644  6.942597
H    -3.329423  -0.643155  6.301976
H    -1.074976  -0.818674  6.354347
H    -0.848283  -4.674186  7.444687
H    -2.285450  -3.761313  7.699206
H    1.041575  -3.358166  7.015576
N    -1.754916  -3.380333  1.596575
C    -2.906623  -3.018038  0.768944
H    -1.283687  -4.252908  1.356251
H    -3.841857  -3.403663  1.194301
H    -2.766259  -3.464608  -0.220475
H    -2.977396  -1.934630  0.637858
Ca    1.398765  -2.166000  4.358550
