36
Energy: -39736.3108379 eV PBE+vdW (tier 2 basis)
C    0.986337  0.966791  1.323224
C    0.389043  0.457322  2.598792
O    0.758056  1.091274  3.706421
H    2.082689  0.917700  1.372569
H    0.722124  2.024111  1.184548
H    0.634678  0.386768  0.466196
N    -0.443375  -0.543226  2.569321
C    -1.023252  -0.936537  3.845514
C    0.032955  -1.564437  4.770838
O    0.339462  -0.942703  5.849191
H    -3.998887  -2.072076  -1.677011
H    -1.317437  -0.038519  4.422709
C    -2.356307  -1.714024  3.666838
C    -2.459803  -2.718524  2.511671
C    -3.927635  -2.913432  2.105161
N    -4.128736  -3.873882  1.012013
C    -4.170979  -3.580760  -0.293385
N    -4.624194  -4.492306  -1.167601
N    -3.771421  -2.382015  -0.740193
H    -3.108015  -0.927353  3.496732
H    -2.633152  -2.186176  4.621230
H    -2.038764  -3.694988  2.784833
H    -1.873138  -2.337468  1.661867
H    -4.384992  -1.958001  1.808543
H    -4.519251  -3.282371  2.953738
H    -4.259419  -4.847998  1.264491
H    -4.475010  -4.386826  -2.163813
H    -5.165170  -5.292825  -0.863816
H    -3.227836  -1.756582  -0.159564
N    0.695420  -2.679941  4.487057
C    0.687201  -3.477175  3.264420
H    1.359608  -2.956612  5.209349
H    0.099879  -4.394579  3.395676
H    1.719967  -3.758636  3.029757
H    0.295584  -2.876797  2.439444
Ca    0.980358  1.120263  5.724520
