36
Energy: -39735.8939155 eV PBE+vdW (tier 2 basis)
C    -0.134249  0.609699  0.224238
C    -0.114025  -0.167276  1.497850
O    0.961423  -0.727321  1.885791
H    0.153106  -0.055489  -0.601981
H    0.625864  1.401170  0.273533
H    -1.108166  1.057337  0.002130
N    -1.240200  -0.265704  2.214997
C    -1.438189  -1.048036  3.461255
C    -0.567328  -0.472699  4.586618
O    0.591091  -0.963534  4.816816
H    -2.060039  0.196774  1.832452
H    -2.486441  -0.893610  3.738940
C    -1.231042  -2.563040  3.241903
C    -2.499783  -3.275899  2.743300
C    -3.484168  -3.665540  3.855342
N    -4.132086  -2.557735  4.566357
C    -3.675083  -2.145710  5.807835
N    -4.656226  -1.660978  6.644935
N    -2.393565  -2.153080  6.041165
H    -0.936181  -3.002612  4.204804
H    -0.434392  -2.727517  2.491964
H    -2.203770  -4.207853  2.240719
H    -3.006718  -2.669979  1.975591
H    -2.964921  -4.295629  4.592073
H    -4.278356  -4.275602  3.406065
H    -5.132874  -2.481146  4.423083
H    -4.371681  -1.385158  7.577881
H    -5.582158  -2.076343  6.609319
H    -2.193824  -1.942225  7.021178
N    -0.962065  0.602197  5.248421
C    -2.267601  1.259363  5.180179
H    -0.306430  0.931793  5.955504
H    -3.068247  0.555109  5.438566
H    -2.273669  2.077552  5.905210
H    -2.445922  1.689808  4.187245
Ca    1.950388  -1.797101  3.434188
