36
Energy: -39736.6662382 eV PBE+vdW (tier 2 basis)
C    -1.298453  0.142373  2.971939
C    -1.225112  -1.319382  3.322603
O    -0.253268  -1.706131  4.076185
H    -1.086757  0.291337  1.902366
H    -0.547358  0.688906  3.548762
H    -2.287612  0.570447  3.171668
N    -2.021070  -2.305442  2.865575
C    -2.744049  -2.214309  1.587296
C    -1.676744  -2.291953  0.468354
O    -0.572655  -2.862230  0.725739
H    -3.325995  -2.778024  6.329123
H    -3.253242  -3.190483  1.492205
C    -3.844253  -1.140766  1.414783
C    -4.733064  -0.962794  2.654534
C    -5.425751  -2.249684  3.135419
N    -5.928973  -2.145803  4.505805
C    -5.179348  -2.315935  5.604147
N    -5.753865  -2.256329  6.814912
N    -3.864652  -2.557222  5.501144
H    -4.477033  -1.433842  0.561241
H    -3.412437  -0.162837  1.163279
H    -5.494307  -0.200760  2.438456
H    -4.130258  -0.556574  3.478749
H    -4.751124  -3.116729  3.096428
H    -6.281168  -2.501827  2.496862
H    -6.886592  -1.837718  4.637032
H    -5.203742  -2.268896  7.664622
H    -6.760286  -2.224563  6.923539
H    -3.353398  -2.489589  4.615844
N    -1.935439  -1.817363  -0.741082
C    -1.013534  -1.934776  -1.875595
H    -2.829129  -1.363419  -0.899257
H    -0.043991  -1.491017  -1.623456
H    -1.444807  -1.403895  -2.727857
H    -0.864860  -2.988299  -2.140588
Ca    0.003372  -3.462804  2.794133
