36
Energy: -39737.0334902 eV PBE+vdW (tier 2 basis)
C    -1.177197  1.344959  -0.899841
C    -1.061556  0.197687  0.050208
O    0.058633  -0.171078  0.500949
H    -1.306055  2.286168  -0.342269
H    -2.016105  1.238281  -1.596267
H    -0.237675  1.428863  -1.456517
N    -2.178781  -0.451261  0.479162
C    -3.439847  0.213957  0.775419
C    -3.194457  1.201240  1.952639
O    -2.125476  1.138497  2.628123
H    -2.039357  -1.353204  0.953135
H    -3.745654  0.801889  -0.102724
C    -4.546710  -0.832077  1.060376
C    -4.676442  -1.430328  2.476097
C    -3.431507  -1.940869  3.207561
N    -2.595280  -2.852484  2.396223
C    -1.327867  -3.207837  2.828874
N    -0.986721  -4.503166  2.694593
N    -0.507994  -2.271979  3.284398
H    -4.408332  -1.625940  0.312367
H    -5.516401  -0.379200  0.813789
H    -5.413180  -2.244265  2.402460
H    -5.139608  -0.695577  3.151416
H    -3.754619  -2.446379  4.131320
H    -2.801096  -1.105255  3.525214
H    -3.120798  -3.629995  1.999731
H    -0.025626  -4.805335  2.805980
H    -1.674971  -5.231557  2.542858
H    0.312174  -2.712609  3.710278
N    -4.137311  2.090982  2.219406
C    -4.061503  3.070949  3.308348
H    -4.960834  2.109959  1.623663
H    -4.991223  3.645146  3.321679
H    -3.218058  3.753379  3.149807
H    -3.936251  2.561838  4.270811
Ca    -0.209389  -0.047214  2.714365
