36
Energy: -39735.964856 eV PBE+vdW (tier 2 basis)
C    0.450892  -1.717547  0.446457
C    0.325854  -0.395297  1.125232
O    1.393062  0.258256  1.428715
H    0.792847  -1.535292  -0.584077
H    -0.484860  -2.280803  0.406588
H    1.227948  -2.320335  0.931489
N    -0.840029  0.143105  1.449314
C    -2.226221  -0.313011  1.316109
C    -2.955743  1.020681  0.960512
O    -2.375596  2.074679  1.269328
H    -0.903125  1.177177  1.627678
H    -2.317910  -1.060544  0.519303
C    -2.798535  -0.833466  2.658287
C    -2.279399  -2.171572  3.209479
C    -0.933771  -2.203650  3.952893
N    -0.863790  -1.386970  5.173458
C    -0.015394  -0.349884  5.366219
N    0.324360  -0.025938  6.629940
N    0.502081  0.344061  4.342913
H    -3.882686  -0.938843  2.514222
H    -2.687404  -0.034928  3.409753
H    -2.219929  -2.921594  2.405130
H    -3.045888  -2.558062  3.897595
H    -0.095057  -1.903837  3.314927
H    -0.733780  -3.244964  4.244787
H    -1.328717  -1.765167  5.994228
H    0.641053  0.913255  6.834291
H    0.063978  -0.604378  7.420012
H    -0.109065  0.178219  3.534335
N    -4.165725  0.985828  0.389693
C    -4.963953  -0.165911  -0.017016
H    -4.577887  1.907677  0.253358
H    -4.331374  -1.042548  -0.189022
H    -5.470693  0.066209  -0.959942
H    -5.724692  -0.414555  0.735819
Ca    2.234343  1.104470  3.177777
