36
Energy: -39736.981546 eV PBE+vdW (tier 2 basis)
C    -0.827943  1.550045  0.186252
C    -1.017482  0.126958  0.596056
O    -0.080968  -0.543781  1.114702
H    -1.453456  1.832025  -0.667712
H    0.229255  1.707198  -0.053148
H    -1.068975  2.218421  1.028280
N    -2.233087  -0.474563  0.466164
C    -3.513623  0.183391  0.682014
C    -3.517295  0.765933  2.122281
O    -2.721606  0.297811  2.988976
H    -2.244245  -1.511641  0.506777
H    -3.652350  1.002123  -0.040391
C    -4.665184  -0.832409  0.506776
C    -4.683170  -2.017860  1.499969
C    -4.145146  -3.357844  0.996228
N    -2.700880  -3.404691  0.586829
C    -1.790627  -4.020347  1.451019
N    -1.184107  -5.131943  0.999060
N    -1.554261  -3.462913  2.626168
H    -4.636514  -1.189804  -0.533437
H    -5.605872  -0.274020  0.596366
H    -5.729393  -2.216913  1.772778
H    -4.199048  -1.752942  2.451880
H    -4.716968  -3.668328  0.111934
H    -4.315675  -4.119233  1.768852
H    -2.602670  -3.749213  -0.366620
H    -1.545943  -5.658204  0.211241
H    -0.396053  -5.539718  1.491211
H    -1.078053  -4.129441  3.242645
N    -4.388552  1.725285  2.392247
C    -4.591545  2.349794  3.700834
H    -4.973118  2.057284  1.628107
H    -5.616305  2.165003  4.044672
H    -4.429937  3.431178  3.621239
H    -3.882712  1.923323  4.413603
Ca    -1.076395  -1.215156  3.013988
