36
Energy: -39736.376093 eV PBE+vdW (tier 2 basis)
C    0.128329  -1.191308  0.093185
C    -0.143293  0.057519  0.869608
O    0.788122  0.942610  1.000922
H    0.965210  -1.732337  0.555779
H    0.427250  -0.931675  -0.931372
H    -0.739901  -1.856039  0.050068
N    -1.329112  0.225226  1.404432
C    -1.815958  1.286824  2.282984
C    -2.905159  0.538370  3.118156
O    -3.338604  -0.524494  2.662564
H    -2.041367  -0.536922  1.394782
H    -0.992293  1.642198  2.917293
C    -2.483169  2.435614  1.492805
C    -1.573683  3.289841  0.599830
C    -0.638025  4.224372  1.375400
N    0.035172  5.188864  0.509197
C    1.363439  5.376902  0.359476
N    1.753272  6.558522  -0.164516
N    2.253682  4.430745  0.699537
H    -3.002135  3.088408  2.210174
H    -3.272407  1.988579  0.872064
H    -2.228690  3.909053  -0.031477
H    -0.997488  2.663687  -0.097051
H    0.132228  3.677296  1.935227
H    -1.215086  4.785599  2.127955
H    -0.566037  5.890927  0.088284
H    1.117899  7.341784  -0.262555
H    2.693011  6.689620  -0.517023
H    3.179340  4.870296  0.730829
N    -3.345847  1.083638  4.264676
C    -2.937173  2.319330  4.917771
H    -4.095876  0.550644  4.701660
H    -1.903967  2.576690  4.659352
H    -2.978151  2.179439  6.003447
H    -3.594606  3.160134  4.653260
Ca    2.437369  2.204515  0.914749
