36
Energy: -39734.4642269 eV PBE+vdW (tier 2 basis)
C    0.125406  0.961018  -0.240448
C    0.118695  0.397690  1.138741
O    1.211012  0.166407  1.752076
H    -0.845043  0.897740  -0.740516
H    0.872172  0.405140  -0.824687
H    0.464208  2.008166  -0.228381
N    -1.048349  0.133446  1.771007
C    -2.155486  1.090427  1.825914
C    -1.629284  2.376259  2.512635
O    -0.505460  2.350096  3.130768
H    -0.938192  -0.412095  2.628271
H    -2.471617  1.339413  0.802927
C    -3.333682  0.472185  2.611065
C    -3.981815  -0.742994  1.938277
C    -4.676063  -0.428919  0.590240
N    -5.696638  -1.372952  0.211624
C    -6.929034  -1.403802  0.870982
N    -7.707788  -2.486829  0.528423
N    -7.366826  -0.557530  1.745753
H    -4.095914  1.248519  2.765473
H    -2.973397  0.207797  3.619604
H    -4.740002  -1.125607  2.636302
H    -3.253306  -1.557109  1.803548
H    -3.943037  -0.389852  -0.229914
H    -5.142692  0.571070  0.637727
H    -5.379393  -2.251625  -0.185216
H    -8.645206  -2.446684  0.916047
H    -7.666418  -2.827496  -0.426271
H    -6.682653  0.162676  1.982460
N    -2.329043  3.494517  2.476497
C    -3.606859  3.771420  1.812561
H    -1.922622  4.268082  3.004974
H    -3.554097  4.769880  1.365454
H    -4.427414  3.753014  2.541164
H    -3.805427  3.044308  1.020864
Ca    1.445923  1.490517  3.451964
