36
Energy: -39734.7631689 eV PBE+vdW (tier 2 basis)
C    -2.200841  2.349231  0.739329
C    -0.908701  1.959837  1.333268
O    0.181745  2.522574  0.952393
H    -2.885871  2.732407  1.525280
H    -2.760139  1.510284  0.296131
H    -2.050077  3.117226  -0.023320
N    -0.802850  1.024694  2.316364
C    -1.405924  -0.314606  2.295614
C    -0.857108  -1.054748  1.036898
O    0.043410  -0.518960  0.304592
H    0.111741  1.047440  2.766027
H    -0.961958  -0.826934  3.164263
C    -2.938896  -0.387445  2.453910
C    -3.471138  0.439152  3.629154
C    -5.016450  0.452754  3.700632
N    -5.689453  0.718083  2.434374
C    -5.448235  1.799800  1.601260
N    -4.976839  2.951291  2.246155
N    -5.559748  1.831664  0.316240
H    -3.209232  -1.444485  2.612917
H    -3.433704  -0.081957  1.522619
H    -3.108491  1.471679  3.543908
H    -3.082270  0.050382  4.582665
H    -5.319823  1.176930  4.472368
H    -5.388380  -0.519025  4.050284
H    -6.097858  -0.081518  1.966566
H    -5.123635  3.764784  1.651156
H    -5.348749  3.110886  3.180200
H    -5.867493  0.935253  -0.070470
N    -1.317949  -2.258272  0.763305
C    -0.860589  -3.098981  -0.348748
H    -2.042976  -2.633192  1.369844
H    -1.375864  -4.060675  -0.286720
H    0.220506  -3.265235  -0.279535
H    -1.098623  -2.624829  -1.308303
Ca    1.299943  1.150836  -0.228201
