36
Energy: -39734.5184751 eV PBE+vdW (tier 2 basis)
C    -0.932528  -1.015386  -0.693545
C    -0.638460  -0.298577  0.566723
O    0.504430  0.267050  0.728056
H    -1.817176  -0.575433  -1.223279
H    -1.190237  -2.068445  -0.522982
H    -0.060184  -0.960029  -1.350907
N    -1.533136  -0.161380  1.582574
C    -2.324150  -1.231028  2.205070
C    -1.328158  -2.169605  2.939251
O    -0.071343  -2.093364  2.688986
H    -1.237189  0.555384  2.245714
H    -2.926600  -0.726686  2.976701
C    -3.306054  -1.968415  1.266150
C    -4.229640  -0.991900  0.529563
C    -4.891282  -1.600495  -0.725444
N    -5.435855  -0.585669  -1.616328
C    -4.606954  0.386492  -2.184570
N    -3.363330  -0.126749  -2.637475
N    -4.835545  1.634313  -2.341709
H    -3.895343  -2.669236  1.871269
H    -2.752560  -2.595912  0.554860
H    -3.655583  -0.112777  0.204814
H    -5.001547  -0.612112  1.215877
H    -5.705225  -2.285433  -0.454153
H    -4.152830  -2.205800  -1.272413
H    -6.338992  -0.214980  -1.334727
H    -2.921334  0.601201  -3.200574
H    -3.475542  -0.971445  -3.200905
H    -5.709525  1.941867  -1.906603
N    -1.754638  -3.039872  3.836580
C    -3.109210  -3.264470  4.351664
H    -1.022889  -3.630767  4.233308
H    -3.585583  -4.105853  3.833014
H    -3.724910  -2.366956  4.244967
H    -3.032280  -3.505649  5.417019
Ca    1.645575  -0.966143  2.038839
