36
Energy: -39736.8140034 eV PBE+vdW (tier 2 basis)
C    0.959603  1.032500  0.527662
C    0.429886  0.917892  1.921572
O    1.211716  0.590494  2.872010
H    0.192445  1.291050  -0.209354
H    1.438238  0.088626  0.236740
H    1.741816  1.804361  0.514797
N    -0.861318  1.178484  2.138612
C    -1.554648  1.255424  3.445886
C    -1.856052  -0.161968  3.972240
O    -0.828574  -0.755723  4.553433
H    -1.421560  1.406737  1.321030
H    -0.833708  1.703416  4.148537
C    -2.739979  2.218365  3.297319
C    -3.423363  2.623760  4.619827
C    -4.684159  1.848489  5.025409
N    -5.807644  2.032964  4.101703
C    -6.278349  1.128167  3.227199
N    -7.469655  1.359091  2.641991
N    -5.579655  0.034723  2.924589
H    -3.470525  1.804559  2.586073
H    -2.342019  3.128492  2.825795
H    -3.684044  3.689974  4.561256
H    -2.710147  2.549132  5.455231
H    -5.015882  2.197591  6.012668
H    -4.487516  0.775418  5.115513
H    -6.311359  2.912073  4.160429
H    -7.795888  0.784436  1.875699
H    -8.123973  2.031705  3.021695
H    -6.035936  -0.705369  2.404912
N    -3.021301  -0.681797  3.808797
C    -3.231416  -2.043292  4.301015
H    -4.577092  -0.124285  3.226671
H    -4.307425  -2.236910  4.385159
H    -2.764892  -2.212807  5.281099
H    -2.812742  -2.779504  3.598121
Ca    1.216631  -0.727498  4.554690
