36
Energy: -39736.9432307 eV PBE+vdW (tier 2 basis)
C    0.127955  -0.043700  0.879554
C    -0.757371  -0.422497  2.019308
O    -0.285166  -0.860290  3.104336
H    0.432903  1.010451  0.976586
H    -0.351509  -0.180207  -0.095849
H    1.041896  -0.645038  0.935600
N    -2.111926  -0.267395  1.925495
C    -2.755210  0.868439  1.273189
C    -2.317502  2.151106  2.022445
O    -1.862569  2.055956  3.204024
H    -2.639065  -0.727669  2.680851
H    -2.393213  0.922447  0.237460
C    -4.302419  0.693498  1.239458
C    -5.151939  1.371144  2.327860
C    -4.987465  0.932620  3.790815
N    -5.282849  -0.472245  4.037182
C    -4.441537  -1.384138  4.581678
N    -4.977394  -2.583026  4.898267
N    -3.140343  -1.119324  4.750324
H    -4.497471  -0.388485  1.212637
H    -4.656796  1.072582  0.272787
H    -6.204438  1.225556  2.041730
H    -5.006534  2.462319  2.305802
H    -5.654171  1.547918  4.413117
H    -3.975205  1.133167  4.155220
H    -6.261601  -0.735103  3.979346
H    -4.411918  -3.316351  5.305743
H    -5.970067  -2.770252  4.823955
H    -2.694792  -1.967559  5.115301
N    -2.426425  3.333570  1.433829
C    -2.951484  3.641200  0.101542
H    -2.145511  4.124727  2.013745
H    -2.482216  4.564848  -0.250061
H    -4.039070  3.787943  0.130671
H    -2.710412  2.844847  -0.609889
Ca    -1.379500  0.383294  4.617864
