36
Energy: -39736.7919083 eV PBE+vdW (tier 2 basis)
C    -0.831743  -0.734005  1.571275
C    -1.501986  -0.397721  2.874703
O    -1.072959  -0.959524  3.955854
H    -0.002828  -0.034770  1.383657
H    -1.512373  -0.684289  0.712999
H    -0.393617  -1.734911  1.640979
N    -2.496094  0.485192  3.038903
C    -2.714981  1.569989  2.090632
C    -1.922943  2.782086  2.637019
O    -1.492537  2.745265  3.832599
H    -3.787234  -1.504163  2.911438
H    -2.327487  1.325074  1.086411
C    -4.215359  1.913158  1.957355
C    -5.058700  0.707069  1.498036
C    -5.774759  0.011075  2.668819
N    -6.276843  -1.325901  2.346213
C    -5.563724  -2.453013  2.470620
N    -6.141023  -3.641473  2.243441
N    -4.273148  -2.395364  2.830306
H    -4.334332  2.736899  1.243711
H    -4.584236  2.296507  2.921899
H    -4.418228  -0.018389  0.973345
H    -5.808922  1.030598  0.764748
H    -6.635047  0.606216  3.000758
H    -5.108261  -0.075512  3.537808
H    -7.198927  -1.398751  1.928568
H    -5.595979  -4.493090  2.189115
H    -7.142108  -3.729566  2.117568
H    -3.770623  -3.231652  3.100158
N    -1.689477  3.853968  1.888702
C    -2.044080  4.104387  0.492986
H    -1.190894  4.599262  2.375399
H    -2.191573  3.164119  -0.046307
H    -1.221728  4.647153  0.014951
H    -2.954452  4.713614  0.421009
Ca    -1.488767  0.906038  5.073179
