36
Energy: -39736.7333631 eV PBE+vdW (tier 2 basis)
C    -1.191130  -2.556165  0.615908
C    -0.842868  -1.973353  1.943862
O    0.260207  -2.267921  2.511042
H    -0.672752  -3.512371  0.496470
H    -2.269296  -2.703588  0.487513
H    -0.846085  -1.878788  -0.180241
N    -1.671281  -1.128542  2.565537
C    -2.863654  -0.461785  2.040343
C    -2.497550  0.420769  0.812422
O    -1.348578  0.875963  0.662717
H    -1.364338  -0.847106  3.493325
H    -3.576162  -1.237773  1.720545
C    -3.551936  0.350991  3.168139
C    -3.017344  1.742323  3.563708
C    -1.640755  1.856170  4.236970
N    -0.559197  1.744618  3.253325
C    0.559496  1.032339  3.362175
N    1.254917  0.737246  2.136367
N    1.092525  0.447221  4.413658
H    -3.607374  -0.300319  4.055386
H    -4.596163  0.493048  2.858884
H    -3.745093  2.157105  4.274979
H    -3.048045  2.426273  2.699938
H    -1.506172  1.081797  5.009434
H    -1.564959  2.826861  4.746921
H    -0.806359  2.013548  2.298358
H    2.003731  1.415951  1.966620
H    0.599487  0.755678  1.339494
H    0.692183  0.713646  5.314114
N    -3.514045  0.666233  -0.023101
C    -3.424583  1.527790  -1.201192
H    -4.410840  0.226835  0.164892
H    -2.396562  1.886200  -1.294211
H    -4.103516  2.382952  -1.097792
H    -3.697225  0.962198  -2.099941
Ca    2.017538  -1.325954  3.301985
