36
Energy: -39735.6767268 eV PBE+vdW (tier 2 basis)
C    -0.615811  -1.433865  -0.258532
C    -0.236570  -0.907003  1.085651
O    0.934686  -0.441733  1.282703
H    -0.561374  -0.605885  -0.980731
H    -1.621827  -1.864569  -0.288984
H    0.113780  -2.186424  -0.583676
N    -1.148546  -0.921685  2.061163
C    -1.072551  -0.269705  3.383640
C    -0.219594  -1.096286  4.372493
O    1.026458  -1.256430  4.100389
H    -2.051249  -1.331518  1.831090
H    -0.498282  0.661309  3.244330
C    -2.489600  0.101666  3.845680
C    -3.542029  -1.032588  3.808039
C    -4.441493  -1.030482  5.055414
N    -3.669716  -1.319992  6.274202
C    -3.461000  -2.635584  6.778840
N    -3.625634  -3.651454  5.845999
N    -2.979802  -2.902600  7.936083
H    -2.826230  0.944336  3.227261
H    -2.401971  0.505910  4.864678
H    -3.067011  -2.025483  3.744104
H    -4.182358  -0.930547  2.920098
H    -5.281606  -1.728393  4.918274
H    -4.898084  -0.040036  5.182124
H    -3.870015  -0.677673  7.036362
H    -3.530046  -4.562806  6.289789
H    -4.459077  -3.607452  5.265823
H    -2.833106  -2.072322  8.516385
N    -0.738251  -1.572695  5.475758
C    0.021943  -2.341088  6.468153
H    -1.736759  -1.383443  5.695627
H    -0.695489  -2.885107  7.091628
H    0.612465  -1.663608  7.099379
H    0.695854  -3.039846  5.963087
Ca    2.487927  -0.707737  2.691164
