36
Energy: -39735.6113526 eV PBE+vdW (tier 2 basis)
C    0.379890  0.326890  0.119755
C    0.214448  0.137954  1.588997
O    1.210417  0.359346  2.371216
H    -0.519698  0.087721  -0.458342
H    1.214914  -0.292052  -0.235000
H    0.664310  1.372996  -0.065239
N    -0.962925  -0.248215  2.065547
C    -1.358683  -0.302249  3.483874
C    -0.756267  -1.528362  4.199498
O    0.489942  -1.541149  4.474841
H    -1.775780  -0.348906  1.392138
H    -0.877395  0.552438  3.989492
C    -2.882076  -0.063984  3.603729
C    -3.928106  -1.073880  3.057958
C    -3.680463  -1.746121  1.699723
N    -3.316299  -0.762776  0.669336
C    -2.860467  -1.146494  -0.635223
N    -2.376435  -2.443414  -0.715525
N    -2.718374  -0.337830  -1.614706
H    -3.049341  0.907824  3.118062
H    -3.105011  0.111759  4.665719
H    -4.878943  -0.521331  3.019199
H    -4.141990  -1.874466  3.786952
H    -4.580190  -2.324806  1.432114
H    -2.847118  -2.461847  1.771975
H    -3.989947  -0.000700  0.593776
H    -2.089329  -2.660204  -1.668258
H    -2.958998  -3.179370  -0.325611
H    -3.021170  0.617994  -1.409827
N    -1.526180  -2.536802  4.555343
C    -1.056896  -3.725905  5.272718
H    -2.516253  -2.470774  4.332778
H    -1.926836  -4.321942  5.559474
H    -0.506572  -3.430441  6.172937
H    -0.402005  -4.326812  4.630073
Ca    2.249241  -0.430779  3.988881
