36
Energy: -39735.9885854 eV PBE+vdW (tier 2 basis)
C    -0.788040  1.239143  -0.414561
C    -0.905099  0.350653  0.781041
O    -0.053357  -0.583750  0.969374
H    0.194765  1.729361  -0.411380
H    -1.568014  2.005937  -0.460407
H    -0.838736  0.623547  -1.323219
N    -1.901424  0.548651  1.636320
C    -2.205046  -0.222302  2.863277
C    -3.378191  0.519966  3.571525
O    -3.140536  1.226569  4.543628
H    -2.529391  1.322333  1.426146
H    -2.528187  -1.227815  2.550498
C    -1.025679  -0.369322  3.844969
C    -0.188453  0.890810  4.119958
C    1.313862  0.641808  4.271044
N    1.665137  -0.354321  5.279018
C    2.286885  -1.533613  5.062738
N    2.811010  -2.153071  6.140695
N    2.365852  -2.067158  3.832102
H    -0.382592  -1.200777  3.501023
H    -1.456876  -0.744169  4.781888
H    -0.578961  1.386162  5.017059
H    -0.307089  1.631357  3.316210
H    1.816433  1.586487  4.525961
H    1.774426  0.323087  3.321120
H    1.558489  -0.063021  6.245896
H    3.136875  -3.109638  6.087867
H    2.896657  -1.693633  7.039711
H    3.030010  -2.846634  3.866592
N    -4.610633  0.389320  3.018264
C    -5.067578  -0.577589  2.021429
H    -5.327887  0.903849  3.526476
H    -4.420068  -0.589137  1.135595
H    -6.065070  -0.277993  1.685853
H    -5.138965  -1.594901  2.432619
Ca    1.391395  -1.877211  1.813262
