36
Energy: -39736.1960082 eV PBE+vdW (tier 2 basis)
C    -1.844356  -0.202290  -0.837523
C    -1.234061  0.478532  0.342507
O    -0.394008  1.437587  0.137902
H    -2.417481  0.551385  -1.397356
H    -2.513688  -1.025180  -0.575855
H    -1.060429  -0.569887  -1.511709
N    -1.521880  0.165075  1.588100
C    -2.187391  -0.995639  2.166337
C    -2.748299  -0.432930  3.504747
O    -2.163550  0.538899  3.998687
H    -1.242122  0.795857  2.366185
H    -2.980009  -1.354963  1.499316
C    -1.167815  -2.131642  2.492198
C    -0.031311  -2.353352  1.477253
C    1.197374  -1.465597  1.725575
N    2.237428  -1.716760  0.723692
C    3.232409  -0.872710  0.359817
N    4.369860  -1.443278  -0.091568
N    3.092131  0.462672  0.409696
H    -1.745606  -3.058576  2.599361
H    -0.731761  -1.931249  3.482542
H    -0.383299  -2.230669  0.442588
H    0.285545  -3.404510  1.557288
H    1.595844  -1.659582  2.735270
H    0.936496  -0.403361  1.692718
H    2.411054  -2.699586  0.530340
H    5.060544  -0.905031  -0.599979
H    4.572732  -2.426372  0.047678
H    4.030845  0.869854  0.336655
N    -3.784590  -1.083310  4.048279
C    -4.375450  -0.726674  5.337583
H    -4.204454  -1.848228  3.529726
H    -3.799550  0.098835  5.763645
H    -4.342818  -1.585594  6.018258
H    -5.417042  -0.411261  5.203213
Ca    1.576541  2.110486  0.156553
