36
Energy: -39735.3810694 eV PBE+vdW (tier 2 basis)
C    -0.691661  -1.269557  0.042905
C    -0.761203  -0.737834  1.431417
O    0.267993  -0.177334  1.950463
H    0.189949  -1.916074  -0.056641
H    -0.566618  -0.424114  -0.648725
H    -1.589244  -1.828182  -0.236910
N    -1.893866  -0.852895  2.124831
C    -2.089870  -0.210691  3.430997
C    -1.131222  -0.810914  4.481894
O    -0.116142  -0.112709  4.836203
H    -2.766388  -1.043166  1.576962
H    -1.745386  0.829875  3.330504
C    -3.578628  -0.141524  3.901577
C    -4.666575  -0.973331  3.190912
C    -5.267064  -0.391874  1.902717
N    -4.338540  -0.392812  0.752757
C    -3.700202  0.768802  0.240829
N    -3.576867  1.825316  1.147875
N    -3.107488  0.842682  -0.890768
H    -3.864532  0.916036  3.856214
H    -3.596512  -0.392330  4.970848
H    -5.494919  -1.076493  3.907218
H    -4.334613  -2.002826  2.989947
H    -5.673808  0.612994  2.087947
H    -6.132380  -1.006874  1.625105
H    -4.667932  -0.977979  -0.011295
H    -3.210492  2.640621  0.658374
H    -4.428662  2.070436  1.647644
H    -3.214617  -0.000589  -1.460538
N    -1.306131  -2.000645  5.032372
C    -2.339456  -3.006654  4.780986
H    -0.614700  -2.231046  5.746738
H    -1.940182  -3.980698  5.079040
H    -2.586988  -3.046527  3.716855
H    -3.242447  -2.803934  5.370104
Ca    1.355480  0.686037  3.518361
