36
Energy: -39736.3160452 eV PBE+vdW (tier 2 basis)
C    0.498233  -2.405288  0.544383
C    0.186666  -1.855439  1.894617
O    1.108789  -1.697344  2.762260
H    -0.380965  -2.476797  -0.103966
H    0.941864  -3.404232  0.658220
H    1.253095  -1.771734  0.059699
N    -1.069157  -1.533380  2.205817
C    -1.472932  -1.092749  3.548287
C    -2.950984  -1.406602  3.882774
O    -3.191972  -1.903323  4.978580
H    -1.795041  -1.746056  1.525271
H    -0.932842  -1.736454  4.257865
C    -1.118478  0.388502  3.801949
C    -1.415607  0.888570  5.224287
C    -0.891206  0.060826  6.396672
N    0.607178  -0.145882  6.415664
C    1.430077  1.054755  6.393201
N    1.137868  2.052261  7.231869
N    2.394236  0.999299  5.515239
H    -1.670844  1.020537  3.091494
H    -0.058163  0.555558  3.546775
H    -2.503847  0.939974  5.374079
H    -1.064221  1.928225  5.298384
H    -1.333480  -0.944211  6.391053
H    -1.220952  0.532162  7.335879
H    0.812378  -0.646076  7.289956
H    1.684627  2.908292  7.250960
H    0.384439  1.978891  7.906910
H    3.013418  1.812608  5.492476
N    -3.883406  -1.098218  2.949460
C    -5.310984  -1.337588  3.175424
H    -3.633223  -0.508000  2.162144
H    -5.803596  -1.506258  2.212854
H    -5.783388  -0.485725  3.682292
H    -5.421267  -2.225222  3.805004
Ca    2.058077  -1.075930  4.566311
