36
Energy: -39734.6741952 eV PBE+vdW (tier 2 basis)
C    0.111828  0.702983  1.636621
C    -0.892802  1.152077  2.618762
O    -0.639085  1.060032  3.874011
H    0.085638  1.305904  0.725181
H    -0.011301  -0.359521  1.317692
H    1.098985  0.763535  2.109593
N    -2.079596  1.738270  2.273371
C    -3.161719  1.164559  1.453879
C    -3.956407  0.201001  2.373878
O    -3.390913  -0.315199  3.402701
H    -2.460248  2.251373  3.070405
H    -3.816694  2.008029  1.188566
C    -2.745556  0.423936  0.171243
C    -2.232988  1.317325  -0.966619
C    -1.660067  0.503859  -2.150146
N    -0.440149  -0.233523  -1.841464
C    -0.365732  -1.403240  -1.104383
N    -1.485446  -2.228089  -1.181029
N    0.611174  -1.761358  -0.328323
H    -3.624616  -0.128825  -0.188525
H    -2.024326  -0.361109  0.424049
H    -1.461482  2.013844  -0.605319
H    -3.056027  1.945865  -1.342327
H    -1.431408  1.192749  -2.973120
H    -2.424491  -0.182401  -2.539654
H    0.416657  0.309032  -1.850968
H    -1.269032  -3.149096  -0.807164
H    -1.911082  -2.292774  -2.102494
H    1.374972  -1.079170  -0.340265
N    -5.214405  -0.098776  2.107549
C    -6.069958  0.368845  1.013581
H    -5.634975  -0.774895  2.746642
H    -5.697162  1.306979  0.594432
H    -7.076455  0.539402  1.410171
H    -6.124572  -0.389211  0.221737
Ca    -1.868439  -0.338240  4.907410
