36
Energy: -39735.9547655 eV PBE+vdW (tier 2 basis)
C    -0.146705  -0.597447  0.063775
C    -0.114663  -0.437136  1.548900
O    0.898014  -0.846826  2.204042
H    -1.042633  -0.176816  -0.403870
H    -0.090581  -1.669983  -0.171657
H    0.744528  -0.129266  -0.374233
N    -1.164238  0.134965  2.148085
C    -1.476621  0.296077  3.592438
C    -0.511764  1.284506  4.273765
O    0.713106  0.952485  4.493088
H    -1.900607  0.441211  1.517918
H    -2.454037  0.790511  3.592852
C    -1.614753  -1.064716  4.312286
C    -2.155769  -1.017601  5.754655
C    -3.684280  -0.872511  5.925119
N    -4.270487  0.340296  5.349232
C    -3.802286  1.605500  5.614470
N    -3.247265  1.793547  6.857300
N    -3.730765  2.595414  4.756584
H    -0.638535  -1.573388  4.321728
H    -2.262122  -1.695735  3.684217
H    -1.645391  -0.228328  6.327233
H    -1.880965  -1.963781  6.242737
H    -3.923862  -0.945826  6.997110
H    -4.200290  -1.719302  5.454655
H    -4.740814  0.235142  4.458253
H    -3.164977  2.771940  7.116105
H    -3.579621  1.204107  7.613604
H    -4.204357  2.384517  3.874626
N    -0.986375  2.453229  4.617033
C    -0.193666  3.477899  5.290227
H    -2.051057  2.625475  4.547938
H    -0.830043  4.354913  5.435775
H    0.673323  3.760503  4.681242
H    0.160039  3.117012  6.265055
Ca    2.171796  -0.383528  3.820523
