36
Energy: -39736.2794927 eV PBE+vdW (tier 2 basis)
C    1.414034  -1.074199  -0.153673
C    0.697087  -0.095754  0.728215
O    1.292911  0.981931  1.101505
H    1.779091  -0.571655  -1.060906
H    0.788493  -1.922347  -0.449521
H    2.291006  -1.460947  0.384387
N    -0.534362  -0.378511  1.093190
C    -1.408076  0.300534  2.049180
C    -2.527933  -0.762865  2.271331
O    -2.630522  -1.668298  1.432509
H    -1.015652  -1.249598  0.779939
H    -0.844728  0.480573  2.976115
C    -1.991506  1.646536  1.561151
C    -2.813575  1.632945  0.257125
C    -2.026723  1.907803  -1.034189
N    -1.323377  3.198229  -0.953028
C    0.000418  3.361396  -1.047023
N    0.595386  4.465085  -0.365382
N    0.894757  2.552827  -1.570023
H    -1.164967  2.369787  1.490701
H    -2.626977  2.022063  2.373242
H    -3.612636  2.384791  0.337198
H    -3.333625  0.672766  0.125511
H    -2.703522  1.913113  -1.898674
H    -1.273554  1.132029  -1.215051
H    -1.886749  4.003816  -0.689977
H    1.055369  5.113288  -1.010553
H    -0.032474  4.985631  0.248880
H    0.508460  1.836078  -2.185543
N    -3.347829  -0.645640  3.327102
C    -3.311718  0.306426  4.431570
H    -4.069161  -1.364306  3.356550
H    -3.612976  -0.207447  5.350711
H    -3.998403  1.148793  4.267514
H    -2.298188  0.690560  4.589112
Ca    2.320007  2.607319  0.210416
