36
Energy: -39735.1128655 eV PBE+vdW (tier 2 basis)
C    0.301990  1.058571  0.134610
C    -0.060831  0.168290  1.273894
O    0.845227  -0.431962  1.944693
H    0.646450  2.036604  0.505804
H    -0.524337  1.217113  -0.564784
H    1.151234  0.606824  -0.393784
N    -1.350882  -0.008194  1.628149
C    -2.303829  1.095442  1.759655
C    -1.802487  1.990768  2.935392
O    -0.764103  1.625446  3.607855
H    -1.500343  -0.760764  2.302933
H    -2.284594  1.694789  0.837028
C    -3.723416  0.548898  1.999245
C    -3.947349  -0.038582  3.399211
C    -5.435679  0.029716  3.817084
N    -5.615585  0.069339  5.248381
C    -5.392944  1.222405  5.966989
N    -5.828281  1.166344  7.273948
N    -4.757526  2.215874  5.406200
H    -3.933041  -0.177702  1.201545
H    -4.432902  1.370553  1.843274
H    -3.409416  0.562678  4.146750
H    -3.589419  -1.077701  3.472743
H    -5.995258  -0.826383  3.420954
H    -5.875335  0.941303  3.381382
H    -6.058586  -0.713975  5.708553
H    -5.770682  2.023578  7.810251
H    -6.646421  0.606752  7.492134
H    -4.764205  3.022846  6.034532
N    -2.414490  3.105331  3.257737
C    -3.620816  3.717310  2.695356
H    -2.057152  3.545056  4.106726
H    -4.486592  3.361291  3.275467
H    -3.723961  3.480055  1.633033
H    -3.526181  4.802926  2.799833
Ca    0.928386  0.391200  3.936991
