36
Energy: -39737.502106 eV PBE+vdW (tier 2 basis)
C    -1.136599  -0.749478  -0.098385
C    -0.737541  -0.271016  1.261742
O    0.478343  -0.082703  1.540902
H    -2.217655  -0.866286  -0.225674
H    -0.646450  -1.714015  -0.288949
H    -0.758527  -0.045364  -0.851339
N    -1.718982  -0.060139  2.162617
C    -1.578662  0.326251  3.583134
C    -1.117105  1.794686  3.696051
O    0.073608  2.126811  3.440775
H    -2.665292  -0.232186  1.836633
H    -2.596998  0.271726  3.989652
C    -0.694524  -0.678134  4.364436
C    -0.081863  -0.159094  5.667075
C    0.872693  -1.163605  6.324631
N    1.860012  -1.819728  5.437767
C    3.045439  -1.263566  5.038905
N    4.140980  -2.045779  5.156616
N    3.084510  -0.038678  4.514386
H    0.107676  -1.044817  3.709573
H    -1.315908  -1.563229  4.562562
H    -0.864113  0.071640  6.405878
H    0.458501  0.783265  5.503244
H    0.292582  -1.988294  6.757051
H    1.392584  -0.667189  7.156421
H    1.904983  -2.825321  5.568945
H    5.007818  -1.806813  4.689901
H    4.167064  -2.836314  5.790465
H    4.048778  0.307162  4.562480
N    -2.027197  2.681184  4.081882
C    -1.787893  4.115326  4.241907
H    -2.969237  2.346666  4.265249
H    -2.284116  4.672097  3.437010
H    -0.712665  4.304285  4.206467
H    -2.190476  4.443936  5.206344
Ca    1.870233  1.008714  2.836644
