36
Energy: -39736.6210484 eV PBE+vdW (tier 2 basis)
C    1.239580  -0.940091  1.748936
C    0.340226  -1.125252  2.936257
O    0.678161  -2.093105  3.762412
H    0.883786  -0.143884  1.089127
H    1.317171  -1.880742  1.187329
H    2.254031  -0.690879  2.089515
N    -0.694851  -0.341022  3.068727
C    -1.656552  -0.529064  4.170165
C    -1.004019  -0.531503  5.556725
O    -0.766693  -1.608974  6.203330
H    -1.436470  1.890094  0.479707
H    -2.291755  0.371010  4.154768
C    -2.608057  -1.726633  3.952251
C    -3.719640  -1.475297  2.914782
C    -3.352182  -1.472391  1.423402
N    -2.531296  -0.325749  1.034150
C    -2.579211  0.298550  -0.139830
N    -3.333426  -0.145128  -1.158389
N    -1.850113  1.418480  -0.313384
H    -3.101985  -1.956162  4.907227
H    -2.032598  -2.622907  3.666639
H    -4.241452  -0.536257  3.156451
H    -4.467773  -2.271398  3.036693
H    -4.294105  -1.440902  0.858847
H    -2.838175  -2.411446  1.155843
H    -1.726743  -0.117084  1.685757
H    -3.512926  0.432299  -1.970431
H    -3.740712  -1.070303  -1.150291
H    -1.717310  1.829269  -1.228356
N    -0.685349  0.630953  6.111147
C    -0.865049  1.973172  5.553428
H    -0.295219  0.565859  7.050660
H    -0.639308  1.973747  4.482750
H    -0.163617  2.646882  6.054674
H    -1.884957  2.340422  5.728830
Ca    0.493006  -3.168889  5.481685
