36
Energy: -39737.4739563 eV PBE+vdW (tier 2 basis)
C    0.006871  0.550106  0.062999
C    -0.249044  0.273250  1.507384
O    0.704227  0.168602  2.331551
H    0.572373  1.488282  -0.021298
H    -0.907269  0.625772  -0.534696
H    0.644497  -0.242806  -0.350136
N    -1.525279  0.147022  1.924969
C    -1.867814  -0.027502  3.338024
C    -1.767428  -1.522358  3.715879
O    -0.631307  -1.978374  4.031197
H    -2.269825  0.231238  1.237364
H    -1.039322  0.434163  3.884101
C    -3.129548  0.729197  3.768180
C    -3.212966  0.916440  5.296152
C    -2.216985  1.925270  5.902378
N    -0.805408  1.520027  5.848477
C    -0.164980  0.628649  6.658660
N    -0.745948  0.314558  7.836664
N    0.967105  0.081836  6.217525
H    -4.046099  0.239601  3.401029
H    -3.112247  1.714956  3.277965
H    -3.118556  -0.051727  5.813276
H    -4.219763  1.283616  5.539064
H    -2.516950  2.146538  6.936840
H    -2.281356  2.885387  5.373934
H    -0.187668  2.041331  5.237859
H    -0.332907  -0.395817  8.428558
H    -1.399010  0.946898  8.285411
H    1.508895  -0.288772  7.003909
N    -2.854371  -2.278868  3.667318
C    -2.896021  -3.716209  3.939674
H    -3.730490  -1.827303  3.418239
H    -3.188258  -4.258614  3.032263
H    -3.627624  -3.920346  4.729976
H    -1.905255  -4.045785  4.259763
Ca    1.318762  -0.911748  4.157206
