36
Energy: -39735.3600368 eV PBE+vdW (tier 2 basis)
C    -0.097343  -0.927156  0.785091
C    -0.105948  -0.468284  2.203651
O    0.892201  -0.693386  2.966320
H    0.539540  -0.267665  0.174955
H    -1.096829  -0.960915  0.342273
H    0.360051  -1.924315  0.750894
N    -1.160808  0.216840  2.694476
C    -1.769095  1.338643  1.970460
C    -0.663168  2.409904  1.746493
O    0.448153  2.320292  2.409494
H    -1.133736  0.345206  3.707926
H    -2.098074  1.001275  0.974372
C    -3.018580  1.828288  2.735491
C    -4.262504  0.950659  2.453169
C    -5.436514  1.660385  1.712063
N    -5.054314  2.760491  0.823332
C    -4.028644  2.702400  -0.078971
N    -3.753202  1.455720  -0.617014
N    -3.233462  3.692945  -0.399902
H    -3.207664  2.871603  2.456242
H    -2.787788  1.852467  3.811605
H    -4.667765  0.554848  3.392679
H    -3.951690  0.068963  1.876298
H    -6.125892  2.102212  2.440090
H    -6.025247  0.904846  1.170973
H    -5.237379  3.690497  1.182757
H    -3.245327  1.528978  -1.495084
H    -4.541475  0.817078  -0.683212
H    -3.532365  4.569597  0.036285
N    -0.867144  3.340546  0.856107
C    0.097418  4.397904  0.557544
H    -1.812256  3.396498  0.296420
H    -0.335045  5.035347  -0.218880
H    1.037999  3.973775  0.183599
H    0.307835  5.002406  1.448527
Ca    1.902564  1.170361  3.410944
