36
Energy: -39736.5121417 eV PBE+vdW (tier 2 basis)
C    -0.289287  -0.765531  -0.672588
C    0.053568  -0.543538  0.762460
O    1.254903  -0.727558  1.164980
H    0.472802  -0.277705  -1.293361
H    -1.277647  -0.387430  -0.948424
H    -0.243028  -1.839826  -0.902365
N    -0.856614  -0.155970  1.648087
C    -2.313940  -0.082702  1.569228
C    -2.732666  0.603485  2.890174
O    -2.001080  0.486367  3.897312
H    -0.532536  0.034683  2.604013
H    -2.605870  0.552155  0.722543
C    -3.018705  -1.475379  1.408229
C    -2.304415  -2.749601  1.895660
C    -2.109326  -2.985684  3.406165
N    -1.121565  -2.115587  4.052428
C    0.204543  -2.223554  4.017649
N    0.842538  -3.305493  3.331819
N    1.082964  -1.349564  4.477713
H    -3.217486  -1.618096  0.337761
H    -4.007552  -1.410210  1.884746
H    -1.339507  -2.859747  1.373793
H    -2.915781  -3.590480  1.535480
H    -1.833663  -4.035232  3.581720
H    -3.053877  -2.834008  3.944760
H    -1.471508  -1.173028  4.303291
H    1.299251  -3.933466  3.999883
H    0.222824  -3.861839  2.742410
H    0.682307  -0.623286  5.075400
N    -3.884889  1.277826  2.915029
C    -4.788615  1.575410  1.801262
H    -4.111374  1.675573  3.824914
H    -5.187516  0.662381  1.342416
H    -4.296414  2.190661  1.036631
H    -5.633696  2.145264  2.196854
Ca    2.518262  -1.474201  2.720329
