36
Energy: -39736.3683652 eV PBE+vdW (tier 2 basis)
C    -1.436536  1.221435  -0.414231
C    -1.227838  1.232941  1.073399
O    -0.895551  2.213023  1.718239
H    -2.372942  1.750839  -0.640092
H    -1.488319  0.214405  -0.844380
H    -0.628264  1.785213  -0.893175
N    -1.423164  -0.000503  1.734778
C    -1.473364  0.025996  3.181574
C    -0.367711  -0.798682  3.823841
O    -0.401405  -1.038892  5.080135
H    -1.911194  -0.733513  1.227950
H    -1.174310  1.077514  3.402237
C    -2.882765  -0.156476  3.783557
C    -3.615111  -1.491054  3.572127
C    -3.197378  -2.695770  4.415769
N    -3.422196  -2.442740  5.889626
C    -3.145049  -3.588721  6.726756
N    -4.077406  -4.542654  6.827376
N    -1.982317  -3.532261  7.317286
H    -3.494912  0.638583  3.336507
H    -2.855797  0.108541  4.854968
H    -3.542142  -1.804107  2.519150
H    -4.691906  -1.316389  3.726848
H    -2.137710  -2.952437  4.287277
H    -3.779845  -3.572920  4.095305
H    -4.395027  -2.143738  6.016788
H    -3.953047  -5.343964  7.439828
H    -4.925957  -4.525319  6.272155
H    -1.725123  -4.356666  7.863667
N    0.639658  -1.174223  3.062251
C    1.865213  -1.832596  3.499132
H    0.544626  -0.901772  2.081415
H    2.714175  -1.145382  3.393882
H    2.047404  -2.718998  2.880986
H    1.767394  -2.128928  4.546103
Ca    -1.391252  -1.347695  6.914681
