36
Energy: -39735.0436819 eV PBE+vdW (tier 2 basis)
C    -0.026759  1.683577  -0.316506
C    -0.104770  1.215505  1.096964
O    0.744556  1.618820  1.963980
H    -0.430734  2.704238  -0.407234
H    -0.558717  1.028616  -1.012793
H    1.032667  1.740699  -0.597641
N    -1.091542  0.388589  1.493098
C    -2.494586  0.556131  1.104160
C    -2.927534  1.977405  1.536056
O    -2.215925  2.649840  2.367386
H    -0.955622  -0.058045  2.401962
H    -2.594503  0.457825  0.012668
C    -3.328208  -0.534271  1.799343
C    -4.745653  -0.755024  1.257816
C    -5.277253  -2.169587  1.604740
N    -4.813459  -3.229801  0.733291
C    -3.655221  -3.953262  0.931432
N    -3.628600  -5.148070  0.244580
N    -2.696562  -3.458168  1.656569
H    -3.370405  -0.322312  2.881679
H    -2.778478  -1.501320  1.691640
H    -4.762110  -0.657071  0.159378
H    -5.453736  -0.016622  1.667951
H    -6.372717  -2.151790  1.544388
H    -5.014138  -2.416657  2.644370
H    -5.453586  -3.566478  0.026156
H    -2.800978  -5.721501  0.352582
H    -4.489259  -5.677098  0.150524
H    -1.960657  -4.146567  1.822314
N    -4.062626  2.446455  1.055251
C    -4.702475  3.713865  1.409864
H    -4.570854  1.841236  0.412047
H    -4.941652  4.267117  0.494560
H    -4.024731  4.303475  2.029963
H    -5.629616  3.519979  1.963508
Ca    -0.319251  2.895422  3.332702
