36
Energy: -39736.4836947 eV PBE+vdW (tier 2 basis)
C    0.059293  -0.224050  0.166589
C    -0.464286  -1.216305  1.159455
O    -0.126056  -2.454376  1.056572
H    -0.356167  -0.462773  -0.822950
H    1.151159  -0.305049  0.088380
H    -0.209215  0.807553  0.414786
N    -1.272268  -0.783402  2.103668
C    -2.007666  -1.511841  3.136280
C    -2.828389  -0.372618  3.824081
O    -2.542448  0.797911  3.550977
H    -1.495718  0.230675  2.204570
H    -2.693435  -2.223810  2.650685
C    -1.102116  -2.284995  4.115045
C    -0.114989  -1.430242  4.930041
C    1.127834  -2.204825  5.395140
N    2.151896  -2.326496  4.336337
C    2.217712  -3.265966  3.387677
N    3.044007  -3.010155  2.245589
N    1.542000  -4.385701  3.268052
H    -0.565899  -3.032718  3.521156
H    -1.746669  -2.855667  4.799175
H    -0.617332  -1.023660  5.818653
H    0.218000  -0.554941  4.352069
H    0.873108  -3.206165  5.770070
H    1.615539  -1.685046  6.227923
H    2.861275  -1.599038  4.323702
H    3.859443  -3.630019  2.232383
H    3.363104  -2.044063  2.156966
H    1.033245  -4.670744  4.105830
N    -3.775231  -0.753977  4.693086
C    -4.629363  0.192472  5.411800
H    -3.988848  -1.742043  4.781870
H    -4.689494  -0.091149  6.468279
H    -5.639012  0.205472  4.982298
H    -4.191358  1.190131  5.323907
Ca    1.109403  -4.156909  1.025658
