36
Energy: -39734.4592265 eV PBE+vdW (tier 2 basis)
C    0.686860  0.526605  1.307145
C    -0.303451  -0.495168  1.754466
O    -0.433606  -1.585011  1.104347
H    1.203183  0.994275  2.151685
H    0.185100  1.324122  0.735642
H    1.412722  0.046840  0.643025
N    -1.092409  -0.300127  2.837578
C    -1.857160  0.927679  3.109341
C    -2.814469  1.152678  1.900237
O    -2.889560  0.291143  0.958409
H    -1.571873  -1.152200  3.128724
H    -2.503787  0.664532  3.961859
C    -1.045064  2.163700  3.547007
C    -0.154733  1.876260  4.758673
C    0.413269  3.164017  5.406799
N    0.893573  2.960068  6.751070
C    0.017953  2.666754  7.793481
N    0.634412  2.207416  8.936910
N    -1.275490  2.748815  7.762214
H    -1.770532  2.940695  3.840217
H    -0.479186  2.588314  2.706330
H    0.672549  1.203397  4.487614
H    -0.745992  1.350278  5.524533
H    -0.365270  3.944979  5.422959
H    1.237813  3.572720  4.807688
H    1.850531  2.639215  6.851170
H    0.012396  2.167771  9.738327
H    1.563597  2.551800  9.154259
H    -1.619966  3.102398  6.867852
N    -3.569340  2.232629  1.889014
C    -4.564776  2.548821  0.858306
H    -3.467881  2.887486  2.660589
H    -5.011964  3.516487  1.098853
H    -5.350433  1.784115  0.839944
H    -4.086842  2.607888  -0.126211
Ca    -2.300265  -1.564316  0.018802
