36
Energy: -39734.9635048 eV PBE+vdW (tier 2 basis)
C    -0.493981  1.869764  -0.518983
C    -0.403006  1.684207  0.951390
O    0.337897  2.436154  1.678423
H    0.534443  1.957177  -0.899961
H    -0.979607  2.829354  -0.755461
H    -1.013605  1.040631  -1.024844
N    -1.119676  0.720936  1.569794
C    -2.534609  0.474000  1.282093
C    -3.288103  1.752334  1.693986
O    -2.715830  2.602836  2.475964
H    -0.840934  0.541258  2.536592
H    -2.616250  0.274953  0.188336
C    -2.953077  -0.804729  2.059406
C    -4.198164  -1.602531  1.647394
C    -4.222554  -2.216651  0.221396
N    -2.952926  -2.731266  -0.251752
C    -2.024353  -1.961669  -0.917966
N    -0.735928  -2.428526  -0.883803
N    -2.253945  -0.802858  -1.485259
H    -3.045120  -0.556485  3.129045
H    -2.083584  -1.471845  1.967453
H    -5.121470  -1.024557  1.796360
H    -4.260650  -2.423347  2.376957
H    -4.604818  -1.492480  -0.510338
H    -4.951835  -3.036246  0.213653
H    -2.734529  -3.701763  -0.057056
H    -0.146976  -2.143605  -1.658173
H    -0.538016  -3.344879  -0.500096
H    -3.251200  -0.691394  -1.683178
N    -4.506170  2.022016  1.259608
C    -5.305833  1.340528  0.241971
H    -4.913815  2.870543  1.654616
H    -4.686390  0.635689  -0.315383
H    -5.695794  2.092705  -0.453276
H    -6.149345  0.812703  0.701577
Ca    -0.882256  3.554061  3.047895
