36
Energy: -39735.6455078 eV PBE+vdW (tier 2 basis)
C    -2.464823  0.992402  0.235139
C    -1.800921  0.944234  1.565555
O    -0.531005  1.117453  1.670811
H    -1.747073  1.296728  -0.530686
H    -3.322102  1.694995  0.257993
H    -2.864628  0.001546  -0.025276
N    -2.536402  0.719450  2.654902
C    -1.989070  0.727790  4.014048
C    -1.033291  -0.472513  4.207828
O    0.227433  -0.250791  4.145355
H    -3.590128  0.696267  2.557509
H    -1.323773  1.601828  4.106591
C    -3.067595  0.857828  5.111122
C    -3.554991  2.288768  5.439773
C    -4.872080  2.778170  4.804908
N    -4.789523  3.254486  3.430770
C    -5.015557  2.567630  2.265085
N    -5.309344  1.179660  2.420667
N    -4.891721  2.991425  1.058009
H    -2.620725  0.443509  6.026257
H    -3.925314  0.211407  4.882098
H    -2.761765  3.023659  5.232466
H    -3.711753  2.325800  6.527155
H    -5.239554  3.617406  5.410145
H    -5.647570  2.003040  4.900962
H    -4.632561  4.248497  3.311108
H    -5.959164  0.978432  3.181099
H    -5.718371  0.855801  1.542359
H    -4.633460  3.979574  0.998617
N    -1.450698  -1.709989  4.416541
C    -2.810396  -2.253336  4.477831
H    -0.693990  -2.379984  4.559766
H    -2.763070  -3.306716  4.184922
H    -3.470112  -1.732410  3.778550
H    -3.213732  -2.190648  5.495867
Ca    1.297722  0.800143  2.625607
