36
Energy: -39734.6487109 eV PBE+vdW (tier 2 basis)
C    0.818477  1.120310  3.398849
C    0.138430  -0.204240  3.457391
O    0.300738  -0.972416  4.465882
H    1.856526  0.973056  3.728742
H    0.817288  1.564644  2.399442
H    0.366309  1.825162  4.112849
N    -0.660400  -0.620753  2.451894
C    -1.692510  0.226316  1.858644
C    -2.834516  0.352349  2.913264
O    -2.698379  -0.135854  4.089087
H    -0.905381  -1.611843  2.491493
H    -1.274844  1.236310  1.728065
C    -2.148572  -0.288348  0.481537
C    -2.745853  -1.699307  0.460051
C    -3.154168  -2.164279  -0.959354
N    -2.054151  -2.166052  -1.897558
C    -1.764628  -1.057449  -2.710266
N    -0.611147  -1.199436  -3.440865
N    -2.403374  0.065644  -2.750551
H    -1.275992  -0.234711  -0.183476
H    -2.858228  0.437411  0.056130
H    -3.637236  -1.761323  1.108465
H    -2.012017  -2.431479  0.838892
H    -3.989475  -1.542176  -1.324092
H    -3.549701  -3.184851  -0.886733
H    -1.795950  -3.073698  -2.269373
H    -0.508350  -0.562500  -4.222036
H    -0.165706  -2.102503  -3.535138
H    -3.301091  0.016929  -2.266297
N    -3.931273  0.992368  2.566754
C    -5.083967  1.224969  3.443632
H    -3.985955  1.342904  1.612738
H    -4.764896  1.725949  4.364439
H    -5.572253  0.275085  3.692928
H    -5.794166  1.865349  2.914690
Ca    -1.531284  -1.162887  5.575779
