36
Energy: -39734.7883026 eV PBE+vdW (tier 2 basis)
C    0.078951  0.246884  0.512990
C    0.070763  0.043831  1.989623
O    1.189310  -0.034843  2.607459
H    0.936615  0.889766  0.276062
H    -0.839925  0.695831  0.132107
H    0.247526  -0.708398  -0.008208
N    -1.063355  -0.026158  2.729088
C    -2.198872  -0.942408  2.494932
C    -1.708098  -2.363312  2.871690
O    -0.444671  -2.625905  2.875090
H    -0.854914  0.076464  3.724235
H    -2.970095  -0.647459  3.221939
C    -2.826785  -0.929914  1.090037
C    -3.487646  0.393378  0.670544
C    -4.765659  0.780482  1.447986
N    -5.715046  -0.310273  1.663476
C    -6.071081  -1.210861  0.657203
N    -6.492497  -0.614161  -0.507944
N    -5.923835  -2.476907  0.893797
H    -3.593622  -1.718543  1.073653
H    -2.082777  -1.242182  0.345856
H    -3.746918  0.282243  -0.391833
H    -2.786910  1.240662  0.730016
H    -5.243517  1.614107  0.913773
H    -4.522665  1.180857  2.442324
H    -5.621584  -0.795191  2.548034
H    -6.820534  -1.225954  -1.246811
H    -7.013515  0.253758  -0.426443
H    -6.376707  -3.064762  0.189403
N    -2.569467  -3.305000  3.193839
C    -4.026617  -3.213962  3.363032
H    -2.149148  -4.218391  3.367149
H    -4.272312  -2.381597  4.035333
H    -4.358417  -4.140956  3.838428
H    -4.571331  -3.089577  2.401952
Ca    1.576469  -2.058611  3.204658
