36
Energy: -39736.4379712 eV PBE+vdW (tier 2 basis)
C    -0.669060  -1.334579  0.294358
C    -0.417375  -1.059603  1.738222
O    0.705150  -1.304332  2.265120
H    0.001314  -0.730344  -0.332291
H    -1.708326  -1.179073  -0.008950
H    -0.398520  -2.384149  0.107550
N    -1.400421  -0.528491  2.521961
C    -2.225647  0.606150  2.103810
C    -1.289081  1.641884  1.429374
O    -0.078250  1.706787  1.810135
H    -1.186094  -0.617184  3.515698
H    -3.007886  0.263703  1.413386
C    -2.873764  1.364099  3.294244
C    -3.720961  0.627087  4.350732
C    -2.985040  -0.130745  5.487325
N    -1.737855  0.530961  5.915183
C    -0.502977  0.099860  5.543766
N    -0.352859  -1.255842  5.398776
N    0.517194  0.881406  5.205746
H    -3.525059  2.120151  2.834887
H    -2.078920  1.937721  3.795344
H    -4.426199  -0.072570  3.879794
H    -4.345217  1.403358  4.815731
H    -2.739861  -1.149199  5.169170
H    -3.660498  -0.228110  6.346282
H    -1.811570  1.526890  6.104231
H    0.604271  -1.589892  5.352485
H    -0.954877  -1.858612  5.951877
H    0.299021  1.862760  5.404227
N    -1.748761  2.476188  0.508954
C    -3.097385  2.594717  -0.049379
H    -1.063943  3.160418  0.184852
H    -3.653069  1.659567  0.060158
H    -3.015048  2.823319  -1.117081
H    -3.649185  3.405697  0.443331
Ca    1.441681  0.659438  3.071872
