36
Energy: -39736.4307177 eV PBE+vdW (tier 2 basis)
C    0.677415  0.027876  -0.485128
C    0.577868  0.256314  0.994909
O    1.576875  0.439795  1.706023
H    -0.290264  -0.015399  -0.996874
H    1.210204  -0.918271  -0.653770
H    1.291920  0.820836  -0.927930
N    -0.684656  0.254984  1.537398
C    -1.006282  0.232952  2.966594
C    -0.610170  1.485231  3.766938
O    -1.454071  1.935418  4.628330
H    -1.463601  0.174378  0.894184
H    -2.102407  0.231911  3.009162
C    -0.461624  -1.040995  3.679453
C    -1.251211  -2.329959  3.394281
C    -2.396181  -2.656224  4.366088
N    -3.453976  -1.632138  4.409519
C    -3.622949  -0.636430  5.287216
N    -2.738209  -0.497756  6.404395
N    -4.495899  0.346387  5.233884
H    -0.402558  -0.850588  4.763512
H    0.581675  -1.166643  3.363454
H    -0.565824  -3.188352  3.436186
H    -1.632420  -2.318820  2.361029
H    -2.016978  -2.815335  5.384929
H    -2.874378  -3.601137  4.076854
H    -4.085141  -1.620737  3.610738
H    -3.218572  -0.774116  7.266518
H    -1.876279  -1.038899  6.332226
H    -5.225968  0.246347  4.526121
N    0.576038  2.007532  3.591847
C    1.096674  3.177061  4.290385
H    1.176667  1.481791  2.898498
H    0.290594  3.885909  4.504404
H    1.842859  3.658410  3.651356
H    1.581136  2.880703  5.230712
Ca    -3.055814  1.969571  5.991102
