36
Energy: -39736.5919172 eV PBE+vdW (tier 2 basis)
C    0.498122  1.046280  0.577529
C    0.574102  0.063432  1.697482
O    1.715554  -0.302877  2.146489
H    1.196959  1.866538  0.784094
H    -0.504651  1.454587  0.423252
H    0.834988  0.571327  -0.355368
N    -0.517738  -0.450400  2.252362
C    -1.917610  -0.431497  1.831695
C    -2.681798  -1.078049  3.014313
O    -2.105113  -1.924394  3.729005
H    -0.384839  -1.073836  3.057248
H    -2.253790  0.608889  1.718863
C    -2.191123  -1.184469  0.484582
C    -1.247611  -2.314111  0.032351
C    -1.210725  -3.640389  0.816078
N    -0.580615  -3.565050  2.138209
C    0.719718  -3.531917  2.418823
N    1.704024  -3.616552  1.383404
N    1.270530  -3.313556  3.600686
H    -2.179313  -0.431995  -0.315376
H    -3.224756  -1.559062  0.517970
H    -0.223671  -1.920843  -0.080818
H    -1.561944  -2.574891  -0.989302
H    -0.700802  -4.408336  0.217242
H    -2.227826  -4.019666  0.979996
H    -1.196401  -3.204846  2.890467
H    2.214952  -4.502118  1.446235
H    1.335795  -3.526282  0.436170
H    0.618113  -3.364879  4.386062
N    -3.948756  -0.695540  3.178425
C    -4.847571  -1.240472  4.196034
H    -4.312692  0.038531  2.577443
H    -5.182842  -0.438837  4.864545
H    -4.306108  -1.992810  4.774436
H    -5.721341  -1.699788  3.718621
Ca    2.911163  -1.921935  2.868855
