36
Energy: -39735.6058106 eV PBE+vdW (tier 2 basis)
C    -2.119027  1.132800  -1.269014
C    -1.991041  0.458721  0.056703
O    -1.896646  -0.811311  0.122562
H    -2.249474  2.217289  -1.195852
H    -2.960626  0.701101  -1.825827
H    -1.210613  0.921662  -1.852215
N    -1.963627  1.212672  1.159407
C    -1.645096  0.792606  2.545319
C    -2.901660  0.139722  3.161776
O    -3.270277  -1.001396  2.694001
H    -2.059323  2.216886  1.021277
H    -0.890630  -0.007878  2.473705
C    -1.026709  2.015098  3.249814
C    -0.204490  1.786572  4.530594
C    -0.954936  1.359566  5.797423
N    -2.141257  2.201389  6.015548
C    -3.087245  1.923669  7.060772
N    -2.996900  0.642865  7.590972
N    -4.052254  2.693581  7.385804
H    -1.808007  2.773359  3.419473
H    -0.336499  2.459630  2.517600
H    0.314377  2.735908  4.731198
H    0.595495  1.056039  4.339238
H    -0.247612  1.395999  6.642781
H    -1.297736  0.317873  5.714290
H    -1.921005  3.197520  6.009502
H    -3.670331  0.523472  8.345772
H    -2.070853  0.325106  7.865290
H    -4.083865  3.565091  6.850589
N    -3.580028  0.748541  4.099216
C    -4.804456  0.205669  4.694985
H    -3.127346  1.547841  4.618396
H    -5.298697  1.010623  5.245397
H    -5.466034  -0.176436  3.911507
H    -4.558719  -0.599428  5.399628
Ca    -2.826000  -2.388390  1.180320
