36
Energy: -39736.8353233 eV PBE+vdW (tier 2 basis)
C    0.461658  -1.526308  1.666597
C    -0.627001  -1.748825  2.663450
O    -0.370955  -1.931277  3.882886
H    0.754651  -0.464748  1.662712
H    0.181154  -1.819858  0.649804
H    1.342575  -2.094166  1.987428
N    -1.934886  -1.754096  2.263369
C    -2.477481  -0.748954  1.358009
C    -2.450535  0.619588  2.099821
O    -2.207581  0.667468  3.339216
H    -2.563494  -2.017913  3.024929
H    -1.787895  -0.671122  0.504864
C    -3.864093  -1.140895  0.781053
C    -5.163081  -0.856421  1.559801
C    -5.479015  -1.673152  2.838891
N    -5.341479  -0.885150  4.071034
C    -4.365418  -1.000252  4.982296
N    -4.126411  0.094727  5.843424
N    -3.473861  -1.960130  5.112159
H    -3.801614  -2.208000  0.521547
H    -3.964926  -0.624264  -0.184183
H    -5.975960  -1.045541  0.846180
H    -5.239614  0.215872  1.797959
H    -4.853160  -2.570554  2.918508
H    -6.512292  -2.038700  2.801478
H    -6.052878  -0.176069  4.228237
H    -4.234719  -0.155147  6.828574
H    -4.636541  0.951735  5.631949
H    -3.738427  -2.856917  4.701522
N    -2.679233  1.705084  1.370909
C    -2.674226  3.082477  1.865201
H    -2.841898  1.576995  0.374850
H    -2.477906  3.075024  2.939406
H    -3.644938  3.553156  1.668997
H    -1.891440  3.656801  1.355352
Ca    -1.616825  -0.569788  5.163923
