36
Energy: -39736.3672617 eV PBE+vdW (tier 2 basis)
C    -0.136533  1.392375  0.626759
C    -0.760908  0.046960  0.852814
O    -0.837537  -0.815060  -0.032765
H    0.939073  1.248602  0.453563
H    -0.269055  2.087182  1.463588
H    -0.550874  1.833127  -0.287369
N    -1.256007  -0.213250  2.111515
C    -1.622941  -1.576098  2.493607
C    -3.026562  -1.917739  1.943332
O    -4.044707  -2.023299  2.722706
H    -1.142970  0.484348  2.839643
H    -0.921983  -2.246472  1.968510
C    -1.492657  -1.805485  3.999297
C    -1.476236  -3.303081  4.386781
C    -2.526566  -3.756463  5.403879
N    -2.509717  -3.008507  6.655501
C    -3.529150  -2.302350  7.193749
N    -3.392455  -1.929897  8.483756
N    -4.613413  -1.975698  6.474170
H    -2.284493  -1.262381  4.541183
H    -0.551423  -1.338033  4.316375
H    -0.483556  -3.564566  4.778508
H    -1.603276  -3.939466  3.497963
H    -3.542265  -3.691507  4.986846
H    -2.379249  -4.823843  5.627196
H    -1.701627  -3.165395  7.249871
H    -4.047292  -1.291260  8.916417
H    -2.653854  -2.289888  9.076463
H    -5.305178  -1.569895  7.111613
N    -3.106812  -2.074573  0.645130
C    -4.319465  -2.353025  -0.113378
H    -2.217984  -1.817003  0.144225
H    -4.040074  -2.868170  -1.037286
H    -4.835490  -1.419172  -0.375671
H    -4.993858  -2.991926  0.465416
Ca    -5.348846  -1.965671  4.347853
