36
Energy: -39736.8137876 eV PBE+vdW (tier 2 basis)
C    -0.357131  0.954792  -0.058492
C    -0.074850  0.730049  1.389137
O    0.782464  1.420764  2.009324
H    0.563503  1.300393  -0.542143
H    -1.099998  1.759757  -0.172939
H    -0.729898  0.058861  -0.565863
N    -0.748372  -0.228816  2.082027
C    -2.176194  -0.473947  1.965547
C    -2.926671  0.789946  2.500508
O    -2.280861  1.764911  2.983433
H    -0.385478  -0.360758  3.028246
H    -2.432993  -0.542855  0.897732
C    -2.561604  -1.833999  2.615531
C    -1.875234  -2.213667  3.938249
C    -2.363357  -1.504284  5.226351
N    -1.290878  -1.265934  6.191283
C    -0.409618  -0.237098  6.097253
N    0.771950  -0.347673  6.734499
N    -0.680540  0.853374  5.374676
H    -2.306904  -2.607036  1.878751
H    -3.654720  -1.884553  2.727476
H    -0.785242  -2.089013  3.850986
H    -2.006144  -3.296586  4.065327
H    -3.123912  -2.109226  5.733440
H    -2.867518  -0.553133  5.000240
H    -1.110352  -1.993377  6.875576
H    1.298560  0.488603  6.952479
H    1.051794  -1.202171  7.200965
H    -1.694859  0.867501  5.225519
N    -4.246892  0.804577  2.375900
C    -5.128337  1.908921  2.759615
H    -4.689705  -0.007832  1.952863
H    -5.785821  1.598028  3.580757
H    -5.743786  2.199391  1.900391
H    -4.520360  2.758662  3.076828
Ca    -0.238548  2.369201  3.752248
