36
Energy: -39736.2117698 eV PBE+vdW (tier 2 basis)
C    0.045516  0.337920  -1.076144
C    0.296542  0.262799  0.396103
O    1.500854  0.107482  0.836089
H    0.618798  1.170864  -1.505419
H    -1.013051  0.477937  -1.316263
H    0.395115  -0.587575  -1.554011
N    -0.723952  0.354660  1.217782
C    -0.734745  0.313680  2.681013
C    -2.246971  0.083484  2.987275
O    -3.050998  0.500461  2.149342
H    -1.690280  0.511625  0.872875
H    -0.089576  -0.507025  3.022008
C    -0.264321  1.682889  3.237943
C    0.086584  1.769633  4.728371
C    1.212569  0.856928  5.234556
N    2.372717  0.887366  4.339869
C    3.431995  0.047738  4.375042
N    3.611717  -0.706639  5.475133
N    4.216832  -0.035082  3.287878
H    -1.050877  2.419943  3.023022
H    0.598528  1.997836  2.631685
H    -0.798063  1.575543  5.349509
H    0.357102  2.815649  4.935998
H    0.877921  -0.187666  5.308292
H    1.486821  1.186091  6.250208
H    2.471890  1.688748  3.727729
H    4.320133  -1.430326  5.493726
H    3.192266  -0.457747  6.363890
H    5.137896  -0.404592  3.540380
N    -2.632364  -0.501562  4.137432
C    -1.847835  -1.205597  5.141096
H    -3.645659  -0.530499  4.240802
H    -0.904846  -1.567395  4.716726
H    -2.409242  -2.083965  5.478560
H    -1.638147  -0.578493  6.019219
Ca    3.559919  -0.072181  1.138519
