36
Energy: -39736.619725 eV PBE+vdW (tier 2 basis)
C    -0.699457  0.882685  -1.024897
C    -0.115341  0.569035  0.324998
O    1.152382  0.737282  0.482911
H    -1.565969  1.550385  -0.958671
H    -1.032724  -0.040541  -1.522379
H    0.067506  1.350304  -1.648357
N    -0.756583  0.040870  1.386010
C    -1.977295  -0.771614  1.272338
C    -1.540546  -2.144841  0.694596
O    -0.333962  -2.505038  0.851581
H    -0.134602  3.123959  3.586769
H    -2.233886  -1.023681  2.318410
C    -3.257545  -0.160968  0.659544
C    -3.612764  1.270735  1.102922
C    -3.654255  1.556639  2.609826
N    -2.312065  1.839748  3.137769
C    -2.046776  2.650074  4.163893
N    -3.012207  3.044497  5.004642
N    -0.781037  3.069270  4.364192
H    -4.099732  -0.813728  0.942262
H    -3.212979  -0.167147  -0.438007
H    -4.611158  1.491543  0.702130
H    -2.940797  2.004172  0.634921
H    -4.115367  0.717918  3.158140
H    -4.277888  2.445419  2.778186
H    -1.522071  1.392792  2.645097
H    -3.910351  2.578814  5.036308
H    -2.864448  3.805951  5.656436
H    -0.530301  3.577357  5.203950
N    -2.431821  -2.923296  0.097591
C    -2.168527  -4.270256  -0.411893
H    -3.376523  -2.564533  -0.006190
H    -2.789459  -4.998023  0.124185
H    -1.113441  -4.507520  -0.260766
H    -2.406726  -4.313516  -1.481034
Ca    1.246433  -1.136964  1.607134
