36
Energy: -39736.8560583 eV PBE+vdW (tier 2 basis)
C    -0.672405  1.269058  -0.267186
C    -0.877515  0.404343  0.930545
O    0.091476  0.009105  1.635643
H    -0.633122  2.326129  0.040661
H    -1.460902  1.152123  -1.017883
H    0.302222  1.030668  -0.707601
N    -2.137474  0.029010  1.296290
C    -3.273272  0.943657  1.333819
C    -2.930541  2.078806  2.348288
O    -1.972730  1.934323  3.163412
H    -2.132508  -0.627338  2.078030
H    -3.407867  1.390162  0.337881
C    -4.572243  0.197999  1.722033
C    -4.611150  -0.369793  3.156699
C    -4.134773  -1.834543  3.331198
N    -3.636845  -2.086308  4.685533
C    -2.458761  -1.598691  5.141029
N    -2.345532  -1.322675  6.460464
N    -1.421017  -1.330418  4.337605
H    -4.741441  -0.590196  0.973854
H    -5.405502  0.901653  1.595616
H    -5.640699  -0.303825  3.530787
H    -4.018354  0.271215  3.827365
H    -3.367064  -2.122637  2.599107
H    -4.960260  -2.533454  3.153302
H    -4.302432  -2.442319  5.365166
H    -1.430816  -1.401492  6.890400
H    -3.142641  -1.398195  7.083143
H    -1.433043  -1.977656  3.542911
N    -3.685243  3.167110  2.315689
C    -3.551920  4.327763  3.197522
H    -4.416798  3.210491  1.609653
H    -4.499432  4.504702  3.719727
H    -3.298191  5.215920  2.606404
H    -2.761638  4.134492  3.925626
Ca    -0.291011  0.567754  3.771331
