36
Energy: -39736.4340616 eV PBE+vdW (tier 2 basis)
C    1.448333  2.081699  0.545305
C    0.804802  1.048146  1.417617
O    1.519929  0.387632  2.238448
H    0.739768  2.626093  -0.087328
H    2.186123  1.580095  -0.097008
H    2.003012  2.797856  1.164714
N    -0.510954  0.852235  1.289331
C    -1.396623  -0.188718  1.852468
C    -1.643700  -0.162234  3.376193
O    -0.652663  0.158867  4.180466
H    -0.963025  1.471727  0.623482
H    -2.370133  0.073813  1.426832
C    -1.027050  -1.631129  1.390354
C    -1.938353  -2.199256  0.285627
C    -3.452293  -2.068700  0.539016
N    -3.878907  -2.440144  1.886602
C    -4.543224  -3.538063  2.232734
N    -4.683591  -4.587155  1.404261
N    -5.082352  -3.612151  3.465223
H    -1.072845  -2.295043  2.264479
H    0.012915  -1.659266  1.040431
H    -1.670941  -3.257132  0.147369
H    -1.730138  -1.706729  -0.676279
H    -4.010418  -2.648718  -0.207465
H    -3.780155  -1.029615  0.387181
H    -3.632858  -1.736166  2.637454
H    -4.174657  -4.642458  0.532792
H    -5.378091  -5.302903  1.578402
H    -5.459243  -4.478883  3.826469
N    -2.817055  -0.560653  3.729794
C    -3.130245  -0.663994  5.150446
H    -5.217905  -2.774765  4.016679
H    -2.534002  0.013812  5.775206
H    -2.958726  -1.692192  5.509330
H    -4.191574  -0.428346  5.299511
Ca    1.373941  0.166233  4.356203
