36
Energy: -39736.4302911 eV PBE+vdW (tier 2 basis)
C    0.482926  1.486875  0.565789
C    0.267909  0.717278  1.824911
O    1.261624  0.373805  2.550920
H    0.574812  2.556570  0.805934
H    -0.333275  1.368267  -0.154260
H    1.422354  1.160398  0.106714
N    -0.954094  0.360317  2.222191
C    -2.268055  0.806549  1.740044
C    -2.327196  2.349545  1.651618
O    -1.700882  3.055897  2.465528
H    -0.965770  -0.223429  3.054134
H    -2.445731  0.362525  0.750467
C    -3.368789  0.273628  2.695235
C    -3.611965  0.973735  4.049256
C    -2.536247  0.884768  5.142483
N    -1.395032  1.762361  4.844968
C    -0.135792  1.672751  5.260072
N    0.330984  0.520866  5.964442
N    0.852470  2.499703  4.961627
H    -3.180166  -0.801867  2.849061
H    -4.314809  0.316049  2.139126
H    -3.876765  2.031193  3.897348
H    -4.514640  0.512086  4.472876
H    -2.210524  -0.164254  5.253264
H    -2.982627  1.182858  6.102391
H    -1.543186  2.433245  4.056924
H    0.667881  0.774911  6.897051
H    -0.353801  -0.228562  6.065381
H    0.542094  3.380222  4.545423
N    -3.105292  2.883185  0.700256
C    -3.878735  2.207348  -0.343522
H    -3.158904  3.899650  0.739009
H    -4.316207  2.974240  -0.988701
H    -4.700560  1.611838  0.074238
H    -3.242895  1.569370  -0.970778
Ca    2.302550  0.877420  4.352411
