36
Energy: -39735.1709911 eV PBE+vdW (tier 2 basis)
C    0.420552  -0.184196  0.045223
C    0.099542  -0.197628  1.502015
O    1.004943  -0.489465  2.348123
H    -0.418880  0.123702  -0.586281
H    0.738047  -1.195031  -0.249941
H    1.275213  0.481524  -0.134199
N    -1.148713  0.099339  1.884684
C    -1.767999  0.006657  3.229541
C    -1.207209  1.057958  4.203398
O    -0.037312  0.932313  4.691097
H    -1.792247  0.319106  1.128614
H    -2.823920  0.248719  3.050294
C    -1.714377  -1.407345  3.838882
C    -2.521679  -1.564267  5.131715
C    -4.053666  -1.503413  4.937798
N    -4.732686  -2.127396  6.048275
C    -4.741808  -3.536577  6.150319
N    -5.427253  -3.973223  7.258283
N    -4.192410  -4.376866  5.341555
H    -0.667631  -1.709223  4.014096
H    -2.088091  -2.107082  3.076074
H    -2.213710  -0.832356  5.895446
H    -2.286578  -2.554802  5.544842
H    -4.316656  -1.973458  3.966552
H    -4.407178  -0.463206  4.884852
H    -5.596862  -1.681741  6.342226
H    -5.413484  -4.978931  7.388625
H    -5.376139  -3.425008  8.109148
H    -3.910356  -3.947240  4.457831
N    -1.995235  2.061202  4.544941
C    -1.664277  3.127367  5.492230
H    -2.916729  2.099861  4.115132
H    -2.481858  3.230846  6.214439
H    -1.538520  4.075925  4.955199
H    -0.739933  2.873456  6.015062
Ca    1.705899  -0.230651  4.312647
