36
Energy: -39737.3969981 eV PBE+vdW (tier 2 basis)
C    -1.218692  1.223119  0.608499
C    -1.766893  0.387884  1.727724
O    -2.412763  -0.659516  1.472987
H    -0.545325  0.605905  -0.000793
H    -0.680490  2.117047  0.940003
H    -2.049870  1.525930  -0.042300
N    -1.526315  0.827049  2.982015
C    -1.931828  0.335591  4.317847
C    -1.467231  -1.095967  4.624134
O    -1.738126  -2.078887  3.881522
H    -0.992899  1.690316  3.018574
H    -1.355397  0.980551  4.990996
C    -3.412059  0.625726  4.701420
C    -4.559375  0.057690  3.852277
C    -4.958929  -1.403081  4.136565
N    -5.214141  -2.126038  2.845695
C    -5.503760  -3.530307  2.966955
N    -6.784168  -3.900992  3.121357
N    -4.448375  -4.288179  2.870691
H    -3.500208  1.721196  4.690478
H    -3.537199  0.336068  5.757125
H    -4.319689  0.169934  2.786922
H    -5.433463  0.699388  4.024783
H    -5.845971  -1.441198  4.786673
H    -4.167344  -1.954554  4.659669
H    -5.949716  -1.643599  2.322453
H    -7.053667  -4.879877  3.134630
H    -7.521565  -3.224165  3.280250
H    -4.615482  -5.283778  3.028436
N    -0.786777  -1.295775  5.752356
C    -0.344389  -0.325101  6.759579
H    -0.540621  -2.271619  5.914990
H    0.176132  -0.875925  7.547854
H    -1.193151  0.197356  7.217166
H    0.360849  0.400108  6.334487
Ca    -2.853104  -2.730300  2.094979
