36
Energy: -39734.9327561 eV PBE+vdW (tier 2 basis)
C    -0.790994  1.629557  -0.531852
C    -0.421890  0.782123  0.633669
O    0.803489  0.586270  0.939636
H    -0.140248  2.508627  -0.601876
H    -1.845488  1.924651  -0.545125
H    -0.596545  1.028925  -1.436801
N    -1.376713  0.198527  1.391948
C    -2.533322  0.942529  1.908508
C    -1.974273  2.149570  2.690547
O    -0.760381  2.120859  3.126604
H    -1.010412  -0.502640  2.039237
H    -3.153895  1.304735  1.067746
C    -3.369975  0.031681  2.843533
C    -3.835750  -1.316516  2.250219
C    -5.137308  -1.320518  1.424094
N    -5.094659  -0.528860  0.198749
C    -5.290400  0.838425  0.160664
N    -6.225717  1.330633  1.060226
N    -4.642284  1.686832  -0.585061
H    -4.237251  0.610333  3.188447
H    -2.761604  -0.172635  3.740287
H    -3.990106  -2.003195  3.095879
H    -3.031209  -1.770256  1.648752
H    -5.971693  -0.978228  2.048114
H    -5.369109  -2.359339  1.153525
H    -4.458109  -0.871985  -0.513874
H    -6.539803  2.259304  0.790249
H    -7.012045  0.716214  1.253397
H    -3.996252  1.202580  -1.215714
N    -2.720891  3.209183  2.917806
C    -4.074680  3.488677  2.421483
H    -2.286871  3.923330  3.503452
H    -4.217570  4.572904  2.441581
H    -4.184588  3.132286  1.388816
H    -4.829428  3.016686  3.060804
Ca    1.263492  1.524409  2.825253
