36
Energy: -39737.2872131 eV PBE+vdW (tier 2 basis)
C    0.568471  1.058911  0.125566
C    0.229418  0.465275  1.458961
O    1.070262  0.497019  2.392883
H    0.788343  2.126722  0.260206
H    -0.220870  0.949123  -0.625047
H    1.488303  0.588725  -0.246275
N    -0.996986  -0.088176  1.585990
C    -1.676343  -0.748988  2.727508
C    -1.797972  0.195633  3.940714
O    -0.787459  0.525857  4.623374
H    -1.562237  -0.045308  0.743481
H    -2.688238  -0.916169  2.343670
C    -1.145626  -2.161815  3.095706
C    0.163659  -2.205271  3.884019
C    0.762169  -3.587634  4.149628
N    1.697866  -3.588689  5.281583
C    2.800986  -2.802798  5.462215
N    3.811874  -3.375823  6.156221
N    2.859314  -1.540371  5.036507
H    -1.044750  -2.717073  2.151461
H    -1.939888  -2.666921  3.666505
H    -0.010045  -1.747657  4.871902
H    0.918352  -1.649784  3.311222
H    1.247816  -3.972498  3.238682
H    -0.030880  -4.297216  4.419005
H    1.699997  -4.451251  5.815025
H    4.554994  -2.814386  6.552802
H    3.880025  -4.378521  6.281622
H    3.833182  -1.229724  5.105818
N    -3.003568  0.646235  4.279006
C    -4.299665  0.409532  3.633490
H    -3.002219  1.247917  5.102438
H    -4.306011  0.777709  2.600330
H    -5.057066  0.966359  4.192028
H    -4.574815  -0.651993  3.659982
Ca    1.426970  0.235579  4.541855
