36
Energy: -39737.4002217 eV PBE+vdW (tier 2 basis)
C    0.125707  1.111976  0.490223
C    0.007148  0.748243  1.933706
O    0.981155  0.892477  2.723828
H    0.920210  0.506774  0.032673
H    0.442437  2.160687  0.412316
H    -0.802390  0.971729  -0.073345
N    -1.171013  0.264690  2.382179
C    -1.399496  -0.083193  3.786897
C    -0.773968  -1.454454  4.124276
O    0.406523  -1.467560  4.580673
H    -1.925473  0.140681  1.711916
H    -0.775744  0.615643  4.356393
C    -2.840240  0.136071  4.258701
C    -3.244135  1.617335  4.392725
C    -2.238787  2.540510  5.113499
N    -1.757301  2.038016  6.402306
C    -0.502762  1.593878  6.667732
N    -0.335412  0.824417  7.775540
N    0.553860  1.794475  5.878363
H    -2.928975  -0.353166  5.239548
H    -3.565474  -0.371014  3.601953
H    -4.213422  1.652045  4.909533
H    -3.423708  2.064128  3.403593
H    -2.706878  3.521394  5.269541
H    -1.367518  2.726874  4.473547
H    -2.428857  2.026872  7.164759
H    0.564716  0.864812  8.239884
H    -1.124209  0.586768  8.366531
H    0.405036  2.626726  5.300985
N    -1.475339  -2.559950  3.918926
C    -0.998467  -3.922068  4.164910
H    -2.424817  -2.458580  3.569608
H    -0.964836  -4.480352  3.221503
H    -1.678450  -4.430315  4.858348
H    0.002287  -3.874950  4.599524
Ca    1.798842  0.269005  4.680544
