36
Energy: -39737.1806969 eV PBE+vdW (tier 2 basis)
C    0.219711  0.171185  0.230034
C    -0.127953  -0.515675  1.514629
O    0.654156  -1.368484  2.011782
H    0.379415  -0.589212  -0.546045
H    1.172836  0.702310  0.355544
H    -0.540943  0.879661  -0.113523
N    -1.295843  -0.185973  2.097350
C    -1.923856  -0.711401  3.330240
C    -1.047953  -0.401857  4.570441
O    -0.013825  -1.081957  4.821022
H    -1.843910  0.511619  1.603325
H    -2.851690  -0.130834  3.411895
C    -2.288291  -2.214275  3.332137
C    -2.721494  -2.847735  2.005981
C    -2.796412  -4.394175  2.094814
N    -1.665991  -5.001287  2.822088
C    -0.363512  -4.712673  2.549280
N    -0.035873  -4.457519  1.256499
N    0.585524  -4.582318  3.479457
H    -3.075661  -2.340124  4.091306
H    -1.422876  -2.763561  3.719870
H    -2.015738  -2.565867  1.213235
H    -3.707243  -2.480783  1.686840
H    -2.886039  -4.825589  1.087579
H    -3.697547  -4.711117  2.632615
H    -1.850487  -5.187233  3.802290
H    0.943499  -4.557365  1.015157
H    -0.681841  -4.730876  0.524229
H    0.275095  -4.985786  4.368983
N    -1.448527  0.586322  5.360123
C    -0.762243  1.010570  6.581353
H    -2.286805  1.096909  5.096728
H    -1.509584  1.328918  7.314806
H    -0.086275  1.849258  6.369942
H    -0.187318  0.172122  6.983042
Ca    1.401614  -2.433155  3.751403
