36
Energy: -39734.1347719 eV PBE+vdW (tier 2 basis)
C    -1.130962  1.382227  -0.267923
C    -0.757180  0.796780  1.020834
O    0.501402  0.894715  1.436119
H    -2.172206  1.726115  -0.273400
H    -1.061260  0.602183  -1.112783
H    -0.464926  2.208039  -0.536340
N    -1.576723  0.131799  1.793876
C    -3.002043  -0.135738  1.611523
C    -3.420031  -0.622580  3.030550
O    -2.523637  -0.876253  3.849078
H    -1.301587  -0.262551  2.726021
H    -3.518161  0.806680  1.368077
C    -3.264539  -1.186252  0.503589
C    -4.582592  -0.989426  -0.259577
C    -4.500110  -1.517033  -1.705299
N    -3.459839  -0.836317  -2.473262
C    -2.197122  -1.337701  -2.712118
N    -2.157214  -2.662570  -3.073091
N    -1.166570  -0.550426  -2.555448
H    -3.205812  -2.195880  0.933513
H    -2.436157  -1.109189  -0.211745
H    -4.834844  0.084231  -0.303706
H    -5.424770  -1.483455  0.247837
H    -5.473009  -1.383486  -2.197875
H    -4.282547  -2.592293  -1.707037
H    -3.464202  0.178144  -2.425891
H    -1.250386  -3.058801  -3.288411
H    -2.918306  -3.024747  -3.639035
H    -0.319187  -0.937550  -2.976721
N    -4.731363  -0.763106  3.254564
C    -5.290956  -1.257410  4.511570
H    -5.379136  -0.495720  2.520468
H    -5.898647  -0.479687  4.989716
H    -4.465432  -1.529937  5.173826
H    -5.914758  -2.139629  4.325508
Ca    2.355050  1.152994  2.022536
