36
Energy: -39736.301547 eV PBE+vdW (tier 2 basis)
C    0.291189  -0.431849  0.333901
C    -0.377966  -0.300574  1.666973
O    -0.038754  -1.080714  2.612633
H    -0.038271  0.311657  -0.399008
H    0.085211  -1.436718  -0.060839
H    1.378734  -0.356670  0.461277
N    -1.316534  0.641209  1.804916
C    -2.262395  0.947139  2.904459
C    -1.669187  1.418491  4.244982
O    -0.951208  0.519979  4.903050
H    -1.470426  1.197112  0.968144
H    -2.837255  1.786526  2.498625
C    -3.286055  -0.186449  3.163000
C    -4.404829  0.255654  4.131410
C    -4.113322  -0.021829  5.619872
N    -4.942737  0.773951  6.524426
C    -4.511023  1.709996  7.390796
N    -5.350899  2.109923  8.364122
N    -3.283771  2.228347  7.314481
H    -2.782320  -1.092056  3.532814
H    -3.728709  -0.456049  2.195149
H    -5.335066  -0.256905  3.851772
H    -4.603874  1.329244  3.999940
H    -3.068009  0.177863  5.874852
H    -4.296287  -1.084119  5.841812
H    -5.935914  0.564661  6.547563
H    -5.175822  2.956065  8.891553
H    -6.170581  1.571163  8.615142
H    -2.964337  2.812470  8.078945
N    -1.996299  2.519109  4.822728
C    -2.672024  3.626347  4.171995
H    -2.708988  2.267591  6.431509
H    -2.121485  4.547919  4.403056
H    -3.683975  3.754450  4.585876
H    -2.756904  3.559435  3.076424
Ca    0.358316  -1.018754  4.696158
