36
Energy: -39737.5671144 eV PBE+vdW (tier 2 basis)
C    1.388141  1.243725  0.499037
C    0.930208  0.655277  1.796385
O    1.739969  0.050744  2.547954
H    2.213332  1.941304  0.694066
H    0.599318  1.764381  -0.053523
H    1.793460  0.438074  -0.128432
N    -0.374500  0.796456  2.118902
C    -1.073381  0.230500  3.291554
C    -0.575991  0.921677  4.580449
O    0.467135  0.525579  5.170798
H    -0.951125  1.287881  1.442835
H    -2.126405  0.502334  3.152725
C    -0.972555  -1.307217  3.327048
C    -1.507175  -1.999963  4.594850
C    -0.618464  -3.178384  5.011985
N    0.697933  -2.679269  5.475838
C    1.879025  -3.468745  5.418711
N    1.765138  -4.801297  5.313369
N    2.978842  -2.756869  5.404098
H    0.075054  -1.594851  3.167077
H    -1.502787  -1.679935  2.440546
H    -2.524519  -2.376482  4.428432
H    -1.583907  -1.299927  5.440892
H    -0.447012  -3.836770  4.149431
H    -1.119335  -3.770079  5.793250
H    0.619487  -2.240074  6.395718
H    0.902645  -5.283569  5.539004
H    2.585508  -5.381133  5.170559
H    3.836999  -3.302019  5.504061
N    -1.267684  1.950642  5.062556
C    -2.480648  2.577736  4.526928
H    -0.866463  2.364716  5.903668
H    -3.317354  1.869364  4.491447
H    -2.305079  3.005544  3.532232
H    -2.760814  3.393372  5.199106
Ca    2.229002  -0.692724  4.577444
