36
Energy: -39736.7780304 eV PBE+vdW (tier 2 basis)
C    0.266017  0.422071  0.511258
C    -0.224997  -0.069155  1.829984
O    0.501034  -0.029947  2.865529
H    0.351018  1.518800  0.529824
H    -0.366700  0.118347  -0.328013
H    1.283830  0.038175  0.360886
N    -1.486476  -0.558280  1.968372
C    -2.692894  0.021708  1.389850
C    -2.655257  1.545672  1.673459
O    -2.073823  1.956040  2.721677
H    -1.663774  -1.025529  2.874876
H    -2.754539  -0.182438  0.310499
C    -3.943131  -0.534179  2.125444
C    -4.112128  -2.056524  2.300925
C    -3.179248  -2.834970  3.275440
N    -2.424142  -2.000143  4.233270
C    -2.985320  -1.197883  5.223264
N    -4.252859  -1.455367  5.591260
N    -2.244728  -0.197040  5.668007
H    -4.818747  -0.177984  1.565947
H    -4.008026  -0.036855  3.105338
H    -4.054858  -2.556643  1.324444
H    -5.149946  -2.189207  2.633627
H    -2.406974  -3.365932  2.706765
H    -3.759807  -3.620422  3.784054
H    -1.525861  -2.386460  4.516964
H    -4.737559  -0.847949  6.242951
H    -4.667616  -2.367074  5.430869
H    -2.628188  0.189483  6.535613
N    -3.273626  2.351935  0.825494
C    -3.416750  3.801067  0.976366
H    -3.692117  1.929620  -0.000431
H    -2.898890  4.118027  1.884007
H    -4.479196  4.063025  1.047628
H    -2.980992  4.306322  0.106516
Ca    -0.783575  1.077169  4.342864
