36
Energy: -39736.4434483 eV PBE+vdW (tier 2 basis)
C    0.451086  -0.500179  -0.282770
C    0.019727  -0.068994  1.082186
O    0.764024  -0.321165  2.100722
H    1.423786  -0.048728  -0.520307
H    -0.267393  -0.222901  -1.060375
H    0.582698  -1.590758  -0.293359
N    -1.128504  0.561304  1.215119
C    -1.779232  1.049251  2.430499
C    -3.275618  1.124558  1.990930
O    -3.507599  1.347403  0.802536
H    -1.733905  0.749859  0.396897
H    -1.618501  0.328569  3.246003
C    -1.241864  2.458832  2.795434
C    -1.725578  3.053378  4.135057
C    -0.731698  2.971374  5.298428
N    -0.401409  1.594460  5.706978
C    0.725092  0.936642  5.409746
N    0.769823  -0.475354  5.676682
N    1.807551  1.362123  4.807281
H    -1.532382  3.127410  1.973621
H    -0.142819  2.418356  2.774293
H    -2.689228  2.618645  4.438918
H    -1.936904  4.122578  3.995068
H    -1.137317  3.482546  6.181089
H    0.200810  3.493334  5.047366
H    -1.058959  1.138545  6.333640
H    1.353082  -0.674529  6.495514
H    -0.145008  -0.905976  5.822383
H    1.871422  2.373621  4.689119
N    -4.213325  0.984002  2.945493
C    -5.647378  1.076660  2.666166
H    -3.928065  0.685886  3.870815
H    -6.143145  1.635958  3.466814
H    -6.096797  0.078534  2.586704
H    -5.780774  1.601946  1.716621
Ca    2.220212  -0.527323  3.585903
