36
Energy: -39735.6122348 eV PBE+vdW (tier 2 basis)
C    -2.259886  2.164126  0.597802
C    -1.563559  1.445553  1.697324
O    -0.283260  1.302038  1.671377
H    -1.932515  3.214245  0.595051
H    -3.351571  2.115775  0.707320
H    -1.952093  1.735344  -0.365271
N    -2.271567  0.950909  2.706253
C    -1.657897  0.309694  3.876375
C    -0.909495  -0.971598  3.454990
O    0.372499  -0.942281  3.438353
H    -3.293687  1.222826  2.842945
H    -0.861907  0.969541  4.261811
C    -2.682543  0.083943  5.005064
C    -3.175709  1.335145  5.759603
C    -3.827983  2.460433  4.934158
N    -4.602489  1.924718  3.808449
C    -5.212603  2.779743  2.828344
N    -5.374105  4.089084  3.195266
N    -5.441879  2.219807  1.694604
H    -2.213277  -0.582252  5.743422
H    -3.542823  -0.469362  4.609740
H    -2.352897  1.776434  6.339910
H    -3.896334  0.969501  6.505393
H    -3.059802  3.123676  4.510123
H    -4.423610  3.077660  5.627612
H    -5.258028  1.186424  4.063749
H    -5.534465  4.327478  4.168192
H    -5.823862  4.709870  2.531146
H    -5.986566  2.814473  1.063350
N    -1.525856  -2.085742  3.096634
C    -2.955033  -2.380550  2.945506
H    -0.888608  -2.855969  2.890204
H    -3.378855  -2.756680  3.884566
H    -3.055068  -3.158758  2.182279
H    -3.502888  -1.497026  2.606600
Ca    1.516505  0.426742  2.267378
