36
Energy: -39734.8998 eV PBE+vdW (tier 2 basis)
C    0.228224  0.689488  0.433298
C    -0.002136  0.247306  1.837479
O    0.910246  0.386601  2.718404
H    -0.617522  0.481482  -0.229847
H    1.130539  0.205068  0.036958
H    0.423901  1.771851  0.435287
N    -1.183110  -0.285289  2.168936
C    -1.613757  -0.604628  3.542432
C    -0.884693  -1.871083  4.047106
O    0.210710  -1.692656  4.692578
H    -1.892370  -0.342948  1.440562
H    -1.213413  0.192118  4.189372
C    -3.144206  -0.575613  3.684759
C    -3.757265  0.829761  3.773524
C    -3.745419  1.660965  2.471119
N    -4.668662  2.785076  2.487826
C    -6.048656  2.552442  2.695344
N    -6.535601  1.480344  1.942040
N    -6.825548  3.192473  3.484084
H    -3.398064  -1.125213  4.603372
H    -3.617741  -1.128567  2.858905
H    -3.287428  1.399799  4.591110
H    -4.808855  0.692598  4.063148
H    -4.007195  1.004444  1.624358
H    -2.744655  2.070978  2.262302
H    -4.339140  3.583211  3.023924
H    -7.542304  1.395234  2.068852
H    -6.295965  1.524044  0.953144
H    -6.330985  3.861589  4.080277
N    -1.311267  -3.105536  3.852164
C    -2.476861  -3.613510  3.119879
H    -0.721609  -3.813173  4.293284
H    -2.265519  -4.649870  2.840212
H    -3.375358  -3.594942  3.748330
H    -2.647615  -3.039818  2.204919
Ca    1.836901  -0.342617  4.477790
