36
Energy: -39734.66281 eV PBE+vdW (tier 2 basis)
C    -0.082259  0.355585  0.083005
C    -0.024762  -0.055494  1.513713
O    1.114367  -0.257261  2.058715
H    0.145805  -0.492772  -0.579482
H    0.722244  1.088761  -0.071038
H    -1.038053  0.797437  -0.202000
N    -1.127858  -0.169904  2.295117
C    -2.305397  -1.021430  2.036787
C    -1.884498  -2.474958  2.367644
O    -0.637288  -2.805658  2.347440
H    -0.873420  -0.174955  3.284910
H    -3.061217  -0.716582  2.775850
C    -2.966399  -0.930541  0.652068
C    -3.779287  0.353048  0.453993
C    -4.762715  0.273507  -0.742144
N    -5.456616  -1.000901  -0.894678
C    -6.050620  -1.723514  0.128612
N    -6.506176  -0.958336  1.199866
N    -6.149846  -3.012641  0.200398
H    -3.656269  -1.782456  0.589764
H    -2.235510  -1.100277  -0.150371
H    -3.135383  1.234174  0.312305
H    -4.352301  0.535651  1.373602
H    -4.228203  0.442052  -1.685607
H    -5.473088  1.110560  -0.652050
H    -5.181664  -1.563037  -1.690524
H    -7.136487  -1.502029  1.784882
H    -6.919389  -0.063036  0.948824
H    -5.734772  -3.477533  -0.611785
N    -2.797435  -3.371202  2.680006
C    -4.249677  -3.212347  2.821559
H    -2.433516  -4.313222  2.830290
H    -4.589745  -3.924609  3.579590
H    -4.785388  -3.408616  1.870825
H    -4.498436  -2.198351  3.150564
Ca    1.416061  -2.321904  2.587040
