36
Energy: -39737.0819239 eV PBE+vdW (tier 2 basis)
C    -1.041492  -0.187738  -0.097558
C    -1.208856  -0.586847  1.335845
O    -0.683232  -1.646584  1.768322
H    -1.466468  -0.978141  -0.731720
H    0.029149  -0.131369  -0.333523
H    -1.516515  0.765619  -0.350821
N    -1.941277  0.229899  2.123045
C    -2.367116  0.029691  3.526598
C    -1.141410  0.067123  4.454800
O    -0.347888  -0.910851  4.524190
H    -2.322428  1.051784  1.663991
H    -2.982911  0.908558  3.749578
C    -3.271823  -1.211904  3.675488
C    -3.894248  -1.478441  5.063324
C    -3.138525  -2.442029  6.003122
N    -2.784909  -3.693415  5.309184
C    -1.532072  -4.019137  4.911298
N    -0.428599  -3.626414  5.705906
N    -1.156304  -4.593470  3.792977
H    -2.742537  -2.101457  3.311643
H    -4.088507  -1.052555  2.958410
H    -4.896933  -1.898205  4.897274
H    -4.071897  -0.540956  5.612379
H    -3.768589  -2.667841  6.873099
H    -2.221337  -1.976952  6.382519
H    -3.519637  -4.057539  4.705162
H    0.152584  -4.441184  5.913830
H    -0.654050  -3.140773  6.571646
H    -1.923047  -4.935565  3.209309
N    -0.927086  1.155689  5.191830
C    -1.697058  2.404262  5.248135
H    -0.082351  1.112243  5.761128
H    -1.216525  3.059965  5.979479
H    -2.726858  2.227981  5.581054
H    -1.696330  2.920431  4.280309
Ca    0.293126  -2.743527  3.402423
