36
Energy: -39735.0893192 eV PBE+vdW (tier 2 basis)
C    0.647006  0.695937  0.423720
C    -0.187271  0.941272  1.634835
O    0.144672  1.844748  2.474076
H    0.619402  1.557848  -0.258532
H    0.372969  -0.212665  -0.119265
H    1.689770  0.607424  0.762757
N    -1.295148  0.204195  1.872858
C    -2.322544  0.003244  0.844189
C    -3.191485  1.303331  0.827573
O    -2.672694  2.397118  1.278313
H    -1.662909  0.314305  2.819588
H    -1.807932  -0.005147  -0.129430
C    -3.090371  -1.311448  0.988370
C    -3.858308  -1.513661  2.309244
C    -5.117350  -2.416494  2.163222
N    -6.388007  -1.698806  2.120318
C    -6.782873  -0.787467  1.163890
N    -6.181674  -0.954722  -0.120000
N    -7.592744  0.200328  1.290592
H    -2.368005  -2.126465  0.843658
H    -3.776744  -1.379789  0.134312
H    -4.197905  -0.550172  2.723821
H    -3.185088  -1.954577  3.057608
H    -5.184579  -3.098616  3.017762
H    -5.013088  -3.067839  1.281544
H    -6.834537  -1.561947  3.020707
H    -6.802766  -0.515871  -0.802625
H    -6.058483  -1.934604  -0.379652
H    -7.951750  0.308014  2.242397
N    -4.396586  1.256820  0.326539
C    -5.304382  2.397594  0.184732
H    -4.819090  0.333741  0.049724
H    -6.310905  2.055251  0.463947
H    -5.311286  2.734084  -0.860619
H    -4.984992  3.220370  0.828516
Ca    -1.251468  3.487018  2.404018
