36
Energy: -39736.4645199 eV PBE+vdW (tier 2 basis)
C    0.331943  -0.077968  0.686655
C    -0.179263  -0.354475  2.073579
O    0.113328  -1.549242  2.553309
H    0.128712  0.953959  0.384568
H    -0.118032  -0.781895  -0.027933
H    1.416786  -0.243532  0.649226
N    -0.865156  0.572620  2.677063
C    -1.451087  0.359782  4.016064
C    -0.441189  -0.077921  5.087190
O    -0.222750  -1.296738  5.392277
H    -2.304424  1.423868  -0.815108
H    -1.771555  1.361038  4.344646
C    -2.713527  -0.538710  3.956393
C    -4.040693  0.225342  3.735918
C    -4.014030  1.425124  2.773773
N    -3.383041  1.164075  1.479963
C    -3.984280  1.031437  0.301068
N    -5.313620  0.874853  0.193067
N    -3.237032  1.031241  -0.819946
H    -2.816211  -1.110800  4.889169
H    -2.571147  -1.271573  3.148873
H    -4.398831  0.617408  4.699383
H    -4.798069  -0.501125  3.407478
H    -3.457742  2.261564  3.219846
H    -5.032205  1.805991  2.622044
H    -2.350543  1.077523  1.548540
H    -5.893187  0.714986  1.005914
H    -5.788157  1.020631  -0.689442
H    -3.640010  0.801206  -1.719502
N    0.208680  0.895922  5.710270
C    1.223020  0.708104  6.744969
H    0.003825  1.848318  5.419839
H    1.167236  1.542120  7.451254
H    2.228647  0.683234  6.304179
H    1.031911  -0.228608  7.275471
Ca    0.267978  -2.890284  4.065383
