36
Energy: -39735.9516217 eV PBE+vdW (tier 2 basis)
C    0.229718  1.021961  1.115120
C    -0.179239  -0.099686  2.014358
O    0.662286  -0.988206  2.369634
H    -0.115587  1.986401  1.504931
H    -0.219916  0.891291  0.117685
H    1.318133  1.030126  1.012357
N    -1.458797  -0.196096  2.439023
C    -2.618651  -0.054353  1.524126
C    -2.333695  -0.866533  0.228105
O    -1.508576  -1.898523  0.379937
H    -1.581519  -0.911416  3.154082
H    -3.420247  -0.597831  2.049392
C    -3.105674  1.386831  1.303448
C    -4.624034  1.435539  1.086843
C    -5.164801  2.781556  0.607329
N    -4.544798  3.354125  -0.611918
C    -4.597961  2.848561  -1.860914
N    -4.691593  3.701301  -2.896553
N    -4.537911  1.532531  -2.077246
H    -2.582615  1.830494  0.445275
H    -2.839207  1.981458  2.188480
H    -5.139473  1.221065  2.035681
H    -4.936929  0.641013  0.397568
H    -5.006419  3.543972  1.380206
H    -6.250633  2.699861  0.451446
H    -4.381029  4.354814  -0.569510
H    -4.475203  3.407511  -3.841673
H    -5.052478  4.640406  -2.776299
H    -4.758481  1.188843  -3.005138
N    -2.912454  -0.512365  -0.861859
C    -2.731616  -1.321331  -2.062059
H    -4.015986  0.875818  -1.448967
H    -3.717158  -1.616733  -2.449299
H    -2.139110  -2.230025  -1.900167
H    -2.243384  -0.716585  -2.840283
Ca    0.133126  -2.785314  1.233670
