36
Energy: -39736.5961927 eV PBE+vdW (tier 2 basis)
C    -0.236679  -0.529859  -0.386987
C    -0.465287  0.081344  0.953860
O    0.530609  0.419920  1.682962
H    -1.141126  -0.585254  -0.999348
H    0.175312  -1.542225  -0.266954
H    0.524146  0.059763  -0.914121
N    -1.686285  0.298192  1.428876
C    -3.006193  -0.149509  0.999762
C    -3.972406  0.589840  1.958652
O    -3.552237  0.983385  3.070407
H    -1.762413  0.793413  2.324506
H    -3.199408  0.188655  -0.027569
C    -3.201350  -1.705792  1.046085
C    -2.348489  -2.550201  2.010431
C    -2.670829  -2.536439  3.514397
N    -2.337615  -1.290768  4.215114
C    -1.105206  -0.860554  4.482570
N    -0.953600  0.529512  4.822834
N    0.046633  -1.489532  4.402747
H    -2.997937  -2.082283  0.034883
H    -4.266667  -1.910637  1.224639
H    -1.278038  -2.344199  1.861333
H    -2.479181  -3.594661  1.690845
H    -2.148675  -3.368630  4.006879
H    -3.740151  -2.710849  3.687949
H    -3.069907  -0.578177  4.245270
H    -0.805265  0.639001  5.831214
H    -1.772846  1.089890  4.560738
H    -0.019845  -2.496136  4.247360
N    -5.238085  0.762389  1.569869
C    -5.840608  0.454564  0.270124
H    -5.821132  1.237839  2.256246
H    -5.336085  0.991752  -0.543423
H    -6.881970  0.786477  0.295483
H    -5.836481  -0.621927  0.060130
Ca    1.291723  0.283319  3.675244
