36
Energy: -39736.0446858 eV PBE+vdW (tier 2 basis)
C    -0.867236  2.253948  1.501510
C    -0.533690  0.926219  1.764793
O    0.569515  0.643838  2.407097
H    -1.830986  2.577289  1.113084
H    -0.056356  1.576598  -0.777481
H    -0.058008  2.985940  1.478149
N    -1.396947  -0.152982  1.559024
C    -2.825582  -0.006960  1.767197
C    -3.123381  0.217100  3.288024
O    -2.242859  0.713836  4.047984
H    -0.999522  -0.993200  1.980306
H    -3.140008  0.934133  1.287279
C    -3.617670  -1.167059  1.129962
C    -3.232319  -1.540839  -0.312372
C    -3.371585  -0.448246  -1.386805
N    -2.239424  0.484924  -1.469661
C    -1.021507  0.210335  -1.959704
N    -0.830875  -0.831351  -2.780508
N    0.007866  0.992190  -1.609980
H    -4.690491  -0.916383  1.142530
H    -3.501247  -2.070775  1.748066
H    -3.888600  -2.371260  -0.609183
H    -2.210204  -1.943438  -0.338187
H    -4.265864  0.167731  -1.224059
H    -3.526855  -0.913434  -2.370091
H    -2.322369  1.377974  -0.997918
H    0.101339  -1.095927  -3.075242
H    -1.605359  -1.262973  -3.269422
H    0.881954  0.979328  -2.121546
N    -4.321310  -0.099502  3.759704
C    -4.733068  0.109408  5.150509
H    -4.992507  -0.521405  3.126624
H    -5.749696  -0.272933  5.271386
H    -4.717846  1.177375  5.398357
H    -4.061760  -0.427320  5.830729
Ca    -0.281377  1.748777  4.041761
