36
Energy: -39735.9975503 eV PBE+vdW (tier 2 basis)
C    -0.441970  -0.028184  3.118526
C    -1.923298  0.049400  3.007884
O    -2.632712  0.664657  3.846027
H    -0.138584  -0.278856  4.141373
H    -0.056989  0.984168  2.911991
H    0.012641  -0.708116  2.391827
N    -2.576784  -0.550402  1.953929
C    -2.478388  -1.975375  1.565473
C    -1.885606  -2.762280  2.738581
O    -2.419215  -2.550403  3.873031
H    -3.492864  -0.130424  1.770577
H    -3.515566  -2.307115  1.705842
C    -2.195713  -2.245658  0.084370
C    -3.202713  -3.243382  -0.548052
C    -4.654729  -3.252756  0.000865
N    -5.305718  -1.939351  0.125266
C    -5.559546  -1.256008  1.268949
N    -5.761403  0.095329  1.145755
N    -5.492891  -1.747944  2.507646
H    -1.166070  -2.576820  -0.117495
H    -2.276958  -1.276029  -0.423617
H    -2.847449  -4.278933  -0.439182
H    -3.225310  -3.058570  -1.630323
H    -4.701195  -3.750250  0.978386
H    -5.268909  -3.874495  -0.663531
H    -5.574441  -1.493275  -0.747987
H    -6.403745  0.516974  1.810157
H    -5.783513  0.517628  0.222052
H    -5.638412  -2.761517  2.495751
N    -0.941124  -3.663087  2.533232
C    -0.385192  -4.554024  3.553757
H    -0.567735  -3.737473  1.589788
H    0.684773  -4.349107  3.679100
H    -0.515619  -5.596930  3.242380
H    -0.905533  -4.381280  4.498384
Ca    -4.075842  -1.050832  4.286209
