36
Energy: -39736.8625731 eV PBE+vdW (tier 2 basis)
C    0.697818  0.802496  0.014567
C    0.485359  0.537962  1.468593
O    1.453279  0.508526  2.276891
H    -0.231644  0.837281  -0.563123
H    1.349193  0.021017  -0.400306
H    1.232971  1.754437  -0.101017
N    -0.775325  0.331797  1.911566
C    -1.055180  0.106396  3.328889
C    -0.585924  -1.300574  3.783166
O    0.496099  -1.359771  4.443015
H    -1.537133  0.359030  1.239701
H    -0.351686  0.752481  3.860707
C    -2.452499  0.518687  3.813041
C    -2.801968  2.027834  3.776332
C    -1.704963  3.069697  4.088178
N    -0.802711  2.684785  5.186175
C    0.544923  2.573287  5.046645
N    1.149036  3.344644  4.094401
N    1.303697  1.689877  5.691953
H    -2.517544  0.156579  4.850506
H    -3.242758  -0.021163  3.275182
H    -3.643215  2.167785  4.469085
H    -3.198469  2.299752  2.787797
H    -2.188596  4.032663  4.302639
H    -1.084521  3.212405  3.194749
H    -1.211891  2.160624  5.953288
H    2.145463  3.481958  4.228176
H    0.670276  4.178827  3.772182
H    0.787917  1.251431  6.460651
N    -1.250146  -2.413584  3.500591
C    -2.493825  -2.605455  2.753400
H    -0.817869  -3.255504  3.882843
H    -3.367264  -2.554224  3.415680
H    -2.464467  -3.597693  2.292256
H    -2.591470  -1.867845  1.951961
Ca    2.207931  0.051257  4.315539
