36
Energy: -39736.4472647 eV PBE+vdW (tier 2 basis)
C    2.227870  0.147748  0.669161
C    1.282323  -0.004833  1.816913
O    1.730127  -0.359540  2.956989
H    1.748251  0.500978  -0.249343
H    2.696556  -0.827740  0.474768
H    3.035735  0.837859  0.944457
N    -0.014714  0.233586  1.606362
C    -1.188914  -0.006194  2.469415
C    -1.301444  0.881152  3.712045
O    -0.319094  1.031893  4.534829
H    -0.242890  0.535249  0.663069
H    -2.042408  0.287535  1.844045
C    -1.398258  -1.490902  2.846916
C    -1.898322  -2.348059  1.678972
C    -3.224281  -1.880915  1.057188
N    -4.334647  -1.760945  2.001838
C    -5.028119  -0.591841  2.202347
N    -6.354524  -0.744364  2.467051
N    -4.402538  0.567959  2.178303
H    -2.149868  -1.517271  3.649526
H    -0.474596  -1.920694  3.260758
H    -2.007327  -3.380517  2.041550
H    -1.146229  -2.394638  0.875854
H    -3.503240  -2.593622  0.267269
H    -3.120903  -0.904532  0.566086
H    -4.849717  -2.613977  2.193008
H    -6.904134  0.055667  2.753322
H    -6.872316  -1.543506  2.120622
H    -5.072492  1.335896  2.101955
N    -2.494194  1.375110  3.907193
C    -2.898153  2.141967  5.076816
H    -3.271064  1.069401  3.182216
H    -3.273603  3.121881  4.756375
H    -2.056540  2.283846  5.759538
H    -3.709051  1.615200  5.595995
Ca    1.565401  0.264276  4.966566
