36
Energy: -39736.7139689 eV PBE+vdW (tier 2 basis)
C    1.710315  0.352092  1.257306
C    1.029294  0.338363  2.594515
O    1.776752  0.699773  3.615975
H    1.029244  0.084050  0.445386
H    2.556405  -0.348325  1.259111
H    2.125723  1.351197  1.069384
N    -0.226329  -0.010015  2.677997
C    -0.911334  0.077115  3.975653
C    -0.522563  -1.100269  4.880628
O    0.503264  -1.017058  5.635486
H    -1.296845  -0.195407  1.232060
H    -0.576898  0.975080  4.529633
C    -2.417495  0.203794  3.709344
C    -2.757066  1.502838  2.945259
C    -3.758748  1.312684  1.783845
N    -3.211937  1.524967  0.434061
C    -2.509633  0.633653  -0.284777
N    -2.538482  0.721466  -1.626890
N    -1.809947  -0.335866  0.317423
H    -2.975538  0.161800  4.654486
H    -2.743329  -0.660469  3.106318
H    -1.839294  1.945529  2.534423
H    -3.160968  2.240981  3.648637
H    -4.587689  2.022751  1.871959
H    -4.202207  0.307227  1.814113
H    -3.525935  2.352999  -0.060556
H    -1.842896  0.258775  -2.198965
H    -3.275921  1.221770  -2.108967
H    -1.469749  -1.094131  -0.264239
N    -1.249802  -2.205401  4.854639
C    -0.978056  -3.413926  5.631272
H    -2.054923  -2.214578  4.235101
H    -1.929048  -3.876857  5.912308
H    -0.421606  -3.148015  6.533714
H    -0.391569  -4.129280  5.039927
Ca    2.265303  0.203876  5.532576
