36
Energy: -39736.4484916 eV PBE+vdW (tier 2 basis)
C    1.980751  0.751707  1.457764
C    1.052735  0.258992  2.532658
O    1.638814  -0.433162  3.490772
H    1.472986  1.379823  0.721577
H    2.448762  -0.104011  0.951710
H    2.795103  1.332906  1.910079
N    -0.218442  0.534624  2.452102
C    -1.189371  0.049385  3.446802
C    -0.971779  0.657112  4.845275
O    -0.133406  0.190168  5.681170
H    -0.826612  1.035185  0.629377
H    -2.157263  0.471940  3.127408
C    -1.385548  -1.487932  3.539564
C    -1.447024  -2.272179  2.216874
C    -2.652324  -2.018098  1.297052
N    -2.628886  -0.688518  0.666927
C    -1.879785  -0.339991  -0.403102
N    -1.865511  -1.112394  -1.496301
N    -1.183172  0.795526  -0.318361
H    -2.300906  -1.672128  4.124010
H    -0.566267  -1.925961  4.128188
H    -1.471253  -3.340756  2.477158
H    -0.519506  -2.121163  1.644492
H    -3.601522  -2.103102  1.842705
H    -2.678276  -2.782903  0.512046
H    -2.784965  0.089861  1.297891
H    -1.201179  -0.951710  -2.243991
H    -2.618583  -1.766963  -1.674933
H    -0.811840  1.255421  -1.142355
N    -1.705948  1.715448  5.161270
C    -1.625957  2.442240  6.427821
H    -2.346534  2.068182  4.456546
H    -2.588948  2.925136  6.617441
H    -0.842506  3.210356  6.385894
H    -1.404825  1.742037  7.238522
Ca    1.765689  -0.777502  5.485913
