36
Energy: -39736.3341991 eV PBE+vdW (tier 2 basis)
C    0.028637  0.257698  0.091009
C    -0.176274  -0.698089  1.225729
O    0.848045  -1.241684  1.790697
H    0.735626  1.048713  0.376070
H    0.479247  -0.287887  -0.750603
H    -0.904694  0.714786  -0.252398
N    -1.404300  -0.949994  1.619682
C    -1.918802  -1.940327  2.567614
C    -3.461753  -1.834583  2.332585
O    -3.885394  -0.859893  1.699483
H    -2.227126  -0.474662  1.183838
H    -1.557959  -2.933784  2.258267
C    -1.542322  -1.728255  4.050516
C    -2.079243  -0.486339  4.775749
C    -1.486243  0.871388  4.359250
N    -0.027064  0.862007  4.191252
C    0.916064  0.591277  5.121010
N    0.603493  0.771636  6.417542
N    2.107217  0.120701  4.710830
H    -0.446812  -1.775543  4.142871
H    -1.907811  -2.612906  4.591070
H    -1.904088  -0.643917  5.849214
H    -3.170899  -0.413439  4.663326
H    -1.788360  1.646603  5.079517
H    -1.892966  1.198359  3.395874
H    0.328110  0.983827  3.253310
H    -0.179946  1.352565  6.693894
H    1.248643  0.499295  7.148820
H    2.814446  0.267181  5.436902
N    -4.222430  -2.799472  2.864494
C    -5.680192  -2.835801  2.738966
H    -3.769037  -3.591274  3.308809
H    -5.987439  -3.671042  2.097765
H    -6.011967  -1.896579  2.289061
H    -6.138259  -2.951755  3.727866
Ca    2.561894  -1.255915  2.990849
