36
Energy: -39735.6832005 eV PBE+vdW (tier 2 basis)
C    -1.864111  1.786888  1.721374
C    -1.439848  0.591078  2.508180
O    -0.319876  0.028488  2.240614
H    -1.858828  1.534891  0.652356
H    -1.128384  2.590972  1.862214
H    -2.853395  2.155924  2.008162
N    -2.240501  0.152508  3.472116
C    -2.122755  -1.080650  4.277956
C    -0.832834  -1.130840  5.100129
O    0.260356  -1.566088  4.593795
H    -3.214656  0.536665  3.513578
H    -2.941876  -0.998632  4.995293
C    -2.383533  -2.366776  3.459961
C    -3.676815  -2.315221  2.625402
C    -5.016021  -2.505865  3.374288
N    -5.163862  -1.801858  4.648407
C    -5.242177  -0.442059  4.884728
N    -5.095382  0.391381  3.739572
N    -5.305349  0.146294  6.025044
H    -2.405462  -3.212822  4.163448
H    -1.541551  -2.559231  2.776035
H    -3.628237  -3.117862  1.876152
H    -3.694950  -1.383714  2.042592
H    -5.135398  -3.568987  3.616919
H    -5.838675  -2.268885  2.678376
H    -5.445642  -2.373431  5.435757
H    -5.426950  1.321902  4.001230
H    -5.619339  0.064820  2.926361
H    -5.380341  -0.507020  6.809622
N    -0.844668  -0.752695  6.366710
C    -1.925016  -0.197795  7.189285
H    0.051369  -0.877654  6.842047
H    -2.268116  -0.953629  7.907237
H    -2.770153  0.145436  6.584499
H    -1.527590  0.658544  7.745819
Ca    1.239073  -1.266225  2.743157
