36
Energy: -39737.3664144 eV PBE+vdW (tier 2 basis)
C    -0.260421  -0.409564  0.699539
C    -1.264191  -0.262599  1.795117
O    -1.638451  0.877507  2.189548
H    -0.614192  0.138793  -0.183772
H    -0.063804  -1.451023  0.424827
H    0.681090  0.064146  1.009699
N    -1.775082  -1.377712  2.357192
C    -2.809852  -1.334139  3.392071
C    -2.187122  -1.058988  4.778426
O    -2.144879  0.156104  5.140984
H    -1.456884  -2.279082  2.010479
H    -3.352153  -0.402257  3.209259
C    -3.868170  -2.438141  3.233942
C    -4.871239  -2.125122  2.105144
C    -5.901502  -1.017583  2.389847
N    -5.297410  0.316961  2.503343
C    -5.628094  1.297220  3.393137
N    -6.830725  1.217410  4.001093
N    -4.725090  2.242291  3.654607
H    -4.405676  -2.544896  4.188424
H    -3.397874  -3.413076  3.042654
H    -5.446058  -3.037722  1.895924
H    -4.335340  -1.902981  1.167608
H    -6.414613  -1.229640  3.337941
H    -6.661765  -1.030324  1.593884
H    -4.685855  0.620108  1.751835
H    -7.606229  0.724528  3.573175
H    -7.059896  1.847311  4.760546
H    -5.179990  3.057081  4.075915
N    -1.694401  -2.009433  5.561027
C    -1.613498  -3.452792  5.329179
H    -1.324488  -1.665941  6.447692
H    -0.816209  -3.853328  5.962170
H    -1.354636  -3.672472  4.288722
H    -2.552911  -3.954359  5.592458
Ca    -2.443163  2.001225  3.915383
