36
Energy: -39737.316195 eV PBE+vdW (tier 2 basis)
C    -0.811935  0.007984  -0.113646
C    -1.286099  0.346522  1.261546
O    -0.998837  1.454130  1.795515
H    -1.152362  -0.971649  -0.464476
H    0.285861  0.037154  -0.133530
H    -1.162580  0.782614  -0.809101
N    -2.039540  -0.558072  1.921472
C    -2.625232  -0.301010  3.242166
C    -1.543013  -0.517485  4.328164
O    -0.789255  0.452684  4.625181
H    -2.235312  -1.443861  1.461845
H    -2.813931  0.777558  3.262145
C    -3.971254  -1.016250  3.437739
C    -4.719155  -0.610104  4.725647
C    -5.510257  0.717248  4.683016
N    -4.760896  1.892336  4.219068
C    -3.665411  2.433616  4.806616
N    -3.373819  2.060792  6.081366
N    -2.803388  3.226453  4.167047
H    -3.833837  -2.110203  3.431421
H    -4.592810  -0.800988  2.554662
H    -4.020502  -0.611196  5.575643
H    -5.456444  -1.391201  4.957470
H    -5.949195  0.913998  5.673442
H    -6.363842  0.621793  4.000965
H    -4.932346  2.184675  3.263823
H    -2.782308  2.699394  6.601482
H    -4.087270  1.605376  6.639607
H    -3.227891  3.603918  3.314160
N    -1.413199  -1.716418  4.878725
C    -0.395740  -2.089227  5.862579
H    -2.066072  -2.440251  4.590099
H    -0.879826  -2.515429  6.748764
H    0.169854  -1.198397  6.143904
H    0.283781  -2.835198  5.432377
Ca    -0.662864  2.478293  3.718763
