36
Energy: -39734.4649245 eV PBE+vdW (tier 2 basis)
C    -3.739069  0.593572  -2.886527
C    -2.431624  0.899027  -2.241121
O    -1.441091  1.301483  -2.936154
H    -4.251172  1.522738  -3.180685
H    -4.404509  -0.001730  -2.254860
H    -3.533652  0.047441  -3.817391
N    -2.272017  0.768682  -0.904667
C    -3.231856  1.286919  0.069652
C    -3.276240  2.832059  -0.106765
O    -2.429432  3.418827  -0.867340
H    -1.299143  0.811633  -0.594030
H    -4.228978  0.883835  -0.160795
C    -2.799932  0.835533  1.488448
C    -3.798054  1.042734  2.630688
C    -5.143044  0.307263  2.459100
N    -5.877404  0.266154  3.703555
C    -5.499243  -0.657251  4.703714
N    -6.301334  -0.581304  5.815577
N    -4.531628  -1.507988  4.655991
H    -1.845842  1.326439  1.739204
H    -2.587940  -0.241061  1.398875
H    -3.967761  2.108027  2.853722
H    -3.318030  0.649352  3.538311
H    -4.954396  -0.706606  2.049141
H    -5.790800  0.811394  1.722675
H    -6.881893  0.394284  3.622208
H    -6.028806  -1.197973  6.573490
H    -6.668696  0.320505  6.096053
H    -4.126331  -1.604141  3.722664
N    -4.203556  3.499296  0.549841
C    -4.389164  4.951611  0.565327
H    -4.828970  2.953994  1.141119
H    -5.389051  5.197056  0.187912
H    -3.631097  5.423566  -0.062032
H    -4.294641  5.319267  1.594122
Ca    -0.955322  3.345896  -2.439890
