36
Energy: -39736.2305019 eV PBE+vdW (tier 2 basis)
C    -0.257085  1.409782  0.336750
C    -0.344310  0.907278  1.748975
O    0.777102  0.418034  2.247667
H    0.500617  2.202415  0.270600
H    -1.213280  1.808427  -0.012548
H    0.076321  0.600189  -0.327029
N    -1.486382  0.981320  2.368348
C    -1.685216  0.450512  3.731125
C    -0.803667  1.139506  4.786152
O    0.370980  0.745717  5.081043
H    -3.195054  0.651028  1.455071
H    -2.711016  0.756005  3.992298
C    -1.633641  -1.099003  3.809723
C    -2.793304  -1.774378  4.563589
C    -4.208198  -1.601089  3.974781
N    -4.324865  -2.005313  2.564843
C    -4.009166  -1.222034  1.522552
N    -3.603631  -1.760911  0.364193
N    -4.083586  0.124145  1.595036
H    -0.698543  -1.420913  4.290791
H    -1.581641  -1.481041  2.780950
H    -2.837841  -1.418098  5.604912
H    -2.572648  -2.849991  4.630376
H    -4.564710  -0.569379  4.080240
H    -4.918117  -2.212768  4.543940
H    -4.490558  -2.991530  2.381696
H    -3.694472  -1.219707  -0.488931
H    -3.389978  -2.747639  0.275825
H    -4.643393  0.495940  2.354762
N    -1.321152  2.202868  5.388036
C    -0.631176  3.027605  6.378220
H    -2.249910  2.494913  5.098056
H    -1.374549  3.475538  7.044304
H    -0.063092  3.829875  5.888557
H    0.049944  2.402891  6.962863
Ca    2.000991  0.133043  3.831276
