36
Energy: -39735.7866057 eV PBE+vdW (tier 2 basis)
C    0.455232  0.564602  0.421893
C    -0.296208  0.494568  1.709031
O    -0.143772  1.402802  2.590999
H    0.157070  1.483219  -0.104229
H    0.276700  -0.294103  -0.233200
H    1.530488  0.650266  0.625671
N    -1.137271  -0.523808  1.912329
C    -2.095201  -0.675663  3.028563
C    -1.349553  -1.134390  4.302489
O    -0.704944  -0.240112  4.967660
H    -1.204765  -1.217010  1.169911
H    -2.479430  0.331051  3.259872
C    -3.254351  -1.568845  2.575827
C    -4.459664  -1.563474  3.537551
C    -5.314173  -2.861485  3.488123
N    -5.127455  -3.764436  4.620584
C    -3.944506  -4.379593  4.972778
N    -3.042975  -4.612559  3.889309
N    -3.543152  -4.738967  6.136893
H    -2.883518  -2.594193  2.428004
H    -3.579342  -1.214977  1.586433
H    -5.093172  -0.697564  3.301640
H    -4.130671  -1.424041  4.578274
H    -5.142661  -3.395567  2.540468
H    -6.378368  -2.601684  3.481173
H    -5.750227  -3.602144  5.404879
H    -2.420454  -5.370270  4.176722
H    -3.519795  -4.894935  3.031533
H    -4.197010  -4.492674  6.884034
N    -1.374757  -2.388917  4.671254
C    -0.709473  -2.922767  5.862364
H    -1.952482  -3.089418  4.143401
H    0.251150  -3.375142  5.581167
H    -1.365411  -3.693719  6.288901
H    -0.536362  -2.122694  6.586613
Ca    0.116076  1.670807  4.674072
