36
Energy: -39735.8666276 eV PBE+vdW (tier 2 basis)
C    -4.526554  -2.367489  1.062027
C    -3.157364  -2.252992  1.642956
O    -2.191445  -2.930615  1.139208
H    -4.490877  -2.080618  0.001925
H    -5.257477  -1.740652  1.581681
H    -4.855422  -3.414581  1.100088
N    -2.959421  -1.441537  2.674035
C    -1.646706  -1.188094  3.283411
C    -1.209056  -2.446257  4.062721
O    -0.420787  -3.281913  3.491029
H    -3.766138  -0.915355  3.092670
H    -0.928829  -1.088667  2.455610
C    -1.601412  0.119628  4.116800
C    -2.554635  1.253199  3.688251
C    -3.901497  1.297495  4.429316
N    -4.743101  0.090308  4.240822
C    -4.938521  -0.930911  5.205055
N    -3.977211  -0.988782  6.242696
N    -5.799168  -1.869342  5.136423
H    -0.564664  0.474266  4.054989
H    -1.765195  -0.104652  5.176860
H    -2.724723  1.238618  2.600810
H    -2.054931  2.211086  3.888175
H    -4.477119  2.156520  4.063247
H    -3.734576  1.494601  5.498108
H    -5.623190  0.300525  3.775459
H    -4.340969  -1.626828  6.953701
H    -3.774565  -0.088004  6.677051
H    -6.430597  -1.799904  4.334061
N    -1.700607  -2.646088  5.263489
C    -1.422088  -3.812366  6.098725
H    -2.408143  -1.967727  5.624472
H    -1.306054  -3.483303  7.136924
H    -0.500821  -4.297237  5.767042
H    -2.256281  -4.524963  6.045421
Ca    -0.413709  -4.000214  1.495550
