36
Energy: -39734.4206567 eV PBE+vdW (tier 2 basis)
C    -1.274162  -2.036224  0.307360
C    -0.806930  -0.849991  1.073719
O    0.494694  -0.585678  1.106431
H    -2.357513  -2.005441  0.125644
H    -1.027771  -2.952776  0.864784
H    -0.744459  -2.086726  -0.652310
N    -1.598310  -0.055183  1.721656
C    -3.057254  -0.081543  1.847560
C    -3.345054  1.394671  2.216625
O    -2.392053  2.094035  2.614687
H    -1.287666  0.842690  2.192131
H    -3.512395  -0.363115  0.876534
C    -3.473004  -1.094212  2.943205
C    -4.977776  -1.285627  3.178099
C    -5.796221  -1.789032  1.981823
N    -6.194930  -0.741562  1.022391
C    -5.776854  -0.797326  -0.308349
N    -6.656360  -0.221215  -1.194322
N    -4.597285  -1.266293  -0.584655
H    -2.995961  -0.799831  3.890334
H    -3.044005  -2.068619  2.661309
H    -5.431698  -0.370128  3.584617
H    -5.070562  -2.033589  3.979276
H    -6.711853  -2.262741  2.360655
H    -5.239259  -2.554162  1.424661
H    -7.157755  -0.437633  1.133803
H    -6.405232  -0.232298  -2.175516
H    -7.654237  -0.282817  -1.021364
H    -4.446841  -1.299543  -1.594922
N    -4.604967  1.803831  2.070699
C    -5.064903  3.149252  2.395518
H    -5.271554  1.122248  1.695163
H    -5.508691  3.620740  1.510279
H    -4.209119  3.741469  2.730259
H    -5.814051  3.115485  3.196535
Ca    2.408855  -0.148693  1.174198
