36
Energy: -39736.5916007 eV PBE+vdW (tier 2 basis)
C    2.606623  -0.557758  1.508263
C    1.519499  -0.564366  2.537970
O    1.724153  -1.127370  3.661345
H    2.343959  -0.012869  0.595761
H    2.841714  -1.599059  1.246241
H    3.519070  -0.124761  1.937574
N    0.357366  0.017047  2.228008
C    -0.935783  0.043053  2.955679
C    -0.934386  0.957889  4.195702
O    -0.021594  0.725113  5.116076
H    0.333038  0.454909  1.311969
H    -1.609882  0.516954  2.234162
C    -1.483491  -1.375940  3.277299
C    -2.965580  -1.596740  2.921094
C    -4.006164  -0.739691  3.665987
N    -4.107254  0.640664  3.197382
C    -5.038342  1.132305  2.385467
N    -5.946745  0.355123  1.769683
N    -5.068268  2.459538  2.160200
H    -1.328330  -1.602223  4.343934
H    -0.897250  -2.117650  2.718712
H    -3.196058  -2.649699  3.139317
H    -3.104970  -1.475355  1.835148
H    -3.765037  -0.695121  4.738492
H    -4.992285  -1.220097  3.609647
H    -3.321429  1.278160  3.524287
H    -6.767351  0.757118  1.333586
H    -5.927635  -0.650652  1.864917
H    -5.652829  2.864505  1.440767
N    -1.878944  1.832707  4.264529
C    -1.984190  2.677816  5.448670
H    -4.471717  3.083604  2.687538
H    -1.471434  2.265237  6.327565
H    -3.043527  2.831573  5.691525
H    -1.554427  3.666894  5.232612
Ca    1.510759  -0.492165  5.683698
