36
Energy: -39736.5302931 eV PBE+vdW (tier 2 basis)
C    -0.015281  -0.616135  -0.110615
C    0.031017  -0.019838  1.258961
O    1.081693  0.613713  1.648339
H    0.146672  0.172184  -0.857981
H    -0.964960  -1.117545  -0.321348
H    0.801484  -1.342915  -0.218279
N    -1.012662  -0.158537  2.049394
C    -1.192079  0.305485  3.424273
C    -2.308230  -0.644789  3.955910
O    -3.096247  -1.116246  3.135652
H    -1.849928  -0.689533  1.749734
H    -0.246004  0.182218  3.972577
C    -1.669523  1.781180  3.421431
C    -1.791715  2.483130  4.780027
C    -0.472862  2.782526  5.509224
N    0.429152  3.602102  4.688226
C    1.575914  3.186207  4.141959
N    2.094879  3.911672  3.020252
N    2.283327  2.114648  4.414314
H    -2.651419  1.804056  2.928010
H    -0.992689  2.350989  2.765809
H    -2.429166  1.906876  5.466080
H    -2.328121  3.431060  4.622807
H    0.061200  1.862432  5.778320
H    -0.669515  3.314153  6.449240
H    0.102418  4.537114  4.455829
H    1.427074  4.546300  2.578453
H    2.933829  4.442187  3.273643
H    2.038434  1.644487  5.285670
N    -2.364218  -0.847866  5.284866
C    -3.383262  -1.690312  5.913698
H    -1.601563  -0.514502  5.863321
H    -3.701331  -1.237629  6.858777
H    -2.995348  -2.698921  6.105850
H    -4.238689  -1.763127  5.236628
Ca    2.834017  1.568347  2.265153
