36
Energy: -39736.828956 eV PBE+vdW (tier 2 basis)
C    -0.965745  -0.767003  3.843676
C    -0.284374  -0.531379  2.523651
O    0.896756  -0.009668  2.535077
H    -0.773465  0.094381  4.493662
H    -0.523744  -1.641314  4.342359
H    -2.046551  -0.927244  3.757809
N    -0.767338  -0.851453  1.322483
C    -1.736472  -1.898882  1.101409
C    -0.914549  -3.137338  0.652346
O    0.292318  -2.976526  0.304373
H    -7.933057  0.828041  -0.401774
H    -2.291589  -2.168167  2.018052
C    -2.726146  -1.493284  -0.020732
C    -3.493551  -0.191358  0.255179
C    -4.615449  -0.327340  1.294434
N    -5.336184  0.928162  1.541963
C    -6.483070  1.318178  0.967900
N    -7.150332  2.368307  1.467930
N    -6.982312  0.666745  -0.091126
H    -3.427272  -2.316185  -0.224508
H    -2.142548  -1.352990  -0.942078
H    -3.918745  0.168840  -0.694058
H    -2.782704  0.581328  0.584036
H    -4.217809  -0.648469  2.266820
H    -5.350349  -1.090707  1.000205
H    -4.912132  1.583610  2.190673
H    -7.887039  2.823589  0.941965
H    -6.957945  2.725857  2.395897
H    -6.413448  0.042811  -0.647321
N    -1.451045  -4.355675  0.623239
C    -2.793480  -4.779551  1.007706
H    -0.819308  -5.079502  0.281328
H    -2.729594  -5.762877  1.485647
H    -3.451892  -4.859350  0.132336
H    -3.228539  -4.080527  1.728485
Ca    1.397372  -1.042442  0.661661
