36
Energy: -39734.6132217 eV PBE+vdW (tier 2 basis)
C    -1.514158  -1.231981  0.035262
C    -0.584879  -0.782674  1.109201
O    0.676643  -0.929125  0.982472
H    -2.555384  -1.296321  0.363662
H    -1.177687  -2.223468  -0.299089
H    -1.445365  -0.571954  -0.842632
N    -1.056082  -0.212416  2.240300
C    -2.047696  0.861283  2.239821
C    -1.339803  2.129205  1.673886
O    -0.115926  2.082128  1.302261
H    -0.361154  -0.135367  2.985822
H    -2.854011  0.592205  1.540149
C    -2.647331  1.054359  3.646552
C    -3.392931  -0.188710  4.134086
C    -4.046823  -0.001128  5.521631
N    -4.781335  -1.178772  5.951698
C    -5.899076  -1.625755  5.229394
N    -6.841010  -0.628529  4.988932
N    -5.920002  -2.854460  4.851431
H    -3.340032  1.909835  3.621140
H    -1.843192  1.339727  4.346601
H    -2.711098  -1.051713  4.178762
H    -4.182460  -0.453052  3.412406
H    -4.724191  0.863774  5.495858
H    -3.282543  0.218210  6.281153
H    -4.192423  -1.981944  6.165906
H    -7.704278  -0.960148  4.570151
H    -7.014402  0.002174  5.768627
H    -6.828154  -3.134994  4.469773
N    -2.031588  3.247706  1.586224
C    -1.508127  4.520266  1.076694
H    -2.998860  3.230899  1.900663
H    -2.309441  5.262168  1.117978
H    -1.176649  4.407318  0.037803
H    -0.669450  4.861580  1.694663
Ca    1.680658  0.975886  0.852425
