36
Energy: -39735.91537 eV PBE+vdW (tier 2 basis)
C    -1.281994  1.178776  0.350998
C    -0.967541  0.383887  1.575991
O    0.041114  -0.394388  1.579474
H    -2.147561  1.838818  0.466971
H    -1.471904  0.481335  -0.477473
H    -0.405801  1.776618  0.067603
N    -1.766919  0.511974  2.640212
C    -1.787873  -0.244205  3.915016
C    -0.575812  0.027008  4.812321
O    0.601999  -0.339017  4.451924
H    -2.527894  1.175544  2.526129
H    -2.667023  0.151777  4.435932
C    -2.017849  -1.765992  3.712216
C    -3.489871  -2.133832  3.436705
C    -4.403318  -2.248758  4.671742
N    -4.472245  -1.032772  5.479635
C    -3.634670  -0.817232  6.565395
N    -3.622825  0.526663  7.006263
N    -2.760995  -1.603392  7.083595
H    -1.659739  -2.287532  4.610886
H    -1.398678  -2.115062  2.872200
H    -3.512729  -3.108710  2.928940
H    -3.924429  -1.417164  2.721402
H    -4.090902  -3.101362  5.294513
H    -5.418820  -2.487753  4.333307
H    -5.366788  -0.552981  5.487147
H    -3.448031  0.584490  8.009116
H    -4.429254  1.090244  6.744473
H    -2.855209  -2.568069  6.761179
N    -0.811764  0.574853  5.978863
C    0.165351  0.744246  7.048492
H    -1.802438  0.757286  6.241705
H    0.103142  1.767998  7.434915
H    1.172684  0.551649  6.674236
H    -0.076322  0.039168  7.855210
Ca    1.624186  -1.089848  2.789335
