36
Energy: -39736.4898664 eV PBE+vdW (tier 2 basis)
C    0.810657  0.790461  0.807623
C    0.254917  -0.393960  1.531154
O    0.826405  -1.539055  1.417504
H    0.294295  1.722176  1.058394
H    0.714331  0.615900  -0.273670
H    1.881631  0.893923  1.023339
N    -0.823196  -0.235522  2.271881
C    -1.614488  -1.226701  2.996674
C    -2.665524  -0.335059  3.742231
O    -2.491300  0.886123  3.757046
H    -1.212261  0.709153  2.464769
H    -2.138473  -1.863733  2.265866
C    -0.814498  -2.139926  3.949924
C    0.163149  -1.433852  4.895259
C    1.131694  -2.407471  5.569571
N    2.231871  -2.841974  4.651580
C    3.359643  -1.963523  4.431861
N    3.726113  -1.112079  5.393904
N    3.887310  -2.098975  3.243551
H    -0.290916  -2.894882  3.337931
H    -1.536402  -2.719797  4.543180
H    -0.397347  -0.902940  5.677139
H    0.734068  -0.653044  4.367961
H    0.611331  -3.326237  5.870976
H    1.529823  -1.975848  6.499789
H    2.605374  -3.740396  4.975282
H    3.356471  -1.174875  6.335886
H    4.490392  -0.459189  5.249949
H    4.755812  -1.582003  3.091242
N    -3.686930  -0.975818  4.331318
C    -4.761913  -0.275805  5.036795
H    -3.806868  -1.969210  4.162164
H    -5.037110  -0.838121  5.935288
H    -5.643912  -0.166361  4.392751
H    -4.404104  0.717748  5.319566
Ca    2.154588  -3.025060  2.066048
