36
Energy: -39736.9855804 eV PBE+vdW (tier 2 basis)
C    -0.787496  -0.305268  -0.421918
C    -0.510098  -0.438951  1.040121
O    0.656226  -0.660606  1.469052
H    -0.663351  0.743448  -0.735164
H    -1.796202  -0.632583  -0.696353
H    -0.042782  -0.892507  -0.970016
N    -1.516600  -0.287220  1.943689
C    -2.583087  0.697004  1.812330
C    -1.933149  2.107476  1.822644
O    -0.723236  2.238049  2.183675
H    -1.317740  -0.582332  2.907853
H    -3.078116  0.554233  0.840657
C    -3.640227  0.482185  2.925952
C    -3.427611  1.141824  4.302511
C    -2.077471  0.999224  5.012842
N    -1.580574  -0.392918  5.065856
C    -0.277479  -0.658881  5.452040
N    -0.098898  -1.694791  6.293595
N    0.715251  0.055905  4.942417
H    -3.744394  -0.607366  3.029094
H    -4.612526  0.824930  2.551067
H    -4.223755  0.756298  4.956954
H    -3.620644  2.223325  4.236038
H    -2.176454  1.404411  6.032272
H    -1.314374  1.606347  4.517834
H    -2.258955  -1.045076  5.456032
H    0.825162  -2.071947  6.470229
H    -0.860093  -2.092437  6.831820
H    1.580374  -0.151433  5.449281
N    -2.641323  3.165296  1.453311
C    -4.032453  3.224084  0.998741
H    -2.141074  4.052195  1.516589
H    -4.137577  4.077118  0.321526
H    -4.718339  3.361003  1.844707
H    -4.305260  2.317985  0.448427
Ca    1.044541  1.035453  2.870472
