36
Energy: -39735.2540448 eV PBE+vdW (tier 2 basis)
C    -0.082905  0.257843  -0.010532
C    -0.164581  -0.016330  1.455261
O    0.883589  -0.363723  2.090824
H    -1.026502  0.601384  -0.446403
H    0.227881  -0.667357  -0.517806
H    0.699616  1.003071  -0.203558
N    -1.352069  0.110335  2.058834
C    -1.794070  -0.287425  3.414827
C    -1.214928  0.586915  4.534388
O    0.056001  0.686954  4.679704
H    -2.108110  0.402846  1.445134
H    -2.876277  -0.118777  3.392749
C    -1.601587  -1.789687  3.743906
C    -2.247168  -2.080960  5.098382
C    -2.524737  -3.541018  5.494765
N    -3.292638  -3.565098  6.747007
C    -4.578388  -2.967066  6.697888
N    -5.499367  -3.760245  6.058582
N    -4.745235  -1.779616  7.185530
H    -0.536720  -2.069221  3.723735
H    -2.088449  -2.361227  2.940129
H    -3.225413  -1.578174  5.132440
H    -1.651424  -1.623049  5.905526
H    -1.598317  -4.112966  5.642673
H    -3.101806  -4.051931  4.712235
H    -2.774350  -3.108984  7.498097
H    -6.463573  -3.448866  6.033869
H    -5.373367  -4.764337  6.136961
H    -5.739702  -1.535921  7.252091
N    -2.005139  1.184985  5.405962
C    -3.465055  1.157485  5.568229
H    -1.494742  1.667273  6.148574
H    -3.967707  1.076193  4.599974
H    -3.765997  2.102411  6.031394
H    -3.766159  0.315729  6.218473
Ca    1.892695  0.025342  3.893186
