36
Energy: -39736.2293633 eV PBE+vdW (tier 2 basis)
C    1.603539  1.049371  1.001988
C    1.095988  1.358827  2.372607
O    1.596980  2.315328  3.049880
H    2.656357  1.344745  0.940301
H    1.048664  1.639971  0.255412
H    1.496269  -0.009581  0.745346
N    0.076880  0.642812  2.892221
C    -1.129777  0.332898  2.110811
C    -1.758107  1.663457  1.602304
O    -1.325901  2.778782  2.178771
H    -0.113069  0.863032  3.871373
H    -0.833217  -0.247570  1.227476
C    -2.066888  -0.507973  3.005942
C    -3.383228  -0.959424  2.366173
C    -3.188097  -1.920898  1.184150
N    -4.401561  -2.127370  0.396717
C    -4.744521  -1.392551  -0.673479
N    -5.757026  -1.811685  -1.453511
N    -4.080081  -0.274225  -0.973313
H    -2.307411  0.077578  3.907866
H    -1.491488  -1.382539  3.347015
H    -3.955487  -0.082831  2.035674
H    -3.988654  -1.454124  3.138530
H    -2.853736  -2.906242  1.534568
H    -2.416415  -1.557896  0.491698
H    -5.050399  -2.846664  0.697511
H    -6.176646  -1.200683  -2.142490
H    -6.108181  -2.759891  -1.401880
H    -4.228450  0.148270  -1.881888
N    -2.634769  1.593502  0.665306
C    -3.256155  2.837563  0.212244
H    -3.479359  0.256527  -0.296178
H    -4.204554  2.608952  -0.288068
H    -2.610840  3.349414  -0.518429
H    -3.458891  3.536876  1.034793
Ca    0.114387  3.920489  3.098330
