36
Energy: -39736.1251254 eV PBE+vdW (tier 2 basis)
C    -0.286896  -0.868112  0.683160
C    -0.649525  -0.944488  2.129537
O    -0.074927  -1.822766  2.868137
H    0.766143  -0.557622  0.613177
H    -0.897043  -0.168567  0.106927
H    -0.346788  -1.866565  0.232573
N    -1.536279  -0.140809  2.695194
C    -2.299384  0.996955  2.187058
C    -2.246089  1.985039  3.395083
O    -2.057939  1.484880  4.515745
H    -1.552571  -0.071695  3.736455
H    -1.824660  1.406276  1.288272
C    -3.787868  0.661574  1.930586
C    -4.142925  -0.481586  0.954461
C    -4.521511  -1.842923  1.577883
N    -3.434877  -2.837113  1.625380
C    -2.835646  -3.403371  2.680717
N    -2.929905  -2.801340  3.968503
N    -2.019788  -4.436782  2.673187
H    -4.247723  1.586792  1.557563
H    -4.269936  0.479746  2.904917
H    -3.359877  -0.627911  0.195947
H    -5.025428  -0.156876  0.387942
H    -5.324681  -2.300983  0.985296
H    -4.931539  -1.716590  2.588541
H    -3.205552  -3.260608  0.728522
H    -3.472318  -3.385142  4.610646
H    -3.308128  -1.853813  3.974946
H    -2.021230  -4.985761  1.811657
N    -2.451045  3.292477  3.194439
C    -2.701395  4.010512  1.948715
H    -2.461000  3.838829  4.054637
H    -2.197834  4.982204  1.990652
H    -3.775306  4.180852  1.790996
H    -2.294563  3.465308  1.090986
Ca    -0.455294  -3.523688  4.066194
