36
Energy: -39736.1993783 eV PBE+vdW (tier 2 basis)
C    -0.405776  2.397177  0.156713
C    -0.373919  1.248890  0.923950
O    0.571798  1.042549  1.802346
H    0.543740  2.905937  -0.022915
H    -1.215248  2.635230  -0.528995
H    0.696165  -1.052104  -1.726840
N    -1.438959  0.299925  0.969928
C    -2.820511  0.799944  1.029541
C    -3.077360  1.514747  2.389278
O    -2.152626  2.161140  2.961558
H    -1.236777  -0.323886  1.755876
H    -2.906427  1.595019  0.272188
C    -3.840880  -0.292718  0.659976
C    -3.552849  -0.942996  -0.708108
C    -2.758072  -2.258708  -0.597212
N    -2.109067  -2.658134  -1.845525
C    -0.906654  -2.215450  -2.242177
N    -0.337422  -2.731094  -3.342234
N    -0.276108  -1.265191  -1.542188
H    -4.840722  0.161881  0.611767
H    -3.883366  -1.061972  1.448311
H    -3.007271  -0.231035  -1.345222
H    -4.498284  -1.145609  -1.227421
H    -3.419182  -3.082449  -0.300696
H    -1.982493  -2.195592  0.177546
H    -2.624395  -3.254644  -2.483950
H    0.497422  -2.324193  -3.744953
H    -0.702067  -3.564699  -3.786636
H    -0.728724  -0.774755  -0.764352
N    -4.287475  1.458349  2.929869
C    -4.656055  2.140635  4.172602
H    -5.003727  0.919051  2.455784
H    -4.025073  1.794289  4.999323
H    -5.701028  1.911671  4.396066
H    -4.540153  3.225415  4.062691
Ca    -0.073332  2.870712  2.719480
