36
Energy: -39737.4848721 eV PBE+vdW (tier 2 basis)
C    0.104067  0.053761  0.294672
C    -0.092613  -0.085547  1.771514
O    0.878035  -0.347462  2.529146
H    -0.811096  0.303556  -0.251871
H    0.509405  -0.889191  -0.096993
H    0.859694  0.827831  0.106317
N    -1.346574  0.077224  2.251788
C    -1.789998  -0.094030  3.651383
C    -1.177633  1.021686  4.523923
O    -0.029498  0.891897  5.033265
H    -2.069313  0.272028  1.565742
H    -2.875799  0.055550  3.629153
C    -1.499681  -1.521478  4.158327
C    -1.642100  -1.779113  5.668532
C    -0.678456  -2.881230  6.124112
N    0.741673  -2.445943  6.031538
C    1.401978  -1.782877  7.115392
N    0.909055  -1.909527  8.356740
N    2.421347  -1.057298  6.736546
H    -0.486492  -1.798815  3.837889
H    -2.161783  -2.197864  3.600575
H    -2.666896  -2.086899  5.914582
H    -1.443910  -0.873445  6.259990
H    -0.775993  -3.762057  5.476147
H    -0.942953  -3.225429  7.133918
H    1.341008  -3.210018  5.714097
H    1.329078  -1.402143  9.128309
H    0.267225  -2.653757  8.603819
H    2.994861  -0.703638  7.505102
N    -1.878952  2.132096  4.731709
C    -3.205861  2.490426  4.220310
H    -1.398458  2.828307  5.301114
H    -3.212311  2.541796  3.124615
H    -3.456960  3.482549  4.605155
H    -3.973855  1.789773  4.570183
Ca    1.717760  -0.386455  4.603465
