36
Energy: -39737.4681379 eV PBE+vdW (tier 2 basis)
C    1.263364  -1.373424  1.776215
C    0.435020  -0.710466  2.826198
O    0.944831  0.094725  3.653624
H    2.069721  -1.941712  2.258989
H    1.743462  -0.599193  1.162331
H    0.689658  -2.042715  1.126940
N    -0.886658  -0.983136  2.878496
C    -1.769768  -0.289791  3.816689
C    -1.565546  -0.822266  5.257191
O    -0.909688  -0.091669  6.063003
H    -1.283571  -1.602641  2.177068
H    -1.385741  0.735761  3.872055
C    -3.221285  -0.176905  3.326316
C    -4.136061  0.646979  4.254184
C    -3.855135  2.155696  4.343506
N    -2.600495  2.449701  5.041590
C    -1.674140  3.389732  4.721463
N    -2.064019  4.415022  3.932012
N    -0.420921  3.224114  5.152020
H    -3.667956  -1.169307  3.180706
H    -3.188296  0.293049  2.331169
H    -5.165053  0.538812  3.884963
H    -4.151457  0.215061  5.269135
H    -4.702559  2.641469  4.851174
H    -3.789158  2.582309  3.332709
H    -2.396475  1.914419  5.878964
H    -1.380008  5.075320  3.583238
H    -3.033188  4.709004  3.894196
H    0.092551  4.106888  5.084089
N    -2.027265  -1.997377  5.665485
C    -2.783363  -3.019832  4.939775
H    -1.810896  -2.202587  6.641526
H    -2.590040  -3.985569  5.416742
H    -2.456560  -3.090141  3.898518
H    -3.862012  -2.822273  4.981110
Ca    0.757403  1.283319  5.514265
