36
Energy: -39737.4183405 eV PBE+vdW (tier 2 basis)
C    -0.685037  0.455941  -0.319516
C    -0.443643  0.340454  1.152979
O    0.719811  0.158309  1.599331
H    -0.108324  1.307830  -0.705211
H    -1.738565  0.588093  -0.586157
H    -0.295424  -0.442082  -0.816618
N    -1.512892  0.436001  1.970149
C    -1.547852  0.430086  3.448481
C    -0.513582  1.416737  4.044811
O    0.644410  1.042270  4.368629
H    -2.409586  0.566770  1.511308
H    -2.536512  0.843512  3.685985
C    -1.472771  -0.968106  4.133092
C    -0.792906  -2.128622  3.372114
C    0.069239  -3.035213  4.248667
N    1.297835  -2.326397  4.780460
C    2.544170  -2.961232  4.435076
N    2.917171  -4.044597  5.133699
N    3.185388  -2.372494  3.465103
H    -2.499572  -1.269501  4.372534
H    -0.978897  -0.808818  5.101624
H    -0.178603  -1.773042  2.533730
H    -1.559289  -2.757657  2.898680
H    0.397992  -3.901884  3.660479
H    -0.507939  -3.424595  5.098195
H    1.224140  -2.231400  5.795445
H    3.801557  -4.511610  4.957227
H    2.306380  -4.472096  5.820274
H    4.039391  -2.848205  3.164657
N    -0.929737  2.665101  4.232794
C    -0.111782  3.740240  4.793908
H    -1.882883  2.896524  3.967267
H    0.694324  3.304354  5.389578
H    -0.740163  4.369026  5.432652
H    0.316192  4.357499  3.993256
Ca    2.050960  -0.314196  3.303315
