36
Energy: -39735.1564089 eV PBE+vdW (tier 2 basis)
C    -0.294487  3.026144  1.072234
C    -0.283535  1.671059  1.684805
O    0.742151  1.249306  2.323357
H    0.283643  2.953676  0.134710
H    0.238189  3.744481  1.705183
H    -1.294615  3.394972  0.814597
N    -1.352932  0.850586  1.576739
C    -2.716463  1.312538  1.838891
C    -2.766510  1.788943  3.299124
O    -1.790695  1.521039  4.101114
H    -1.161636  -0.111650  1.864401
H    -2.947080  2.178800  1.166160
C    -3.750283  0.200105  1.552352
C    -3.663092  -0.500104  0.182891
C    -3.721423  0.363430  -1.097581
N    -4.769534  1.366887  -1.124830
C    -4.591326  2.657456  -0.688239
N    -5.739438  3.364234  -0.418643
N    -3.437739  3.217749  -0.415770
H    -4.746672  0.645433  1.665257
H    -3.678683  -0.574981  2.332763
H    -4.493890  -1.220867  0.167141
H    -2.749374  -1.111591  0.117211
H    -3.865337  -0.307776  -1.953735
H    -2.751008  0.848023  -1.273105
H    -5.663213  1.102812  -1.524093
H    -5.651934  4.370685  -0.513847
H    -6.636639  2.985415  -0.699985
H    -2.689540  2.692811  -0.876194
N    -3.787995  2.490417  3.750856
C    -4.954254  2.994480  3.018881
H    -3.743653  2.713756  4.745368
H    -5.223859  3.966886  3.443719
H    -5.805431  2.312171  3.135793
H    -4.723946  3.132647  1.958458
Ca    0.266580  1.073225  4.412451
