36
Energy: -39736.3662091 eV PBE+vdW (tier 2 basis)
C    1.578939  -0.219520  1.149414
C    1.031177  -0.571580  2.489530
O    1.739177  -1.220417  3.332594
H    2.165937  0.707484  1.233106
H    0.798766  -0.062275  0.397289
H    2.251963  -1.017032  0.816812
N    -0.207423  -0.232812  2.850647
C    -1.147188  0.710707  2.248556
C    -0.474619  2.073691  1.955323
O    0.454621  2.507427  2.663996
H    -0.471772  -0.574070  3.770922
H    -1.513650  0.289783  1.302178
C    -2.385723  0.884189  3.191474
C    -2.215419  0.714888  4.717213
C    -1.385603  1.737507  5.517846
N    0.046451  1.776178  5.213311
C    1.037128  1.068577  5.746709
N    0.784969  -0.032181  6.620883
N    2.321461  1.178582  5.449556
H    -3.141124  0.151741  2.878358
H    -2.822848  1.871782  2.989151
H    -1.890640  -0.313654  4.963557
H    -3.233655  0.761123  5.131869
H    -1.524570  1.556233  6.592867
H    -1.766500  2.751404  5.334186
H    0.296363  2.250166  4.314747
H    1.177707  0.135839  7.551155
H    -0.197339  -0.286697  6.725093
H    2.550452  2.023034  4.921364
N    -0.954051  2.772497  0.916321
C    -2.007109  2.406199  -0.033442
H    -0.515520  3.684425  0.800900
H    -2.978757  2.273830  0.459114
H    -1.751292  1.496658  -0.593024
H    -2.107453  3.221523  -0.755177
Ca    2.745980  -1.019523  5.209861
