36
Energy: -39736.5688034 eV PBE+vdW (tier 2 basis)
C    -1.459438  0.916894  -1.234074
C    -0.738631  1.011238  0.084096
O    0.429867  0.479923  0.168597
H    -1.533097  1.906437  -1.706348
H    -2.482309  0.533660  -1.122139
H    -0.899535  0.258716  -1.904008
N    -1.208147  1.550661  1.229456
C    -2.648672  1.639163  1.505601
C    -3.144632  0.185061  1.736974
O    -2.288583  -0.681804  2.090460
H    -0.504551  3.435914  0.964173
H    -2.706890  2.050937  2.530462
C    -3.495101  2.587796  0.614268
C    -3.940400  3.866042  1.336815
C    -2.808432  4.821215  1.735463
N    -2.147387  5.458789  0.587655
C    -0.854608  5.359716  0.241195
N    -0.313760  6.311034  -0.537237
N    -0.102175  4.331675  0.652605
H    -4.382544  2.081723  0.207510
H    -2.912387  2.858395  -0.274647
H    -4.490728  3.612561  2.256386
H    -4.658312  4.409377  0.704588
H    -2.036021  4.320547  2.333476
H    -3.214417  5.623137  2.367662
H    -2.684961  6.169993  0.100087
H    0.570992  6.166730  -1.008828
H    -0.746309  7.221556  -0.639492
H    0.902774  4.371219  0.532470
N    -4.435085  -0.101744  1.643697
C    -5.033665  -1.401886  1.951820
H    -5.064633  0.643504  1.361448
H    -5.687737  -1.314320  2.827945
H    -4.236423  -2.118285  2.161062
H    -5.623822  -1.746839  1.095235
Ca    -0.094759  -0.270005  2.160232
