36
Energy: -39735.9387176 eV PBE+vdW (tier 2 basis)
C    -0.405534  0.759875  -0.495231
C    -0.160139  0.597647  0.969810
O    0.983094  0.856462  1.467775
H    -1.172861  0.074875  -0.870472
H    0.535399  0.594728  -1.030954
H    -0.731934  1.790343  -0.708805
N    -1.162989  0.198178  1.782848
C    -2.504281  0.795885  1.703753
C    -2.400976  2.341337  1.909004
O    -1.233439  2.801879  2.341343
H    -0.855006  0.018366  2.739885
H    -2.878959  0.650168  0.681495
C    -3.440715  0.092024  2.705915
C    -4.094400  -1.196250  2.157840
C    -5.577019  -1.029529  1.783755
N    -5.787177  0.168615  0.960022
C    -6.603664  1.201260  1.249588
N    -7.787711  0.972103  1.835438
N    -6.187109  2.432245  0.942165
H    -4.207927  0.813919  3.012197
H    -2.870348  -0.129544  3.620415
H    -4.041322  -2.004570  2.898576
H    -3.530692  -1.564617  1.286574
H    -6.181145  -0.910340  2.692897
H    -5.938369  -1.924927  1.259735
H    -5.096771  0.370608  0.244931
H    -8.330979  1.731477  2.228584
H    -8.239952  0.068232  1.758617
H    -6.847115  3.201593  0.910889
N    -3.441241  3.030269  1.611703
C    -3.429047  4.478263  1.788431
H    -5.162231  2.639005  1.041622
H    -3.621581  4.963253  0.820964
H    -2.487344  4.865241  2.197075
H    -4.245749  4.768675  2.464371
Ca    0.803903  2.736056  2.574518
