36
Energy: -39736.673389 eV PBE+vdW (tier 2 basis)
C    -0.231782  0.221878  0.256415
C    -0.010612  0.030859  1.725434
O    1.106023  -0.423791  2.132678
H    -0.151314  -0.757908  -0.235333
H    0.565930  0.851434  -0.157759
H    -1.203321  0.662956  0.011282
N    -1.011708  0.345715  2.553500
C    -1.187870  0.125219  4.009817
C    -0.291970  0.973884  4.923440
O    1.008705  0.945839  4.717472
H    -1.832946  0.722780  2.089760
H    -2.201471  0.497329  4.192395
C    -1.142315  -1.374715  4.386126
C    -1.592287  -1.633973  5.832327
C    -3.090562  -1.355576  6.055863
N    -3.451436  -1.115437  7.451449
C    -3.661669  0.097686  7.994415
N    -4.318634  0.171062  9.166614
N    -3.248115  1.207621  7.380224
H    -0.125887  -1.768941  4.247199
H    -1.780634  -1.926795  3.679623
H    -1.004949  -1.012906  6.522596
H    -1.373494  -2.678940  6.090669
H    -3.693675  -2.200974  5.698430
H    -3.426939  -0.476283  5.492208
H    -3.610460  -1.921081  8.047127
H    -4.313559  1.020782  9.716660
H    -4.891095  -0.593686  9.502750
H    -3.597216  2.096927  7.719494
N    -0.880383  1.586602  5.893327
C    -0.035911  2.329905  6.827827
H    -2.433015  1.253153  6.706542
H    -0.647296  2.689276  7.662832
H    0.417231  3.205416  6.340538
H    0.781935  1.714848  7.232703
Ca    2.525623  0.171870  3.604422
