36
Energy: -39736.7016091 eV PBE+vdW (tier 2 basis)
C    -0.053163  0.713430  -0.036611
C    -0.180841  0.485467  1.438120
O    0.852425  0.169383  2.110155
H    0.293585  -0.219989  -0.502087
H    0.719390  1.469291  -0.226806
H    -0.986969  1.023689  -0.516505
N    -1.391726  0.621137  1.988610
C    -1.893303  0.311066  3.350842
C    -1.373081  1.229633  4.471430
O    -0.072554  1.366001  4.611845
H    -2.117068  0.899203  1.334373
H    -2.963501  0.531677  3.273786
C    -1.735166  -1.188175  3.693137
C    -2.358225  -1.629957  5.030054
C    -3.884458  -1.532902  5.165501
N    -4.339439  -0.153667  5.356661
C    -5.605209  0.206430  5.550797
N    -6.590220  -0.700467  5.648336
N    -5.904519  1.518005  5.623026
H    -0.668230  -1.454698  3.708106
H    -2.177696  -1.767501  2.868820
H    -1.888142  -1.102199  5.873621
H    -2.103910  -2.690000  5.165521
H    -4.178653  -2.142112  6.035822
H    -4.369488  -1.969826  4.275489
H    -3.613680  0.619832  5.349882
H    -7.556975  -0.421528  5.758423
H    -6.390853  -1.690990  5.683170
H    -6.811362  1.839440  5.935891
N    -2.276859  1.717567  5.251999
C    -1.866244  2.510510  6.405910
H    -5.167157  2.206701  5.537737
H    -2.593959  2.374485  7.215488
H    -1.863423  3.578792  6.143184
H    -0.865700  2.250422  6.777404
Ca    1.766251  0.840298  3.911988
