36
Energy: -39734.5201995 eV PBE+vdW (tier 2 basis)
C    -0.306688  -0.661666  0.112558
C    -0.704040  -0.577833  1.546227
O    -0.224656  -1.393514  2.401589
H    0.719069  -0.287347  -0.027722
H    -0.982465  -0.121729  -0.556963
H    -0.287873  -1.723831  -0.167302
N    -1.574054  0.365422  1.972047
C    -1.468263  1.772375  1.595194
C    -0.178749  2.332742  2.276770
O    0.566351  1.574065  2.984788
H    -1.920913  0.217466  2.921952
H    -1.314108  1.834649  0.507579
C    -2.742819  2.549440  1.974697
C    -3.067993  2.541244  3.471267
C    -4.235372  3.470527  3.824867
N    -4.496793  3.403438  5.257374
C    -5.618783  4.074013  5.798015
N    -6.814508  3.788313  5.162708
N    -5.396559  4.868187  6.781651
H    -3.571068  2.122067  1.391564
H    -2.641054  3.586201  1.618053
H    -2.182291  2.855326  4.053442
H    -3.337594  1.530328  3.820666
H    -5.135942  3.162092  3.277708
H    -3.999418  4.499700  3.486587
H    -3.701529  3.720854  5.813480
H    -7.641231  4.202917  5.579160
H    -6.959467  2.829804  4.859356
H    -6.252799  5.233852  7.206767
N    0.124419  3.600369  2.087600
C    1.299401  4.276393  2.649964
H    -0.511174  4.158993  1.522656
H    1.348061  5.285075  2.232250
H    2.212278  3.732038  2.384164
H    1.215654  4.342365  3.741565
Ca    1.064284  -0.367241  3.796114
