36
Energy: -39735.7876111 eV PBE+vdW (tier 2 basis)
C    -0.176007  -1.789506  1.598878
C    -0.316699  -0.442871  2.224370
O    0.488345  0.500795  1.883326
H    -0.165080  -1.671095  0.506861
H    -0.981974  -2.468286  1.897709
H    0.795143  -2.221330  1.879272
N    -1.278797  -0.250283  3.120046
C    -1.650535  1.064873  3.683496
C    -0.629486  1.535056  4.744446
O    0.483102  2.033978  4.362745
H    -1.940650  -1.083014  3.256858
H    -1.522723  1.797696  2.868960
C    -3.145519  1.123446  4.067095
C    -3.687167  0.344160  5.299632
C    -5.063594  -0.340055  5.072231
N    -4.970428  -1.713817  4.540214
C    -4.174943  -1.871604  3.397871
N    -4.681236  -1.279415  2.275492
N    -2.995934  -2.433975  3.359760
H    -3.684783  0.797094  3.167087
H    -3.395492  2.186942  4.184960
H    -3.807611  1.038779  6.146315
H    -2.989039  -0.445683  5.625999
H    -5.687912  0.275806  4.410652
H    -5.602159  -0.413971  6.023543
H    -4.681549  -2.364537  5.268979
H    -4.236675  -1.535165  1.400718
H    -5.689324  -1.174860  2.228738
H    -2.752505  -2.820040  4.275819
N    -0.911313  1.451316  6.028945
C    -0.021443  1.894083  7.105302
H    -1.812693  1.054148  6.285020
H    -0.597553  1.939950  8.033075
H    0.379707  2.886836  6.875870
H    0.809522  1.188648  7.231948
Ca    1.671453  2.052237  2.593859
