36
Energy: -39736.2948801 eV PBE+vdW (tier 2 basis)
C    0.014166  2.592085  0.856388
C    -0.049874  1.303927  1.610608
O    1.007693  0.861418  2.191313
H    0.960412  2.659840  0.307928
H    0.011630  3.415724  1.587110
H    -0.823258  2.742928  0.169396
N    -1.161125  0.596423  1.716629
C    -2.529655  0.827641  1.248278
C    -3.373900  0.446054  2.506406
O    -2.897984  -0.409346  3.264151
H    -1.199347  -0.144106  2.442732
H    -2.666820  1.875557  0.954671
C    -2.938984  -0.147363  0.118790
C    -2.244960  -0.090227  -1.252539
C    -0.749970  -0.440300  -1.353249
N    -0.374036  -1.600800  -0.535053
C    0.818283  -1.728008  0.057727
N    0.932591  -2.584702  1.193839
N    1.914253  -1.042287  -0.173668
H    -4.010252  0.020727  -0.063460
H    -2.886666  -1.165492  0.536663
H    -2.363137  0.905590  -1.704629
H    -2.804170  -0.770812  -1.911504
H    -0.123646  0.395474  -1.014105
H    -0.497349  -0.621656  -2.408367
H    -1.063689  -2.335912  -0.403965
H    1.528312  -3.395579  1.005228
H    0.044291  -2.902716  1.585164
H    1.920690  -0.529470  -1.056102
N    -4.568974  1.033207  2.641120
C    -5.505177  0.723545  3.721761
H    -4.840093  1.744820  1.969803
H    -6.448920  0.347711  3.308873
H    -5.703890  1.622066  4.317750
H    -5.055269  -0.042369  4.358591
Ca    2.471915  -0.645371  2.005406
