36
Energy: -39735.9741753 eV PBE+vdW (tier 2 basis)
C    0.013527  0.726778  -1.952079
C    0.736358  0.986901  -0.793255
O    2.019168  1.239225  -0.883105
H    -3.628878  3.755963  -0.109429
H    -1.040556  0.469047  -1.950952
H    0.395003  1.182594  -2.868440
N    0.278714  0.795994  0.520024
C    -0.541819  -0.323661  0.949694
C    0.104109  -1.700151  0.588191
O    1.059389  -1.806136  -0.226354
H    1.055723  0.974470  1.153863
H    -0.528985  -0.274256  2.050667
C    -2.032072  -0.229718  0.530510
C    -2.633460  1.127607  0.914028
C    -4.138152  1.268067  0.646087
N    -4.512938  1.417135  -0.769065
C    -4.718723  2.581038  -1.402277
N    -5.359827  2.592089  -2.581505
N    -4.287171  3.734399  -0.877256
H    -2.588371  -1.031886  1.039391
H    -2.136824  -0.422825  -0.545884
H    -2.074597  1.928434  0.407294
H    -2.486335  1.295794  1.992228
H    -4.541210  2.132724  1.190962
H    -4.686770  0.394661  1.024227
H    -4.726680  0.575145  -1.292356
H    -5.370657  3.420105  -3.165191
H    -5.951197  1.821096  -2.867591
H    -4.617876  4.625107  -1.228965
N    -0.372299  -2.774632  1.212586
C    0.148565  -4.128838  1.014835
H    -1.100308  -2.647371  1.907849
H    -0.433229  -4.818364  1.631921
H    1.203008  -4.182047  1.311917
H    0.058129  -4.423915  -0.036933
Ca    2.180116  -0.683954  -1.793922
