36
Energy: -39737.4627855 eV PBE+vdW (tier 2 basis)
C    0.440183  -0.782600  -0.108467
C    0.043060  -0.338441  1.260573
O    0.909451  -0.025385  2.123979
H    1.032581  0.014006  -0.579240
H    -0.411361  -1.024976  -0.752480
H    1.094652  -1.660643  -0.027853
N    -1.270679  -0.265821  1.559710
C    -1.754860  0.261679  2.841028
C    -1.609144  -0.837389  3.923050
O    -0.557752  -0.865313  4.628548
H    -1.944830  -0.515071  0.840544
H    -1.024965  1.030772  3.122949
C    -3.133777  0.950743  2.738378
C    -3.211150  2.309902  3.460891
C    -2.952381  2.330270  4.978273
N    -1.561763  2.065463  5.366257
C    -0.478516  2.850001  5.121916
N    -0.692631  4.169560  4.924138
N    0.724967  2.278839  5.043717
H    -3.939152  0.294963  3.101000
H    -3.352912  1.133918  1.676722
H    -4.220872  2.713065  3.298545
H    -2.526683  3.018223  2.968914
H    -3.564153  1.578387  5.493910
H    -3.285224  3.296336  5.385111
H    -1.345219  1.161875  5.767838
H    -1.528899  4.621794  5.275185
H    0.080441  4.779181  4.687749
H    1.454650  2.992504  5.126055
N    -2.570968  -1.739437  4.056949
C    -2.539397  -2.880659  4.973484
H    -3.389842  -1.649278  3.460968
H    -3.460463  -2.898015  5.566970
H    -1.675848  -2.783732  5.635010
H    -2.463170  -3.815423  4.404127
Ca    1.363328  0.202940  4.270179
