36
Energy: -39736.5597767 eV PBE+vdW (tier 2 basis)
C    -1.883225  0.090325  0.201932
C    -1.628525  0.219529  1.676866
O    -0.570045  0.933466  2.009626
H    -2.239163  1.047770  -0.205216
H    -2.609210  -0.698570  -0.015960
H    -0.947009  -0.145255  -0.318669
N    -2.438872  -0.348309  2.530578
C    -2.107886  -0.154903  3.951516
C    -0.750939  -0.788511  4.295362
O    0.232121  -0.042686  4.641092
H    -4.299521  -0.259439  1.730922
H    -1.950212  0.922137  4.139515
C    -3.207369  -0.643757  4.944443
C    -4.626454  -0.720170  4.379735
C    -5.195572  0.632248  3.924982
N    -6.387853  0.494644  3.086835
C    -6.346900  0.168210  1.787245
N    -7.484629  0.145581  1.072688
N    -5.178745  -0.115171  1.201321
H    -3.179576  0.022135  5.818973
H    -2.959781  -1.638413  5.334308
H    -5.284640  -1.146588  5.149748
H    -4.641934  -1.429418  3.541088
H    -4.454907  1.210150  3.354442
H    -5.477753  1.249237  4.786799
H    -7.296428  0.526763  3.536169
H    -7.514511  -0.246081  0.140120
H    -8.349917  0.518750  1.442546
H    -5.137788  -0.210228  0.194675
N    -0.559916  -2.099405  4.224760
C    -1.487156  -3.144679  3.791583
H    0.369497  -2.402891  4.514438
H    -0.931900  -3.869180  3.185576
H    -2.277669  -2.709691  3.175018
H    -1.916641  -3.668598  4.655448
Ca    0.926981  1.471702  3.294832
