36
Energy: -39736.7904837 eV PBE+vdW (tier 2 basis)
C    -1.643269  0.107808  -0.737633
C    -0.893540  1.112772  0.070955
O    -0.006549  1.846780  -0.441348
H    -2.495520  0.594920  -1.237017
H    -2.017401  -0.729425  -0.139343
H    -0.982904  -0.265067  -1.528712
N    -1.165515  1.263662  1.400759
C    -2.511118  1.325712  1.947771
C    -3.262276  2.504950  1.262550
O    -2.641375  3.325686  0.532744
H    -0.508535  1.896943  1.856915
H    -3.051385  0.411727  1.657177
C    -2.483925  1.352423  3.503830
C    -1.368946  2.129301  4.233854
C    -1.564598  3.602347  4.627319
N    -1.807440  4.601267  3.568327
C    -0.999437  4.877551  2.530030
N    -1.450450  5.830607  1.576948
N    0.117194  4.289107  2.170748
H    -2.385693  0.303726  3.811900
H    -3.468346  1.677537  3.870559
H    -0.393255  1.969204  3.751758
H    -1.240210  1.626595  5.203866
H    -0.692019  3.915389  5.222105
H    -2.432455  3.680049  5.293738
H    -2.503584  5.304632  3.798022
H    -0.840298  6.651041  1.553972
H    -2.423880  6.119682  1.670422
H    0.576488  3.752176  2.907013
N    -4.577665  2.560485  1.441614
C    -5.478632  3.539648  0.833443
H    -5.007086  1.836155  2.012458
H    -6.268291  3.018149  0.280114
H    -4.909599  4.167425  0.143974
H    -5.942804  4.162356  1.608201
Ca    -0.543361  4.000042  -0.061774
