36
Energy: -39736.7059285 eV PBE+vdW (tier 2 basis)
C    0.535896  0.683528  1.200485
C    -0.374081  -0.262178  1.907282
O    0.071537  -1.158517  2.681559
H    0.946537  1.410260  1.917471
H    0.051085  1.218758  0.378452
H    1.391418  0.113811  0.815024
N    -1.722633  -0.176568  1.760188
C    -2.501021  1.055102  1.740661
C    -2.054259  1.906246  2.955337
O    -1.587124  1.305228  3.971906
H    -2.246905  -0.974354  2.159999
H    -2.359643  1.589590  0.792073
C    -4.004264  0.732018  1.966590
C    -4.681370  -0.360996  1.115903
C    -4.334459  -1.862776  1.353858
N    -3.579334  -2.157839  2.589093
C    -4.043450  -1.969743  3.887340
N    -5.371124  -1.842653  4.062868
N    -3.129237  -1.855982  4.835574
H    -4.555759  1.664685  1.786324
H    -4.148824  0.515377  3.035966
H    -4.527354  -0.153715  0.048172
H    -5.757611  -0.225712  1.284734
H    -3.689551  -2.226092  0.545559
H    -5.254872  -2.463190  1.284679
H    -2.946917  -2.952591  2.520235
H    -5.753780  -1.620948  4.975514
H    -6.024444  -2.204620  3.376452
H    -3.548254  -1.953952  5.765101
N    -2.200076  3.222921  2.957153
C    -2.745154  4.095991  1.916067
H    -1.933872  3.673368  3.833663
H    -2.691782  3.618011  0.934325
H    -2.153111  5.016596  1.883338
H    -3.788653  4.354498  2.137536
Ca    -1.052397  -0.783227  4.591790
