36
Energy: -39736.3314948 eV PBE+vdW (tier 2 basis)
C    -0.255891  1.735398  0.735595
C    -0.572970  0.630335  1.689953
O    0.221609  0.392469  2.678966
H    -0.168898  2.682531  1.284770
H    -1.012935  1.844741  -0.046920
H    0.716610  1.538398  0.263851
N    -1.659237  -0.082068  1.503032
C    -2.173790  -1.202679  2.283805
C    -3.428979  -1.623138  1.451157
O    -3.802610  -0.873138  0.545651
H    -2.333055  0.115381  0.729016
H    -1.435743  -2.020357  2.271207
C    -2.517598  -0.812399  3.748695
C    -1.595977  -1.430951  4.808185
C    -1.610484  -0.627200  6.115522
N    -0.802882  -1.196162  7.185477
C    0.474613  -0.858668  7.473170
N    0.940756  -1.218743  8.687080
N    1.232986  -0.204138  6.582242
H    -3.556566  -1.090010  3.971864
H    -2.493313  0.284807  3.814713
H    -0.564082  -1.507113  4.411902
H    -1.882331  -2.472059  5.015279
H    -2.641807  -0.554375  6.487328
H    -1.280973  0.410235  5.945921
H    -1.275163  -1.811642  7.838626
H    1.928073  -1.169621  8.904083
H    0.327716  -1.536919  9.428448
H    2.058337  0.151806  7.075637
N    -4.048899  -2.775863  1.758901
C    -3.683097  -3.771641  2.756490
H    -4.874430  -2.957041  1.191535
H    -2.593590  -3.865903  2.841812
H    -4.067444  -4.745118  2.435891
H    -4.109285  -3.546447  3.745317
Ca    1.442937  0.158415  4.355126
