36
Energy: -39735.191696 eV PBE+vdW (tier 2 basis)
C    -0.726235  0.046760  -0.235973
C    -0.654118  -0.119491  1.235145
O    0.373079  -0.640143  1.794885
H    0.213099  0.454630  -0.630499
H    -1.602455  0.623835  -0.573342
H    -0.811611  -0.969457  -0.659283
N    -1.682746  0.266324  2.030341
C    -2.320001  1.584825  1.924849
C    -1.228610  2.643872  2.148018
O    -0.070473  2.314532  2.604104
H    -1.602610  -0.077115  2.989871
H    -2.709111  1.713730  0.883602
C    -3.470784  1.710769  2.972690
C    -4.919379  1.627772  2.463999
C    -5.363073  0.325295  1.779437
N    -4.720524  0.077090  0.481056
C    -4.729228  1.059440  -0.505959
N    -5.973040  1.470223  -0.887931
N    -3.584926  1.525659  -0.927549
H    -3.358483  2.665419  3.505234
H    -3.306087  0.938766  3.743040
H    -5.125547  2.470940  1.786814
H    -5.568386  1.789188  3.337920
H    -6.453096  0.352666  1.653547
H    -5.156236  -0.548883  2.411995
H    -3.801485  -0.345386  0.554610
H    -6.055869  2.161998  -1.623014
H    -6.744060  0.814797  -0.816976
H    -3.682429  2.090491  -1.775901
N    -1.476160  3.905701  1.853026
C    -2.702351  4.466397  1.275693
H    -0.725136  4.560729  2.070530
H    -3.183570  3.732112  0.620075
H    -2.427723  5.342939  0.681023
H    -3.396791  4.778505  2.066053
Ca    1.438977  0.839784  2.918554
