36
Energy: -39735.7039191 eV PBE+vdW (tier 2 basis)
C    0.180887  0.393578  0.025725
C    0.071336  0.257507  1.506371
O    1.120744  0.281225  2.234213
H    0.633432  1.369247  -0.203234
H    -0.783259  0.318539  -0.487030
H    0.863108  -0.373036  -0.364598
N    -1.134327  0.123199  2.062549
C    -1.428095  0.144946  3.509730
C    -1.000719  -1.200630  4.143338
O    0.201581  -1.253296  4.604740
H    -1.946320  0.122482  1.446773
H    -0.727145  0.864449  3.963480
C    -2.853627  0.656558  3.712122
C    -3.364087  0.653998  5.158731
C    -4.895430  0.841553  5.225401
N    -5.680241  -0.377821  5.051216
C    -6.181068  -0.799992  3.830770
N    -7.351174  -1.520396  3.932339
N    -5.502988  -0.585879  2.741356
H    -3.581282  0.111829  3.081203
H    -2.859644  1.691675  3.335635
H    -2.885695  1.465047  5.728809
H    -3.114645  -0.281927  5.681342
H    -5.209290  1.589230  4.480828
H    -5.151831  1.245392  6.212417
H    -6.211770  -0.670202  5.862278
H    -7.752733  -1.874891  3.072563
H    -8.037430  -1.252142  4.629966
H    -6.049112  -0.833641  1.914143
N    -1.743841  -2.285300  4.215006
C    -3.113054  -2.573810  3.780924
H    -1.264481  -3.060063  4.679049
H    -3.101963  -3.524038  3.234812
H    -3.536629  -1.791343  3.145068
H    -3.758251  -2.676529  4.662865
Ca    2.048164  -0.419199  3.998325
