36
Energy: -39735.4128692 eV PBE+vdW (tier 2 basis)
C    -0.885706  -2.728155  0.808200
C    -0.791709  -1.588312  1.763763
O    0.248315  -0.848381  1.788497
H    -0.817219  -2.335376  -0.216419
H    -1.812813  -3.301110  0.910498
H    -0.026718  -3.397452  0.950100
N    -1.809949  -1.339411  2.591623
C    -1.889005  -0.173989  3.488259
C    -0.883525  -0.314689  4.650121
O    0.241536  0.300799  4.531814
H    -2.632373  -1.938259  2.535581
H    -1.528056  0.694678  2.914015
C    -3.325241  0.083410  3.944567
C    -4.326639  0.499413  2.861905
C    -5.776732  0.407780  3.391497
N    -6.159897  -0.945819  3.756645
C    -5.934447  -1.504180  5.011791
N    -6.153318  -2.867243  5.068975
N    -5.438755  -0.910450  6.053287
H    -3.282349  0.858181  4.724584
H    -3.705834  -0.812994  4.446054
H    -4.247800  -0.151926  1.976751
H    -4.130713  1.527425  2.520120
H    -6.462763  0.752882  2.609025
H    -5.914695  1.099480  4.238609
H    -6.867680  -1.381350  3.176039
H    -6.344690  -3.212971  6.003871
H    -6.712052  -3.302607  4.343859
H    -5.429416  0.105048  5.939994
N    -1.115824  -1.022342  5.740048
C    -2.236612  -1.902382  6.111049
H    -0.360938  -0.959420  6.424683
H    -1.900783  -2.509122  6.956571
H    -2.488985  -2.576045  5.284753
H    -3.143066  -1.347043  6.406642
Ca    1.551380  0.426446  2.874713
