36
Energy: -39736.9513337 eV PBE+vdW (tier 2 basis)
C    -1.384747  1.096606  -0.225756
C    -1.003695  0.733594  1.179965
O    -0.246876  1.495828  1.834810
H    -2.058464  1.965144  -0.181239
H    -1.893689  0.295167  -0.772366
H    -0.490476  1.412432  -0.773533
N    -1.523000  -0.411539  1.664944
C    -1.683151  -1.026968  3.004192
C    -1.160006  -0.258456  4.220782
O    0.024762  0.171376  4.314041
H    -2.099112  -0.901991  0.985080
H    -2.773574  -1.081904  3.124196
C    -1.204427  -2.512461  3.046741
C    0.281598  -2.841747  3.298018
C    1.130659  -3.315159  2.108177
N    1.281923  -2.391128  0.977273
C    1.874184  -1.175107  1.038242
N    1.843356  -0.408780  -0.097198
N    2.391375  -0.640210  2.136635
H    -1.559811  -2.988059  2.119225
H    -1.796372  -2.979028  3.846536
H    0.317943  -3.679959  4.007761
H    0.769532  -2.012589  3.822976
H    0.688024  -4.225622  1.685097
H    2.123459  -3.613101  2.484533
H    1.181400  -2.807805  0.057210
H    2.634391  0.213404  -0.227799
H    1.494350  -0.817888  -0.957512
H    2.592354  -1.369439  2.824759
N    -1.976923  -0.154851  5.267773
C    -3.372926  -0.581331  5.416955
H    -1.538020  0.264927  6.086699
H    -4.010465  -0.136318  4.643758
H    -3.727455  -0.226004  6.388549
H    -3.465407  -1.674489  5.400575
Ca    1.495231  1.242998  3.097946
