36
Energy: -39736.4311471 eV PBE+vdW (tier 2 basis)
C    -0.192006  0.633003  0.008371
C    -0.055634  0.523217  1.498510
O    0.971048  0.865430  2.102160
H    -0.213190  1.699326  -0.257125
H    -1.093088  0.153590  -0.390223
H    0.696417  0.202442  -0.467625
N    -1.131512  0.019768  2.190608
C    -1.252718  0.156049  3.643426
C    -0.364402  -0.852848  4.413181
O    -0.861677  -1.642616  5.300983
H    -1.961193  -0.228636  1.663725
H    -0.838139  1.145409  3.906654
C    -2.715437  0.127139  4.096353
C    -3.523848  -1.132561  3.731881
C    -4.714424  -1.329982  4.685176
N    -5.432074  -2.578202  4.499320
C    -5.144558  -3.746995  5.116809
N    -6.004250  -4.767456  4.919781
N    -4.055970  -3.868446  5.889797
H    -3.212478  1.020102  3.692349
H    -2.716162  0.272160  5.188655
H    -2.889848  -2.033291  3.740730
H    -3.914234  -1.068027  2.705879
H    -5.434612  -0.508910  4.568040
H    -4.395500  -1.270391  5.742930
H    -6.236504  -2.560002  3.882552
H    -5.808485  -5.693521  5.277220
H    -6.888500  -4.646589  4.440336
H    -4.104235  -4.778851  6.357983
N    0.916248  -0.819262  4.150691
C    1.927260  -1.660635  4.780578
H    1.178829  -0.111945  3.407926
H    1.742324  -2.720893  4.564909
H    1.936791  -1.508126  5.867246
H    2.903951  -1.383542  4.375952
Ca    -2.138189  -2.815748  6.463988
