36
Energy: -39736.1964284 eV PBE+vdW (tier 2 basis)
C    0.891976  -0.777605  0.754680
C    0.292535  -0.310411  2.041756
O    0.970112  -0.409559  3.139026
H    1.834538  -0.244621  0.570330
H    0.225016  -0.623542  -0.099216
H    1.126221  -1.848459  0.830209
N    -0.920045  0.192483  2.033904
C    -1.700551  0.705222  3.159908
C    -3.112268  0.887303  2.522577
O    -3.155083  1.026927  1.296034
H    -1.461006  0.324592  1.155438
H    -1.692669  -0.037920  3.970310
C    -1.107269  2.047912  3.653128
C    -1.483970  2.461261  5.081373
C    -0.394920  3.332454  5.726581
N    0.865722  2.595330  5.890224
C    1.149696  1.665383  6.830899
N    0.478829  1.707426  7.997812
N    2.064543  0.722234  6.548723
H    -1.370545  2.838108  2.935910
H    -0.015383  1.933073  3.595916
H    -1.633498  1.574550  5.717328
H    -2.431030  3.016585  5.096633
H    -0.735778  3.729555  6.691817
H    -0.169322  4.210650  5.108507
H    1.589049  2.737728  5.196672
H    0.604375  0.978048  8.688767
H    0.015033  2.553220  8.309527
H    2.457210  0.347857  7.418615
N    -4.209513  0.927774  3.299255
C    -4.373655  0.635344  4.716588
H    -5.059196  1.107552  2.766184
H    -5.261615  0.007310  4.852513
H    -4.503775  1.550511  5.309744
H    -3.514327  0.078267  5.103037
Ca    2.357943  -0.527189  4.692158
