36
Energy: -39736.7367613 eV PBE+vdW (tier 2 basis)
C    -0.292316  0.244010  -0.201959
C    -0.176143  0.353521  1.289894
O    0.945605  0.623972  1.806909
H    -0.011592  1.205810  -0.651933
H    -1.293589  -0.031480  -0.549109
H    0.431571  -0.498593  -0.561751
N    -1.300118  0.159384  2.004117
C    -1.548255  0.199411  3.465906
C    -0.348923  0.833442  4.173763
O    0.587941  0.059118  4.663887
H    -2.132609  -0.014187  1.446050
H    -2.381069  0.907177  3.594077
C    -2.060175  -1.156234  4.012202
C    -1.465061  -2.474127  3.492467
C    -0.013065  -2.798552  3.869191
N    0.269916  -2.671167  5.298947
C    0.135901  -3.620053  6.229102
N    -0.324047  -4.841262  5.920763
N    0.473481  -3.354872  7.502262
H    -3.137203  -1.195499  3.794170
H    -1.998702  -1.107520  5.109601
H    -1.535267  -2.522192  2.395440
H    -2.124636  -3.275131  3.859306
H    0.676084  -2.109125  3.368525
H    0.259218  -3.807049  3.527357
H    0.453242  -1.705334  5.582885
H    -0.257820  -5.608263  6.578740
H    -0.662398  -5.060794  4.994049
H    0.270195  -4.005664  8.250616
N    -0.119225  2.123338  4.156529
C    -1.033480  3.101492  3.578033
H    0.939097  -2.493058  7.754121
H    -0.938537  3.152994  2.480749
H    -0.789519  4.090068  3.979875
H    -2.087199  2.899894  3.819418
Ca    1.975493  1.396887  3.596473
