36
Energy: -39736.3303372 eV PBE+vdW (tier 2 basis)
C    -0.435211  1.758925  -0.822103
C    -0.809410  2.249128  0.546976
O    -0.064763  3.226967  1.023804
H    0.612443  1.430234  -0.832501
H    -0.514746  2.584703  -1.542401
H    -1.065852  0.926126  -1.146728
N    -1.821430  1.705918  1.166667
C    -2.226098  2.245360  2.475121
C    -1.262534  1.752925  3.565005
O    -0.212178  2.421686  3.842987
H    -3.006919  0.538713  0.153506
H    -2.116775  3.346841  2.488054
C    -3.704827  1.916161  2.755247
C    -4.669272  2.674782  1.813565
C    -5.907658  1.881252  1.324631
N    -5.865793  1.558112  -0.116841
C    -4.810109  0.990441  -0.711641
N    -4.543750  1.214193  -2.004595
N    -3.974507  0.182157  -0.018260
H    -3.941380  2.161556  3.799900
H    -3.857186  0.829372  2.654167
H    -4.117774  3.025706  0.929892
H    -5.018736  3.580453  2.324841
H    -6.822634  2.467141  1.460080
H    -6.055799  0.962035  1.912315
H    -6.609229  1.930091  -0.700830
H    -3.966323  0.551871  -2.510799
H    -5.028719  1.926173  -2.538876
H    -4.377318  -0.186350  0.838010
N    -1.513595  0.614845  4.192218
C    -0.651109  0.010589  5.207744
H    -2.356477  0.113128  3.930451
H    0.129903  -0.602075  4.738575
H    -1.262292  -0.623720  5.856150
H    -0.182337  0.797207  5.806022
Ca    0.958950  3.803818  2.689073
