36
Energy: -39733.7265039 eV PBE+vdW (tier 2 basis)
C    -0.051643  -1.068608  0.437032
C    -0.192065  -0.245217  1.671463
O    0.880807  0.004779  2.375173
H    0.716060  -0.625249  -0.210981
H    -0.984169  -1.160505  -0.125655
H    0.296287  -2.074666  0.711102
N    -1.329847  0.240603  2.087613
C    -2.682593  0.182053  1.520323
C    -3.344621  1.421324  2.203188
O    -2.837970  1.834498  3.256460
H    -1.389815  0.851355  2.939166
H    -2.641760  0.312284  0.429447
C    -3.378643  -1.150051  1.890002
C    -4.796600  -1.302793  1.331296
C    -5.356289  -2.725537  1.545677
N    -6.714581  -2.885345  1.051328
C    -7.081627  -2.802498  -0.283796
N    -6.100113  -3.152862  -1.197142
N    -8.223109  -2.386547  -0.729333
H    -3.385264  -1.242430  2.986937
H    -2.746697  -1.968776  1.509486
H    -4.808060  -1.091071  0.250010
H    -5.479090  -0.589662  1.814581
H    -5.369335  -2.973216  2.615931
H    -4.693966  -3.463735  1.069719
H    -7.458355  -2.653240  1.700857
H    -6.469699  -3.171750  -2.144616
H    -5.545786  -3.974913  -0.974864
H    -8.874946  -2.111665  0.010875
N    -4.418823  1.946690  1.604303
C    -5.173498  3.077565  2.142578
H    -4.729507  1.545094  0.725464
H    -6.205612  2.777199  2.360574
H    -5.183809  3.901319  1.419178
H    -4.690118  3.408501  3.065189
Ca    2.550117  0.449974  3.415790
