36
Energy: -39736.0416794 eV PBE+vdW (tier 2 basis)
C    2.081215  0.664957  2.142427
C    1.257768  -0.180084  3.057972
O    1.849833  -0.913943  3.936068
H    2.653693  1.391964  2.735180
H    1.473342  1.200954  1.406909
H    2.814011  0.028779  1.627818
N    -0.057436  -0.134922  2.931165
C    -1.087324  -0.976495  3.573367
C    -1.132207  -0.820389  5.097889
O    -0.279758  -1.372979  5.867543
H    -0.470151  0.325177  2.040657
H    -2.023099  -0.543332  3.203513
C    -1.062297  -2.463926  3.138689
C    -0.968036  -2.710276  1.621926
C    -2.238941  -2.554717  0.753722
N    -3.062923  -1.365113  0.971909
C    -2.598414  -0.079165  0.974867
N    -3.442437  0.861012  1.535886
N    -1.384440  0.297703  0.654291
H    -1.960483  -2.944058  3.556431
H    -0.202991  -2.966536  3.610199
H    -0.654525  -3.754471  1.480347
H    -0.143199  -2.112828  1.211292
H    -2.904482  -3.405821  0.945461
H    -1.933871  -2.639221  -0.302589
H    -4.066208  -1.512845  0.950499
H    -3.274382  1.808298  1.208561
H    -4.427174  0.630020  1.621977
H    -0.917744  -0.420811  0.097875
N    -2.131767  -0.106011  5.588276
C    -2.384907  0.141023  7.007503
H    -2.760212  0.329887  4.916398
H    -3.465764  0.133201  7.180872
H    -1.982908  1.119202  7.302174
H    -1.913638  -0.644589  7.603307
Ca    1.783998  -1.882011  5.762128
