36
Energy: -39736.03004 eV PBE+vdW (tier 2 basis)
C    0.063462  -2.019364  0.950141
C    -0.138748  -0.763202  1.730812
O    0.866670  -0.050071  2.063806
H    -0.863664  -2.574081  0.773545
H    0.783435  -2.666523  1.467152
H    0.511012  -1.755970  -0.019343
N    -1.379516  -0.397998  2.056598
C    -1.819308  0.893744  2.627732
C    -1.558756  0.951831  4.148343
O    -0.335095  1.019465  4.545442
H    -2.129753  -1.020410  1.764051
H    -1.146370  1.663304  2.214745
C    -3.240493  1.218413  2.163605
C    -4.320257  0.131082  2.399679
C    -5.592384  0.687913  3.051711
N    -5.381872  1.091693  4.462333
C    -5.453105  2.470848  4.796055
N    -6.066648  2.712062  6.006749
N    -4.839842  3.299356  4.028307
H    -3.183248  1.454727  1.092770
H    -3.547829  2.157549  2.659140
H    -3.950518  -0.694866  3.032590
H    -4.608856  -0.328616  1.443814
H    -6.379928  -0.075901  3.025608
H    -5.950551  1.559658  2.489335
H    -5.893132  0.502130  5.114691
H    -6.139126  3.683535  6.290850
H    -6.880551  2.159544  6.261069
H    -4.988012  4.273592  4.297962
N    -2.547854  0.988738  5.001164
C    -2.368817  1.138202  6.444521
H    -3.548059  0.962153  4.678181
H    -3.343546  1.376109  6.880101
H    -1.665638  1.950170  6.660285
H    -1.989465  0.209030  6.888756
Ca    1.612783  0.965336  3.756060
