36
Energy: -39736.0332822 eV PBE+vdW (tier 2 basis)
C    -1.580546  -1.112357  0.327764
C    -1.638039  -1.064668  1.717346
O    -0.578301  -1.345109  2.431253
H    -2.383175  -0.779173  -0.326902
H    -2.618740  -3.451579  0.805187
H    -0.798341  -1.722337  -0.128153
N    -2.726415  -0.549045  2.434889
C    -3.425506  0.638843  1.956044
C    -2.504981  1.881967  2.179439
O    -1.256463  1.773570  1.995370
H    -2.478000  -0.496089  3.423512
H    -3.507769  0.561145  0.859964
C    -4.846684  0.730336  2.531332
C    -5.876669  -0.280084  1.984482
C    -5.791115  -1.749425  2.417255
N    -4.845581  -2.523751  1.604739
C    -4.307634  -3.700077  1.939501
N    -4.851414  -4.444043  2.913378
N    -3.201582  -4.118114  1.306286
H    -5.270746  1.716802  2.289545
H    -4.807275  0.671380  3.630598
H    -5.915565  -0.223955  0.883552
H    -6.863075  0.072518  2.314966
H    -6.795906  -2.188711  2.318970
H    -5.490991  -1.826425  3.473222
H    -4.500243  -2.100479  0.750748
H    -4.375418  -5.265368  3.266776
H    -5.813286  -4.311279  3.201099
H    -2.906792  -5.086384  1.337985
N    -3.030513  3.041780  2.544505
C    -2.249473  4.266736  2.736048
H    -4.030851  3.089092  2.704751
H    -2.929654  5.066870  3.038387
H    -1.749968  4.550466  1.802292
H    -1.494424  4.119279  3.517041
Ca    0.337806  0.340240  1.460159
