36
Energy: -39735.7378084 eV PBE+vdW (tier 2 basis)
C    -1.266926  0.605930  -0.170615
C    -1.036816  0.332872  1.278962
O    0.155521  0.285830  1.732077
H    -2.326095  0.667621  -0.439896
H    -0.794904  -0.197217  -0.754917
H    -0.764934  1.540611  -0.452900
N    -2.095824  0.142545  2.067944
C    -2.178829  -0.308466  3.475363
C    -1.620585  0.687508  4.495096
O    -0.378540  1.003800  4.524509
H    -3.003348  0.200098  1.608450
H    -3.258914  -0.334121  3.638022
C    -1.650160  -1.746126  3.667541
C    -1.785609  -2.357638  5.075591
C    -3.180776  -2.332002  5.763257
N    -4.330829  -2.471422  4.876715
C    -5.015467  -1.407923  4.318149
N    -5.094281  -0.250894  5.154681
N    -5.541702  -1.318662  3.149218
H    -0.593528  -1.806831  3.364784
H    -2.199279  -2.362562  2.941572
H    -1.069911  -1.891329  5.771393
H    -1.457633  -3.402322  4.979485
H    -3.303109  -1.400654  6.325658
H    -3.205071  -3.135624  6.511339
H    -4.384350  -3.331391  4.339052
H    -5.795624  0.365841  4.738579
H    -5.391064  -0.488527  6.104026
H    -5.385468  -2.156543  2.581070
N    -2.488200  1.139461  5.372644
C    -2.181483  2.033993  6.483700
H    -3.467112  0.764732  5.295163
H    -2.619219  1.628197  7.403148
H    -2.618597  3.023194  6.295924
H    -1.099692  2.129967  6.602897
Ca    1.365192  0.824304  3.359118
