36
Energy: -39736.0098307 eV PBE+vdW (tier 2 basis)
C    -0.035532  -0.071392  -0.125710
C    -0.071542  -0.008414  1.365564
O    1.012414  0.131109  2.025054
H    0.366123  0.880553  -0.502386
H    -1.017594  -0.245950  -0.576809
H    0.658254  -0.858400  -0.447913
N    -1.249626  -0.086537  1.986092
C    -1.540192  0.146550  3.414377
C    -1.149038  -1.071481  4.291340
O    0.097424  -1.387024  4.393133
H    -2.068379  -0.209679  1.394091
H    -0.913391  0.990897  3.747120
C    -3.016931  0.414123  3.612599
C    -3.792616  1.600910  3.071234
C    -5.255289  1.336381  3.506774
N    -5.432554  1.135686  4.947858
C    -5.546772  -0.076769  5.603745
N    -6.410834  -0.040068  6.663432
N    -4.833155  -1.132241  5.273163
H    -3.158957  0.460130  4.697941
H    -3.551219  -0.493081  3.290143
H    -3.768791  1.685685  1.974001
H    -3.428001  2.552337  3.484065
H    -5.627700  0.443615  2.983159
H    -5.892393  2.177627  3.208190
H    -5.835244  1.920106  5.447137
H    -6.466431  -0.837144  7.284562
H    -7.224294  0.563994  6.644391
H    -5.216205  -1.955988  5.742392
N    -2.078845  -1.733741  4.936138
C    -1.763128  -2.873919  5.796373
H    -3.116962  -1.429480  4.944043
H    -2.702179  -3.264909  6.195840
H    -1.117709  -2.567997  6.629625
H    -1.256274  -3.661830  5.226666
Ca    1.968483  -0.768452  3.680754
