36
Energy: -39735.7575706 eV PBE+vdW (tier 2 basis)
C    0.972520  0.330863  0.662655
C    0.563056  0.309422  2.091334
O    1.405044  0.668466  2.992791
H    1.301273  1.350703  0.417265
H    1.846891  -0.321674  0.530334
H    0.179151  0.037429  -0.035407
N    -0.663133  -0.080954  2.436678
C    -1.225521  0.014837  3.795137
C    -0.641946  -1.083445  4.713764
O    0.489171  -0.893238  5.274121
H    -1.373446  -0.253977  1.688549
H    -0.876426  0.962809  4.237269
C    -2.761195  0.045497  3.735520
C    -3.348619  1.185493  2.869852
C    -3.965954  0.698899  1.550363
N    -3.007737  -0.002724  0.669574
C    -2.287543  0.661585  -0.366757
N    -2.048166  2.008007  -0.140557
N    -1.719870  0.070018  -1.352144
H    -3.123864  0.135434  4.767973
H    -3.141212  -0.916268  3.350319
H    -2.581777  1.948731  2.670528
H    -4.138214  1.694676  3.437564
H    -4.451254  1.539584  1.030759
H    -4.774362  -0.010488  1.772653
H    -3.393181  -0.869704  0.302209
H    -1.638067  2.449074  -0.960918
H    -2.809939  2.558922  0.243349
H    -1.917927  -0.932880  -1.396275
N    -1.325542  -2.193098  4.912885
C    -0.909503  -3.316163  5.754673
H    -2.226575  -2.271634  4.446905
H    -1.770554  -3.660811  6.337013
H    -0.116070  -2.989660  6.430608
H    -0.546638  -4.141788  5.129008
Ca    2.219720  0.286112  4.868043
