36
Energy: -39736.2988673 eV PBE+vdW (tier 2 basis)
C    0.881076  -0.377308  0.947344
C    0.311128  0.322359  2.135500
O    1.110833  0.948822  2.927006
H    1.447988  0.359472  0.360901
H    0.130174  -0.840073  0.302664
H    1.597798  -1.142859  1.273540
N    -0.978230  0.331817  2.425926
C    -2.129711  -0.332353  1.815637
C    -3.256361  0.728354  2.014165
O    -3.097915  1.557543  2.921234
H    -1.360700  1.042952  3.092831
H    -1.942390  -0.540330  0.754925
C    -2.516832  -1.621704  2.585798
C    -1.413639  -2.693214  2.765046
C    -0.885613  -2.878533  4.193581
N    -0.123078  -1.719098  4.669001
C    0.698507  -1.682636  5.740513
N    0.797748  -2.781491  6.510415
N    1.410848  -0.565589  5.982529
H    -3.367254  -2.062916  2.049582
H    -2.918334  -1.320072  3.566185
H    -0.568121  -2.524092  2.083406
H    -1.825043  -3.667764  2.471940
H    -0.221246  -3.754711  4.206350
H    -1.732018  -3.086189  4.871049
H    -0.396486  -0.816191  4.299062
H    1.497098  -2.845446  7.239434
H    0.150034  -3.555583  6.429812
H    1.795820  -0.612359  6.930306
N    -4.330746  0.632710  1.223955
C    -5.497643  1.508149  1.333960
H    -4.335139  -0.071106  0.492308
H    -5.640995  2.064386  0.400120
H    -5.325697  2.211202  2.152845
H    -6.396092  0.915603  1.543542
Ca    2.124762  1.162764  4.745590
