36
Energy: -39735.3213932 eV PBE+vdW (tier 2 basis)
C    0.372691  -0.379101  0.944566
C    -0.095030  0.092506  2.279930
O    0.523518  1.030744  2.882904
H    0.323647  0.464413  0.240671
H    -0.217402  -1.210830  0.546654
H    1.427167  -0.678471  1.007759
N    -1.174656  -0.474436  2.826823
C    -1.885861  -0.031163  4.041593
C    -1.114925  -0.440587  5.319702
O    -0.135443  0.321078  5.666946
H    -1.629914  -1.213861  2.295130
H    -1.829259  1.070057  4.055075
C    -3.355107  -0.442158  3.974667
C    -4.261645  0.463807  3.134964
C    -5.721645  -0.062282  3.128070
N    -6.262353  -0.354043  4.451919
C    -5.904506  -1.482554  5.189209
N    -5.749205  -2.643294  4.432448
N    -5.663204  -1.537188  6.458366
H    -3.743069  -0.447457  5.000906
H    -3.442264  -1.483039  3.627375
H    -3.914280  0.541230  2.091847
H    -4.245317  1.484631  3.550619
H    -5.780591  -0.966327  2.509509
H    -6.369002  0.681482  2.646474
H    -6.446048  0.460606  5.030091
H    -6.429940  -2.760979  3.685417
H    -5.726762  -3.459826  5.038930
H    -5.736865  -0.618466  6.904306
N    -1.403994  -1.474560  6.085226
C    -2.416402  -2.538630  5.990202
H    -0.807910  -1.522245  6.913723
H    -2.067908  -3.365439  6.615864
H    -2.515092  -2.898058  4.963082
H    -3.400205  -2.196862  6.361530
Ca    1.210177  1.679355  4.774882
