36
Energy: -39737.4078125 eV PBE+vdW (tier 2 basis)
C    -0.157077  1.893768  2.453869
C    -0.333243  0.830164  3.488549
O    0.172116  0.946982  4.637742
H    -0.473959  2.858162  2.871457
H    -0.710481  1.699403  1.529314
H    0.912087  1.986659  2.217759
N    -1.054862  -0.264303  3.166603
C    -1.287175  -1.363998  4.104557
C    -0.044917  -2.281241  4.161990
O    0.862136  -1.980291  4.988766
H    -1.427808  -0.335286  2.223365
H    -1.285171  -0.901331  5.094404
C    -2.662931  -2.020546  3.939965
C    -3.809909  -1.209850  4.574698
C    -3.808855  -1.106631  6.118241
N    -3.049992  0.025122  6.680749
C    -1.823489  -0.019530  7.237149
N    -1.164664  1.207013  7.487460
N    -1.057354  -1.062788  7.454165
H    -2.631132  -3.015387  4.409712
H    -2.890756  -2.195994  2.876163
H    -4.752161  -1.698769  4.291625
H    -3.860939  -0.199277  4.141405
H    -3.454817  -2.039875  6.577304
H    -4.842006  -0.982450  6.464661
H    -3.554724  0.904634  6.744482
H    -0.949499  1.333662  8.478036
H    -1.608386  2.042472  7.107980
H    -1.536674  -1.963291  7.418324
N    0.039397  -3.321211  3.343192
C    1.172868  -4.245269  3.269373
H    -0.744383  -3.499994  2.720752
H    0.826934  -5.268781  3.454849
H    1.909537  -3.963389  4.024766
H    1.629049  -4.194932  2.273369
Ca    0.864401  -0.226960  6.401263
