36
Energy: -39735.6152496 eV PBE+vdW (tier 2 basis)
C    0.040047  -1.215330  0.327308
C    0.078975  -0.170015  1.392265
O    1.045379  0.658817  1.438941
H    -0.810099  -1.898982  0.419190
H    0.974024  -1.791765  0.338139
H    -0.011219  -0.712114  -0.649330
N    -0.921412  -0.118001  2.277824
C    -1.190731  0.942099  3.265378
C    -0.281531  0.804198  4.509625
O    0.971833  1.056030  4.346245
H    -1.658850  -0.809972  2.166616
H    -0.844547  1.883894  2.809064
C    -2.716376  1.092110  3.483222
C    -3.618380  -0.158468  3.545094
C    -3.380742  -1.183064  4.660864
N    -3.354654  -0.523285  5.974172
C    -3.031078  -1.232656  7.182772
N    -2.304023  -2.399472  6.980199
N    -3.212187  -0.775097  8.359435
H    -3.085188  1.703515  2.648191
H    -2.861940  1.714237  4.376735
H    -3.619631  -0.694602  2.581034
H    -4.648715  0.220948  3.623524
H    -2.411189  -1.689050  4.529108
H    -4.160988  -1.959371  4.591384
H    -4.174937  0.062931  6.130350
H    -2.123469  -2.861342  7.870090
H    -2.670286  -3.054079  6.293766
H    -3.661857  0.143626  8.385282
N    -0.779674  0.503887  5.677488
C    0.001826  0.389036  6.909274
H    -1.812570  0.271938  5.764928
H    0.906459  0.999063  6.845859
H    0.270663  -0.662632  7.075500
H    -0.622436  0.717702  7.745744
Ca    2.380970  1.491488  2.856604
