36
Energy: -39733.7771418 eV PBE+vdW (tier 2 basis)
C    -0.787647  -1.297081  0.529976
C    -0.345566  -0.487761  1.700258
O    0.804373  -0.788931  2.260587
H    0.020668  -1.339983  -0.211789
H    -1.688818  -0.900819  0.054726
H    -0.986603  -2.328743  0.854483
N    -1.029943  0.498613  2.201528
C    -2.300568  1.107309  1.791041
C    -2.189974  2.497466  2.500291
O    -1.314986  2.617460  3.379655
H    -0.667610  1.114817  2.986298
H    -2.317631  1.238329  0.699506
C    -3.513739  0.258710  2.247294
C    -4.837659  0.626594  1.546995
C    -5.824167  1.456972  2.394135
N    -6.932596  1.973136  1.597759
C    -6.732431  2.880621  0.564182
N    -5.749210  3.859396  0.844212
N    -7.310250  2.902356  -0.580293
H    -3.607149  0.327252  3.341861
H    -3.275543  -0.791754  2.031242
H    -5.346110  -0.296584  1.237431
H    -4.631213  1.171936  0.612468
H    -5.311000  2.291040  2.890553
H    -6.250333  0.840541  3.196531
H    -7.683619  1.312650  1.418062
H    -5.744308  4.524133  0.069084
H    -5.952396  4.356436  1.713866
H    -7.957972  2.124629  -0.734801
N    -3.017391  3.469907  2.126638
C    -2.990751  4.786470  2.761629
H    -3.771993  3.313395  1.445097
H    -1.960637  5.051723  3.017405
H    -3.590478  4.798765  3.682431
H    -3.390664  5.522285  2.057299
Ca    2.574919  -1.194902  3.095235
