36
Energy: -39735.2923787 eV PBE+vdW (tier 2 basis)
C    -0.016176  0.050975  0.622457
C    -0.278442  0.003620  2.080488
O    0.665740  -0.203949  2.921153
H    0.930407  0.561999  0.411325
H    -0.849097  0.466229  0.030578
H    0.125332  -0.996109  0.300515
N    -1.532866  0.162653  2.565423
C    -2.409764  1.263058  2.157783
C    -1.742496  2.573558  2.622899
O    -0.729472  2.540168  3.417924
H    -1.624299  -0.101093  3.549080
H    -2.461905  1.293351  1.043242
C    -3.812952  1.082885  2.788351
C    -4.539477  -0.236606  2.466338
C    -5.163611  -0.359476  1.068025
N    -4.171418  -0.311739  -0.005269
C    -3.949557  0.777154  -0.822587
N    -5.078064  1.344337  -1.359976
N    -2.720858  1.202166  -0.960947
H    -4.443294  1.929972  2.486859
H    -3.707342  1.167457  3.883048
H    -5.349106  -0.349340  3.202335
H    -3.868672  -1.093849  2.640019
H    -5.884989  0.450921  0.899806
H    -5.726881  -1.302405  1.019306
H    -3.326315  -0.851218  0.151441
H    -4.951074  2.110140  -2.011593
H    -5.858055  0.732933  -1.581924
H    -2.616100  1.843006  -1.751989
N    -2.190232  3.741700  2.204562
C    -3.263191  4.019722  1.245136
H    -1.715399  4.550837  2.605753
H    -2.980513  4.907656  0.670234
H    -4.205696  4.225252  1.768004
H    -3.380998  3.178609  0.554080
Ca    0.974462  1.503497  4.179078
