36
Energy: -39735.2456195 eV PBE+vdW (tier 2 basis)
C    1.480975  -1.525017  2.923735
C    0.588059  -1.343667  4.105331
O    1.081869  -1.203815  5.274881
H    1.876746  -0.553416  2.588943
H    0.978430  -2.008300  2.080370
H    2.342362  -2.128263  3.236061
N    -0.752512  -1.310167  3.955647
C    -1.412030  -0.527889  2.910579
C    -1.137988  0.981082  3.206838
O    -0.423849  1.310452  4.234727
H    -1.271513  -1.354127  4.834701
H    -0.927376  -0.762502  1.951308
C    -2.929869  -0.835192  2.842804
C    -3.453858  -1.375656  1.503407
C    -3.085219  -0.602855  0.234323
N    -3.250055  0.879962  0.304076
C    -4.565615  1.397827  0.613107
N    -5.287337  1.792825  -0.477288
N    -4.859239  1.505860  1.859123
H    -3.500620  0.072154  3.084734
H    -3.162143  -1.578083  3.618873
H    -4.546777  -1.425795  1.597072
H    -3.116181  -2.411132  1.344934
H    -3.664547  -1.028214  -0.601067
H    -2.026145  -0.762826  -0.022562
H    -2.931015  1.274160  -0.583741
H    -5.093989  1.417286  -1.398200
H    -6.215583  2.179706  -0.347768
H    -5.818569  1.831009  2.008509
N    -1.669104  1.847199  2.392813
C    -1.615646  3.296583  2.536985
H    -2.283058  1.474598  1.587118
H    -1.242161  3.740515  1.606266
H    -0.961557  3.580862  3.364323
H    -2.632512  3.667292  2.719317
Ca    0.764387  0.836372  5.910948
