36
Energy: -39736.5481651 eV PBE+vdW (tier 2 basis)
C    -0.644520  -0.884470  -0.018477
C    -0.552614  -0.214027  1.319461
O    0.463821  0.607923  1.481646
H    -1.453345  -1.619365  -0.053400
H    0.302018  -1.389675  -0.250490
H    -0.802405  -0.129780  -0.801370
N    -1.456755  -0.452006  2.232634
C    -1.340442  0.287549  3.495940
C    -0.107440  -0.147402  4.300759
O    0.882173  0.660019  4.399679
H    -3.170108  -1.078978  1.804036
H    -1.143991  1.356578  3.287632
C    -2.672509  0.217557  4.260840
C    -3.770936  0.939309  3.462746
C    -5.175648  0.367848  3.643656
N    -5.330381  -1.090276  3.412350
C    -5.103312  -1.779449  2.274417
N    -5.929710  -2.797149  1.971453
N    -4.074175  -1.496613  1.471383
H    -2.561556  0.661366  5.259884
H    -2.954463  -0.832564  4.410717
H    -3.517134  0.942894  2.394170
H    -3.823443  1.997952  3.754689
H    -5.877873  0.910364  2.993335
H    -5.511688  0.516607  4.677445
H    -5.991572  -1.537031  4.039991
H    -5.666241  -3.507895  1.299185
H    -6.867933  -2.846146  2.350964
H    -4.060589  -1.923410  0.551849
N    -0.007089  -1.338703  4.875242
C    -0.929936  -2.472291  4.827289
H    0.858098  -1.475264  5.397287
H    -1.615780  -2.460789  5.683798
H    -0.338946  -3.393188  4.866924
H    -1.488918  -2.458624  3.887640
Ca    1.789979  1.590534  2.687161
