36
Energy: -39737.3928333 eV PBE+vdW (tier 2 basis)
C    0.716958  2.466025  1.133385
C    -0.180411  1.729385  2.076913
O    -0.682192  0.620527  1.747273
H    1.562727  1.819029  0.865397
H    1.099359  3.410349  1.534130
H    0.163101  2.667491  0.206318
N    -0.429609  2.299202  3.274857
C    -1.340915  1.812698  4.332859
C    -0.745878  0.552260  4.992016
O    -0.825039  -0.573774  4.423155
H    0.019205  3.194260  3.443867
H    -1.348511  2.609282  5.084716
C    -2.786797  1.634770  3.808012
C    -3.701156  0.737900  4.645285
C    -5.087303  0.541437  4.018261
N    -5.124856  0.230823  2.570844
C    -4.918142  -1.009716  2.029455
N    -5.825822  -1.421048  1.116772
N    -3.844635  -1.728974  2.355909
H    -2.761197  1.261505  2.774837
H    -3.218069  2.642788  3.723928
H    -3.860469  1.164884  5.647144
H    -3.245765  -0.247489  4.810982
H    -5.667906  1.466693  4.120384
H    -5.623545  -0.236827  4.579938
H    -5.807594  0.786415  2.065166
H    -5.638916  -2.211800  0.511646
H    -6.757579  -1.024302  1.074203
H    -4.015328  -2.706731  2.097765
N    -0.145406  0.658816  6.172403
C    0.074663  1.854095  6.993972
H    0.223369  -0.222029  6.530914
H    -0.874255  2.314148  7.295237
H    0.703117  2.587739  6.474556
H    0.600144  1.543848  7.901256
Ca    -1.576318  -1.251693  2.473777
