36
Energy: -39735.1008474 eV PBE+vdW (tier 2 basis)
C    -0.721559  -0.327661  -0.171901
C    -0.455840  -0.100513  1.277342
O    0.720849  0.181963  1.680703
H    -1.757914  -0.608705  -0.384894
H    -0.046597  -1.104705  -0.554080
H    -0.482641  0.597005  -0.717723
N    -1.469103  -0.184399  2.145200
C    -1.435667  0.187169  3.574746
C    -0.722187  -0.915832  4.387892
O    0.555484  -0.940457  4.400820
H    -2.386328  -0.408452  1.763015
H    -0.787233  1.072742  3.661827
C    -2.854660  0.558829  4.031450
C    -2.960927  1.184184  5.429604
C    -2.334450  2.591315  5.545684
N    -2.686635  3.289664  6.771948
C    -4.043566  3.520747  7.091449
N    -4.801851  3.926735  5.992400
N    -4.596975  3.369642  8.235674
H    -3.519843  -0.319589  3.946384
H    -3.244583  1.282716  3.297812
H    -2.541680  0.525294  6.206705
H    -4.031800  1.281866  5.656217
H    -2.651532  3.192408  4.679813
H    -1.233648  2.547945  5.507360
H    -2.153528  3.000905  7.586973
H    -5.749424  4.157610  6.283924
H    -4.389191  4.681471  5.447913
H    -3.975862  2.947947  8.931295
N    -1.441909  -1.804309  5.039769
C    -0.926735  -2.909087  5.849914
H    -2.453847  -1.695302  4.998325
H    -1.385447  -2.868291  6.844579
H    -1.184408  -3.865307  5.377711
H    0.157590  -2.819697  5.939849
Ca    2.146352  -0.206152  3.187620
