36
Energy: -39734.9593583 eV PBE+vdW (tier 2 basis)
C    -0.147077  0.063210  -0.085542
C    -0.125020  0.032962  1.404116
O    0.962921  0.228533  2.040765
H    0.182161  1.057743  -0.420244
H    -1.135028  -0.146445  -0.507908
H    0.579109  -0.660201  -0.479757
N    -1.264151  -0.189667  2.068543
C    -1.429539  -0.078774  3.529347
C    -0.763473  -1.284624  4.232475
O    0.454926  -1.137484  4.607585
H    -2.112669  -0.303750  1.517135
H    -0.811859  0.774552  3.851516
C    -2.882333  0.238561  3.919256
C    -3.314654  1.694836  3.689594
C    -3.465799  2.134554  2.210032
N    -4.382759  3.223281  2.001957
C    -5.768173  3.016774  2.112367
N    -6.485178  4.195541  2.093614
N    -6.380958  1.889318  2.239853
H    -2.991761  0.006045  4.988982
H    -3.574216  -0.434662  3.390072
H    -2.635016  2.381817  4.217842
H    -4.295214  1.809519  4.172318
H    -3.831325  1.283479  1.605056
H    -2.493675  2.428855  1.785165
H    -4.056910  4.146134  2.273484
H    -7.489245  4.046040  2.066478
H    -6.166869  4.928322  1.467470
H    -5.747565  1.097213  2.358293
N    -1.361937  -2.439449  4.459856
C    -2.704589  -2.913405  4.103839
H    -0.779013  -3.103967  4.971487
H    -2.676688  -4.007035  4.093786
H    -2.992190  -2.569730  3.106497
H    -3.446220  -2.587808  4.843101
Ca    2.150508  -0.186017  3.746314
