36
Energy: -39735.9323555 eV PBE+vdW (tier 2 basis)
C    0.067134  -0.700135  -0.010601
C    -0.008800  -0.464495  1.465098
O    1.057782  -0.527390  2.175218
H    -0.893559  -0.565044  -0.517963
H    0.415608  -1.726678  -0.192181
H    0.804555  -0.020525  -0.457670
N    -1.186440  -0.197707  2.010809
C    -1.534687  -0.073103  3.445395
C    -3.062538  0.120602  3.631607
O    -3.582486  -0.371162  4.618542
H    -1.989887  -0.240468  1.383377
H    -1.340366  -1.045732  3.919970
C    -0.746967  1.001180  4.219634
C    -0.724036  2.408928  3.612718
C    0.442147  3.251591  4.148124
N    1.716095  2.642677  3.749242
C    2.772882  2.321360  4.529066
N    2.962092  3.003486  5.672058
N    3.562720  1.304721  4.139093
H    0.284206  0.645862  4.355421
H    -1.189906  1.025202  5.225658
H    -1.660744  2.942545  3.824335
H    -0.639273  2.365356  2.513338
H    0.408849  3.290403  5.245152
H    0.377276  4.282409  3.772907
H    1.800381  2.369902  2.775894
H    2.545917  3.915842  5.820614
H    3.646231  2.696270  6.352866
H    4.483632  1.376460  4.581338
N    -3.731915  0.813939  2.664645
C    -5.173662  1.052220  2.783930
H    -3.215820  1.438724  2.052814
H    -5.573490  1.315862  1.800187
H    -5.392408  1.856500  3.499032
H    -5.653771  0.135551  3.139240
Ca    2.923091  -0.605636  3.152958
