36
Energy: -39735.7221302 eV PBE+vdW (tier 2 basis)
C    -2.234882  -0.457168  0.761740
C    -1.358840  -0.123193  1.925218
O    -0.524975  -0.998621  2.352461
H    -2.850243  0.386706  0.435304
H    -2.881566  -1.303090  1.035621
H    -1.612682  -0.796024  -0.076945
N    -1.480485  1.079937  2.473404
C    -0.855508  1.636949  3.693424
C    0.655465  1.835559  3.536238
O    1.442015  0.827134  3.467562
H    -2.256921  1.682056  2.103383
H    -1.317133  2.626976  3.774024
C    -1.154864  0.889713  5.013827
C    -2.630511  0.660671  5.388046
C    -3.550152  1.895484  5.590023
N    -4.348570  2.250853  4.410025
C    -3.826781  2.931680  3.328468
N    -3.078541  4.067852  3.644022
N    -3.918895  2.588688  2.076399
H    -0.664692  1.470529  5.811494
H    -0.657546  -0.093526  5.014122
H    -2.611769  0.098899  6.332994
H    -3.104230  -0.014365  4.658432
H    -2.976177  2.770478  5.921576
H    -4.256875  1.675494  6.399245
H    -4.985253  1.509187  4.128471
H    -2.999659  4.672620  2.828077
H    -3.426984  4.582695  4.450371
H    -4.484286  1.740190  1.972528
N    1.185400  3.046607  3.516903
C    0.567225  4.371993  3.575178
H    2.205562  3.042198  3.451812
H    0.964457  4.914157  4.441894
H    -0.519912  4.301517  3.662525
H    0.821067  4.926728  2.663563
Ca    1.408312  -1.253897  3.087041
