36
Energy: -39735.1135345 eV PBE+vdW (tier 2 basis)
C    -0.845375  -0.099517  -2.431028
C    -0.010187  -0.266563  -1.206695
O    1.226060  -0.574095  -1.332263
H    -1.207428  -1.073335  -2.794884
H    -0.197395  0.307687  -3.217781
H    -1.699508  0.562888  -2.275065
N    -0.487563  -0.058696  0.043357
C    -1.660331  -0.697725  0.670238
C    -1.252539  -2.147444  1.016730
O    -0.252376  -2.709760  0.426586
H    0.271817  0.063537  0.716048
H    -1.807610  -0.176762  1.639738
C    -3.000891  -0.600013  -0.086252
C    -3.620137  0.812294  -0.011838
C    -4.899736  0.924839  0.871125
N    -4.951970  0.003503  1.997967
C    -3.960686  -0.114626  2.933037
N    -3.933171  -1.365689  3.603891
N    -2.968059  0.683011  3.145401
H    -3.679160  -1.320149  0.390534
H    -2.896780  -0.946910  -1.120083
H    -3.901398  1.157216  -1.015582
H    -2.862030  1.524875  0.339955
H    -5.784304  0.700351  0.263878
H    -5.009944  1.969750  1.199477
H    -5.782245  -0.570756  2.082952
H    -3.518725  -1.252803  4.529949
H    -4.837788  -1.829765  3.682059
H    -3.096581  1.585461  2.682468
N    -1.929004  -2.766697  1.955110
C    -1.662688  -4.140457  2.381839
H    -2.674667  -2.251178  2.487491
H    -2.455519  -4.441700  3.071766
H    -0.698183  -4.207337  2.901760
H    -1.657995  -4.819291  1.521692
Ca    1.617042  -2.542809  -0.557113
