36
Energy: -39735.8717672 eV PBE+vdW (tier 2 basis)
C    0.291810  0.055269  -0.274149
C    0.037944  0.007092  1.197182
O    1.032803  -0.133381  1.986334
H    -0.527119  0.494790  -0.844652
H    0.508259  -0.950069  -0.664528
H    1.203278  0.649428  -0.423398
N    -1.194081  0.171859  1.738999
C    -2.403477  -0.640626  1.460971
C    -2.237187  -1.990446  2.220518
O    -0.999099  -2.403471  2.445717
H    -1.111584  0.343165  2.742950
H    -3.233195  -0.100672  1.932245
C    -2.730086  -0.836361  -0.032664
C    -4.068902  -1.535031  -0.319757
C    -5.336630  -0.678789  -0.297152
N    -5.674197  0.056089  0.949430
C    -6.297460  -0.493763  2.019781
N    -7.248378  0.219624  2.648233
N    -5.948726  -1.706242  2.443720
H    -1.939174  -1.436103  -0.502120
H    -2.716933  0.150319  -0.519751
H    -4.184962  -2.414507  0.325213
H    -4.019990  -1.933335  -1.343854
H    -6.190752  -1.316602  -0.567010
H    -5.265421  0.100696  -1.066430
H    -5.865377  1.043911  0.815976
H    -7.751295  0.961448  2.175166
H    -7.576413  -0.041979  3.570706
H    -6.536267  -2.154553  3.139194
N    -3.310965  -2.604341  2.567967
C    -3.207774  -3.901699  3.230744
H    -4.938154  -2.045278  2.380638
H    -4.146739  -4.451119  3.096476
H    -3.052388  -3.770681  4.312730
H    -2.384973  -4.514261  2.838019
Ca    0.968834  -2.091423  2.936950
