36
Energy: -39736.7524201 eV PBE+vdW (tier 2 basis)
C    -0.959750  2.760840  1.607689
C    -0.626404  1.525508  2.392559
O    0.233321  1.568036  3.306345
H    -0.036745  3.263984  1.295643
H    -1.482887  3.456374  2.281003
H    -1.597958  2.581882  0.735375
N    -1.277862  0.391119  2.036279
C    -1.549554  -0.875302  2.752043
C    -0.543940  -1.309771  3.814172
O    0.703749  -1.192736  3.665304
H    -1.965056  0.537061  1.299637
H    -2.509604  -0.716391  3.265683
C    -1.803840  -2.033271  1.736293
C    -0.655312  -2.906036  1.196168
C    0.360151  -2.322780  0.175597
N    1.713748  -2.182930  0.725868
C    2.337538  -1.073636  1.158487
N    1.797839  0.198821  0.848880
N    3.378230  -0.985952  1.953246
H    -2.379422  -1.607275  0.898604
H    -2.506710  -2.719235  2.229442
H    -1.152222  -3.754468  0.706436
H    -0.096972  -3.351489  2.032753
H    0.023107  -1.361616  -0.231907
H    0.431945  -2.994640  -0.688821
H    2.126418  -3.052958  1.054081
H    2.504538  0.773079  0.384987
H    0.945688  0.188713  0.293308
H    3.847503  -1.874386  2.140834
N    -1.029569  -1.933280  4.887339
C    -2.421714  -2.189174  5.273387
H    -0.309430  -2.295363  5.510843
H    -3.012211  -1.265312  5.267736
H    -2.419002  -2.578367  6.295336
H    -2.891342  -2.938508  4.624254
Ca    2.156410  0.446286  3.388618
