36
Energy: -39735.5439133 eV PBE+vdW (tier 2 basis)
C    0.048538  1.124128  0.241297
C    0.223538  0.356144  1.509120
O    1.276190  -0.342950  1.692300
H    0.858877  1.864335  0.170707
H    -0.913603  1.642491  0.178867
H    0.157481  0.451267  -0.619000
N    -0.730998  0.428415  2.437856
C    -0.687214  -0.067813  3.825807
C    -1.002782  -1.584478  3.850920
O    -0.082606  -2.342285  3.355817
H    -1.551270  0.993642  2.219795
H    0.370681  -0.045478  4.132234
C    -1.460853  0.908150  4.736114
C    -2.732665  1.511773  4.122439
C    -3.753029  1.958112  5.183184
N    -4.987532  2.420578  4.578874
C    -5.891189  1.505215  4.057987
N    -7.134638  2.028710  3.803185
N    -5.520372  0.271764  3.875875
H    -0.760409  1.710444  5.007084
H    -1.687012  0.393299  5.679587
H    -3.263037  0.787467  3.483309
H    -2.485838  2.388402  3.502685
H    -3.341714  2.783139  5.779276
H    -3.948572  1.118197  5.872277
H    -5.395706  3.244265  5.005349
H    -7.785955  1.467090  3.270009
H    -7.248786  3.029673  3.693463
H    -6.273791  -0.277140  3.457496
N    -2.070016  -2.171970  4.350808
C    -3.283964  -1.690043  5.027185
H    -2.005985  -3.188153  4.266340
H    -3.921776  -2.564709  5.181430
H    -3.862108  -0.952124  4.440549
H    -3.033037  -1.276863  6.010694
Ca    1.761901  -2.290463  2.341609
