36
Energy: -39736.4015855 eV PBE+vdW (tier 2 basis)
C    -0.015473  0.223525  -0.021514
C    -0.067480  0.009244  1.457672
O    0.973133  -0.402545  2.067190
H    -0.944581  0.623585  -0.439916
H    0.206816  -0.739822  -0.502603
H    0.813381  0.899526  -0.267745
N    -1.217235  0.256359  2.091451
C    -1.642824  -0.030435  3.480431
C    -0.951180  0.827849  4.547236
O    0.338448  0.898073  4.607849
H    -1.964570  0.596070  1.492546
H    -2.701183  0.251220  3.488934
C    -1.578419  -1.534410  3.841616
C    -2.348843  -1.868258  5.129182
C    -3.865970  -2.068666  4.979190
N    -4.612218  -1.073447  4.184591
C    -5.090764  0.110509  4.713396
N    -6.347500  0.455858  4.316976
N    -4.321826  0.853180  5.471150
H    -0.530226  -1.853827  3.940911
H    -1.988873  -2.097751  2.990635
H    -2.148609  -1.115705  5.903422
H    -1.958152  -2.812734  5.533560
H    -4.303405  -2.149168  5.985323
H    -4.043632  -3.027641  4.475625
H    -5.235046  -1.491544  3.501839
H    -6.718986  1.362684  4.573334
H    -7.035308  -0.255343  4.096895
H    -4.842040  1.619215  5.901408
N    -1.731931  1.385336  5.427270
C    -1.233264  2.128668  6.578434
H    -2.839186  1.150257  5.396965
H    -2.046347  2.221380  7.304802
H    -0.911519  3.134821  6.278698
H    -0.385475  1.614765  7.047189
Ca    2.076613  0.108872  3.793363
