36
Energy: -39737.2558776 eV PBE+vdW (tier 2 basis)
C    -1.114361  0.688356  0.255579
C    -1.172525  -0.159472  1.489117
O    -0.526058  -1.236922  1.551920
H    -1.751261  1.577849  0.298773
H    -1.403895  0.079132  -0.610755
H    -0.074393  1.001197  0.089216
N    -1.936630  0.280227  2.508734
C    -2.197090  -0.334771  3.828788
C    -0.882956  -0.526275  4.621323
O    -0.156045  -1.541744  4.423587
H    -2.407720  1.164703  2.345966
H    -2.800042  0.419999  4.346120
C    -2.997545  -1.654186  3.835011
C    -4.208737  -1.751756  2.883800
C    -4.038644  -2.792777  1.760615
N    -3.765667  -4.144953  2.254037
C    -2.532615  -4.673440  2.456087
N    -2.425607  -5.718100  3.311795
N    -1.420098  -4.186908  1.903697
H    -3.322908  -1.791457  4.875713
H    -2.315874  -2.489473  3.643103
H    -4.433420  -0.785115  2.409451
H    -5.104372  -2.007060  3.465377
H    -3.236272  -2.495842  1.073009
H    -4.952733  -2.838028  1.155646
H    -4.568351  -4.688371  2.557050
H    -1.658474  -6.365699  3.174250
H    -3.230727  -6.072347  3.815121
H    -1.672616  -3.660129  1.061717
N    -0.536431  0.380038  5.528292
C    -1.233963  1.613588  5.907839
H    0.329785  0.167972  6.023066
H    -1.384943  2.269104  5.042087
H    -0.604392  2.146638  6.625559
H    -2.194099  1.398519  6.393361
Ca    0.272990  -2.904628  2.725584
