36
Energy: -39736.5535374 eV PBE+vdW (tier 2 basis)
C    -0.274755  -0.491974  0.033392
C    -0.224903  -0.385593  1.519093
O    0.884823  -0.477317  2.140448
H    -0.141085  0.509084  -0.404788
H    -1.225462  -0.896897  -0.330633
H    0.550851  -1.122815  -0.310768
N    -1.333883  -0.187219  2.239249
C    -2.656720  0.241399  1.804189
C    -2.574961  1.602764  1.065159
O    -1.635356  2.398234  1.264014
H    -1.178377  -0.176916  3.244608
H    -3.053503  -0.501320  1.097586
C    -3.637787  0.274629  3.026521
C    -3.090766  0.523494  4.448380
C    -2.654774  1.941043  4.860127
N    -1.533456  2.504543  4.100161
C    -0.255779  2.128063  4.165523
N    0.602752  2.569729  3.093188
N    0.349890  1.331471  5.017753
H    -4.141864  -0.699696  3.055756
H    -4.423437  1.011812  2.811000
H    -2.308367  -0.209463  4.710800
H    -3.912129  0.262095  5.132227
H    -2.404051  1.949502  5.930142
H    -3.486858  2.645809  4.739984
H    -1.774267  3.038021  3.264592
H    0.046044  2.655823  2.224794
H    1.012758  3.483937  3.310636
H    -0.204723  1.050755  5.827770
N    -3.567502  1.884975  0.207966
C    -4.702915  1.051255  -0.193457
H    -3.481832  2.799803  -0.230989
H    -5.258172  1.588481  -0.967188
H    -5.390057  0.858162  0.639795
H    -4.372111  0.096508  -0.623319
Ca    2.018279  0.611922  3.607473
