36
Energy: -39736.8666854 eV PBE+vdW (tier 2 basis)
C    -1.576696  1.875222  1.271286
C    -1.262238  1.229902  2.589689
O    -0.196529  1.690517  3.207372
H    -1.600708  2.965749  1.394852
H    -2.536380  1.542066  0.865570
H    -0.783436  1.654768  0.543666
N    -2.039506  0.284202  3.045712
C    -1.803500  -0.247429  4.396089
C    -0.620944  -1.227164  4.404057
O    0.568011  -0.794815  4.573020
H    -3.858314  -0.527337  0.328429
H    -1.483834  0.569510  5.071116
C    -3.107276  -0.831302  4.971738
C    -4.254126  0.205045  5.032123
C    -5.352772  0.019512  3.981395
N    -4.786848  0.013714  2.630820
C    -5.492319  -0.170444  1.520856
N    -6.834676  -0.195219  1.541761
N    -4.851661  -0.341121  0.346543
H    -2.900474  -1.212144  5.980853
H    -3.438275  -1.696756  4.373004
H    -3.847023  1.223886  4.952778
H    -4.744874  0.151649  6.011766
H    -6.078645  0.841464  4.091579
H    -5.888274  -0.927698  4.160742
H    -3.736407  0.112988  2.580317
H    -7.373015  -0.416510  0.713718
H    -7.350958  0.082945  2.365813
H    -5.349355  -0.358137  -0.533873
N    -0.842648  -2.518179  4.217716
C    0.190732  -3.551752  4.171908
H    -1.807759  -2.809157  4.093357
H    -0.227992  -4.487457  4.554374
H    1.036402  -3.249672  4.795626
H    0.537386  -3.707894  3.141943
Ca    1.454503  1.135840  4.269999
