36
Energy: -39736.4633829 eV PBE+vdW (tier 2 basis)
C    -0.529397  -0.176253  -0.710295
C    -0.632997  -0.638410  0.702614
O    0.083988  -1.607876  1.124930
H    0.295985  0.547098  -0.793054
H    -1.443716  0.308029  -1.068623
H    -0.293476  -1.032626  -1.350741
N    -1.472799  -0.065433  1.566792
C    -2.211200  1.194018  1.484769
C    -1.307004  2.361457  1.012243
O    -0.111353  2.444557  1.349042
H    -1.481036  -0.508121  2.482053
H    -3.030704  1.077552  0.759210
C    -2.863829  1.502993  2.874506
C    -2.197391  0.996321  4.171639
C    -0.846272  1.584579  4.620747
N    0.290799  1.305737  3.741080
C    1.124916  0.271969  3.754000
N    0.886190  -0.872428  4.575579
N    2.160881  0.093096  2.950385
H    -3.875630  1.076996  2.858737
H    -2.999550  2.591540  2.939112
H    -2.152927  -0.109222  4.184685
H    -2.911067  1.226825  4.976895
H    -0.616036  1.236326  5.637366
H    -0.921137  2.678439  4.688697
H    0.311144  1.869480  2.858559
H    1.632506  -0.994735  5.265575
H    -0.009276  -0.874537  5.064289
H    2.431751  0.933179  2.435413
N    -1.926213  3.271101  0.249381
C    -1.305588  4.509717  -0.217902
H    -2.895453  3.108050  -0.007738
H    -1.872270  5.374486  0.147440
H    -1.287100  4.531557  -1.314091
H    -0.282985  4.553690  0.164664
Ca    1.733484  -2.051789  2.415367
