36
Energy: -39736.4354435 eV PBE+vdW (tier 2 basis)
C    1.079824  -0.647476  -0.000711
C    0.634356  -0.231401  1.360455
O    1.478920  0.259747  2.198403
H    1.556112  0.201526  -0.508714
H    0.256965  -1.022702  -0.616834
H    1.840656  -1.434376  0.097775
N    -0.630255  -0.374393  1.705247
C    -1.211229  -0.063024  3.004419
C    -2.649386  -0.659234  2.904225
O    -3.099337  -0.899337  1.784072
H    -1.353791  -0.736725  1.058373
H    -0.629766  -0.578932  3.786999
C    -1.224311  1.461424  3.272563
C    -1.246962  1.860264  4.755314
C    -0.605148  3.227916  4.999766
N    0.900204  3.130412  4.977098
C    1.638983  4.231915  4.392063
N    1.214892  5.481497  4.605677
N    2.662028  3.845189  3.678720
H    -2.074539  1.915170  2.743847
H    -0.330681  1.890141  2.789505
H    -0.727291  1.110127  5.376675
H    -2.279635  1.891585  5.128344
H    -0.935210  3.642373  5.962193
H    -0.912022  3.929022  4.212487
H    1.221802  3.018765  5.945311
H    0.467850  5.692016  5.258302
H    1.677046  6.276334  4.173453
H    3.243696  4.600356  3.309016
N    -3.320389  -0.822255  4.058137
C    -4.684342  -1.353090  4.105136
H    -2.819228  -0.728046  4.934516
H    -4.679041  -2.442684  4.238508
H    -5.185277  -1.115855  3.162525
H    -5.225749  -0.888245  4.935319
Ca    2.396371  1.552662  3.578797
