36
Energy: -39736.7112031 eV PBE+vdW (tier 2 basis)
C    2.534115  -2.051988  2.144246
C    1.547736  -1.076525  2.718011
O    1.710112  0.176863  2.347335
H    2.393650  -2.120355  1.056418
H    2.435381  -3.046361  2.587544
H    3.558026  -1.693837  2.310165
N    0.604759  -1.503318  3.513198
C    -0.403468  -0.548965  4.000449
C    0.179065  0.347120  5.101654
O    0.740182  1.453323  4.802476
H    0.081198  -3.311587  3.469153
H    -0.694273  0.153029  3.195328
C    -1.648910  -1.342497  4.422826
C    -2.258970  -2.071346  3.215308
C    -2.989687  -3.370998  3.547849
N    -2.236084  -4.363128  4.353834
C    -1.076549  -4.979796  4.042627
N    -0.917944  -6.262140  4.417985
N    -0.088149  -4.345891  3.406917
H    -2.391244  -0.680470  4.889904
H    -1.355914  -2.088617  5.181175
H    -1.479274  -2.273311  2.469223
H    -2.988052  -1.421643  2.710345
H    -3.328577  -3.847645  2.616102
H    -3.884601  -3.157710  4.145720
H    -2.808923  -4.872353  5.019468
H    -0.000011  -6.688652  4.461530
H    -1.714192  -6.860554  4.603537
H    0.679451  -4.905075  3.052233
N    0.110623  -0.050673  6.362033
C    0.658444  0.676854  7.505642
H    -0.340522  -0.942904  6.540707
H    0.034688  0.480077  8.382837
H    0.655109  1.748749  7.290423
H    1.685965  0.351799  7.715629
Ca    1.725952  2.102631  3.008135
