36
Energy: -39736.8471586 eV PBE+vdW (tier 2 basis)
C    -0.079561  -0.116293  2.079352
C    0.098782  1.167232  1.321368
O    1.292925  1.622837  1.144078
H    0.035082  -0.973208  1.398475
H    -1.058049  -0.201708  2.565804
H    0.715519  -0.198939  2.828227
N    -0.879795  1.892404  0.755669
C    -2.158060  1.305140  0.370287
C    -2.030144  0.949440  -1.138163
O    -1.007314  1.322005  -1.787272
H    -0.843677  3.406609  2.063390
H    -2.353388  0.354894  0.899944
C    -3.341558  2.268257  0.635293
C    -3.985252  2.134182  2.023247
C    -3.171117  2.588605  3.238943
N    -3.009605  4.047659  3.334866
C    -1.854495  4.725768  3.303498
N    -1.788421  5.944937  3.861500
N    -0.772135  4.207268  2.707824
H    -4.132536  2.091318  -0.106671
H    -2.996041  3.297901  0.452605
H    -4.261205  1.082398  2.197610
H    -4.938320  2.684321  2.019505
H    -2.173076  2.136443  3.268396
H    -3.685810  2.262939  4.153862
H    -3.833491  4.574666  3.611053
H    -1.031692  6.582380  3.644909
H    -2.477495  6.257163  4.535585
H    0.149737  4.547426  2.952685
N    -3.001809  0.246708  -1.704917
C    -3.042353  -0.164884  -3.108973
H    -3.778827  -0.043573  -1.117075
H    -3.949532  0.226562  -3.584026
H    -3.044995  -1.259414  -3.175760
H    -2.161803  0.230338  -3.619794
Ca    0.734383  2.328606  -0.867404
