36
Energy: -39737.4028459 eV PBE+vdW (tier 2 basis)
C    0.562786  -0.616813  0.660141
C    0.043015  0.574281  1.403248
O    0.673586  1.664767  1.384558
H    -0.062256  -1.509630  0.763516
H    1.575929  -0.843322  1.018197
H    0.651116  -0.362415  -0.404630
N    -1.104769  0.429029  2.090058
C    -1.826120  1.416318  2.921279
C    -2.343510  2.588203  2.047862
O    -1.567085  3.522832  1.704463
H    -1.528741  -0.492692  2.047164
H    -2.691039  0.855077  3.296086
C    -1.058897  1.997967  4.133446
C    0.070765  1.180755  4.760742
C    0.944940  2.066337  5.677384
N    1.468676  3.243409  4.980268
C    2.527261  3.299489  4.119749
N    3.606576  2.540714  4.407684
N    2.418196  4.075909  3.043697
H    -1.814299  2.242720  4.894950
H    -0.648180  2.968673  3.822689
H    0.718912  0.748260  3.985687
H    -0.320267  0.341531  5.352416
H    1.766860  1.468531  6.088242
H    0.369975  2.430806  6.538299
H    0.884238  4.070722  4.958850
H    4.379138  2.489593  3.755049
H    3.802326  2.260523  5.362393
H    3.342383  4.334791  2.684966
N    -3.623846  2.568277  1.701282
C    -4.287859  3.590242  0.890787
H    -4.188930  1.783217  2.013305
H    -5.300469  3.746318  1.276235
H    -4.347585  3.268685  -0.157002
H    -3.722636  4.523533  0.954088
Ca    0.650385  3.832871  1.566643
