36
Energy: -39737.0495944 eV PBE+vdW (tier 2 basis)
C    0.477288  0.747232  0.352658
C    0.085308  0.902497  1.784749
O    0.706410  1.687772  2.553702
H    -0.176035  0.069584  -0.206611
H    1.509246  0.373447  0.302394
H    0.474475  1.734318  -0.128382
N    -0.960147  0.184551  2.253857
C    -1.402972  0.338369  3.636182
C    -0.458137  -0.362680  4.638574
O    0.318836  0.387148  5.305484
H    -1.454191  -0.435074  1.617677
H    -1.221009  1.394574  3.857190
C    -2.898014  0.136229  3.912922
C    -3.841606  1.282086  3.455526
C    -3.287159  2.707830  3.278540
N    -2.388549  3.155169  4.353452
C    -1.530353  4.215182  4.254886
N    -1.894730  5.228255  3.441597
N    -0.366107  4.153380  4.898810
H    -2.982140  0.022235  5.004208
H    -3.265908  -0.812728  3.500476
H    -4.680463  1.307461  4.164010
H    -4.291884  1.027772  2.486734
H    -4.157680  3.374678  3.176146
H    -2.719624  2.782386  2.338329
H    -2.415225  2.698804  5.258265
H    -1.243561  5.975107  3.230468
H    -2.869756  5.402921  3.224334
H    0.020108  5.092369  5.037227
N    -0.435805  -1.676181  4.817829
C    -1.245431  -2.715768  4.181870
H    0.225165  -1.985656  5.531327
H    -2.169575  -2.897827  4.744981
H    -0.661043  -3.640908  4.160194
H    -1.488502  -2.449699  3.149355
Ca    1.084161  2.367315  4.645895
