36
Energy: -39737.2799327 eV PBE+vdW (tier 2 basis)
C    0.594172  -0.719022  1.110375
C    -0.428122  -0.232659  2.084827
O    -0.250126  0.832490  2.738210
H    0.789188  0.073053  0.375000
H    1.539164  -0.898049  1.641063
H    0.298118  -1.633405  0.586055
N    -1.555657  -0.956826  2.248013
C    -2.647623  -0.547353  3.137856
C    -2.285994  -0.868424  4.606292
O    -1.665631  0.009227  5.273643
H    -1.650085  -1.821417  1.721189
H    -2.635114  0.544514  3.103248
C    -4.027364  -1.024674  2.651222
C    -4.632445  -0.191027  1.502535
C    -5.248992  1.176154  1.868261
N    -4.275377  2.208478  2.249204
C    -3.764910  2.441942  3.481996
N    -4.406881  1.909898  4.562738
N    -2.610553  3.074817  3.693442
H    -4.716798  -1.012426  3.508132
H    -3.967429  -2.077279  2.328527
H    -5.443112  -0.781101  1.051486
H    -3.891921  -0.051511  0.698788
H    -6.004341  1.066661  2.658771
H    -5.795912  1.559613  0.997675
H    -3.730042  2.588432  1.481321
H    -4.216701  2.375552  5.443838
H    -5.371723  1.616629  4.457433
H    -2.316853  3.569777  2.845313
N    -2.611214  -2.050702  5.109372
C    -2.296475  -2.509344  6.463575
H    -3.121799  -2.695235  4.511221
H    -1.813263  -1.697197  7.010768
H    -1.622639  -3.373451  6.416338
H    -3.219709  -2.802488  6.976627
Ca    -0.796154  1.930236  4.574658
