36
Energy: -39735.6660753 eV PBE+vdW (tier 2 basis)
C    -1.913312  0.179675  0.642990
C    -1.309681  0.158609  2.004559
O    -0.048482  -0.019668  2.151047
H    -2.640180  0.994035  0.535238
H    -2.461778  -0.772145  0.493970
H    -1.133339  0.275714  -0.116462
N    -2.118042  0.301673  3.055828
C    -1.785978  0.083122  4.477087
C    -0.756509  1.102031  4.984220
O    0.497222  0.905070  4.842472
H    -3.146831  0.186304  2.866185
H    -2.726650  0.311218  4.992687
C    -1.408701  -1.388647  4.808366
C    -2.448578  -2.121481  5.674769
C    -3.875604  -2.222567  5.096492
N    -3.939412  -2.792191  3.757804
C    -4.092631  -2.114989  2.568537
N    -4.680202  -0.818013  2.672581
N    -3.739712  -2.491353  1.391591
H    -0.445416  -1.419859  5.338214
H    -1.274781  -1.931544  3.861953
H    -2.515571  -1.649810  6.668211
H    -2.067540  -3.137094  5.858471
H    -4.357681  -1.236804  5.080231
H    -4.480249  -2.832529  5.782908
H    -3.612771  -3.748171  3.659163
H    -5.022429  -0.571082  1.741979
H    -5.464112  -0.779941  3.325665
H    -3.269004  -3.399791  1.382671
N    -1.172296  2.195546  5.601736
C    -2.548539  2.633692  5.865180
H    -0.424262  2.803162  5.937659
H    -2.507288  3.663751  6.229947
H    -3.019110  2.014424  6.639286
H    -3.147900  2.619897  4.948368
Ca    1.686299  0.065150  3.291061
