36
Energy: -39737.5662726 eV PBE+vdW (tier 2 basis)
C    -0.144084  0.261995  0.259992
C    -0.194498  -0.058524  1.722996
O    0.869437  -0.095804  2.395228
H    0.509026  -0.467093  -0.238186
H    0.320622  1.248203  0.127622
H    -1.123128  0.260095  -0.229933
N    -1.405722  -0.300732  2.256372
C    -1.858197  -0.672252  3.619448
C    -1.371933  0.277672  4.727694
O    -0.159311  0.375204  5.060274
H    -2.169418  -0.238554  1.589284
H    -2.942338  -0.515476  3.543979
C    -1.731278  -2.176973  4.002738
C    -0.443214  -2.786087  4.579357
C    0.652156  -3.171433  3.570225
N    1.759838  -3.889977  4.179055
C    2.833804  -3.326888  4.785193
N    3.750541  -4.181803  5.293721
N    2.963483  -2.002455  4.869722
H    -2.054413  -2.749489  3.119139
H    -2.520212  -2.336386  4.752155
H    -0.748342  -3.714138  5.084830
H    -0.031604  -2.157811  5.383162
H    1.054128  -2.309000  3.020075
H    0.226839  -3.829514  2.799700
H    1.679132  -4.899053  4.223108
H    3.708110  -5.180081  5.130496
H    4.577753  -3.837279  5.762291
H    3.867781  -1.797613  5.304155
N    -2.313754  0.953499  5.378202
C    -2.046086  1.839866  6.512247
H    -3.276246  0.867187  5.066437
H    -1.620182  2.790715  6.167320
H    -1.343998  1.359843  7.201874
H    -2.988730  2.035916  7.030104
Ca    1.868038  -0.064778  4.324923
