36
Energy: -39736.3204573 eV PBE+vdW (tier 2 basis)
C    0.450273  0.986005  0.983934
C    0.131641  0.676841  2.407214
O    1.096351  0.595705  3.262209
H    1.066766  0.180062  0.561346
H    1.061591  1.897684  0.950036
H    -0.435412  1.122296  0.357883
N    -1.094264  0.472324  2.838244
C    -2.375516  0.383560  2.146322
C    -3.391156  0.555627  3.311821
O    -2.988212  0.332869  4.466701
H    -1.273308  0.321203  3.851169
H    -2.466902  1.201073  1.419406
C    -2.585056  -0.972033  1.424239
C    -2.755767  -2.228499  2.304644
C    -1.497778  -3.049631  2.631889
N    -0.519901  -2.441772  3.543144
C    -0.595568  -2.362344  4.890132
N    -1.634618  -2.943382  5.512673
N    0.365464  -1.699070  5.560827
H    -1.764097  -1.113606  0.704323
H    -3.488970  -0.859028  0.810782
H    -3.412366  -2.922242  1.760399
H    -3.297197  -1.978831  3.228807
H    -0.948111  -3.272290  1.708134
H    -1.799405  -4.033730  3.025054
H    0.384613  -2.213511  3.153286
H    -1.809366  -2.779556  6.495652
H    -2.298379  -3.528023  5.021583
H    0.288295  -1.924384  6.557165
N    -4.658499  0.884203  3.029539
C    -5.270927  1.194264  1.740297
H    -5.260876  0.923818  3.849870
H    -4.532475  1.594145  1.037815
H    -6.034182  1.965094  1.889540
H    -5.750610  0.311106  1.296950
Ca    1.826873  -0.059042  5.112459
