36
Energy: -39736.0207437 eV PBE+vdW (tier 2 basis)
C    -0.266652  0.846543  0.593160
C    -0.665639  -0.202089  1.412267
O    -0.967624  -1.359877  0.881678
H    -0.096903  1.862292  0.934946
H    0.122400  0.585549  -0.393426
H    2.744033  1.141552  1.074319
N    -0.933280  -0.114884  2.797340
C    -1.706341  0.960723  3.423417
C    -3.082308  1.173261  2.716255
O    -3.352951  0.659622  1.595258
H    -1.265079  -1.033791  3.089933
H    -1.959523  0.576547  4.425646
C    -0.923501  2.279229  3.633169
C    0.118705  2.260674  4.766022
C    1.187990  1.157469  4.723236
N    1.879765  1.037941  3.438785
C    2.974894  1.688917  3.036217
N    3.711301  2.413261  3.889409
N    3.329302  1.631631  1.740930
H    -1.634699  3.084804  3.862163
H    -0.453969  2.582848  2.689902
H    -0.388786  2.171513  5.739053
H    0.610947  3.244316  4.773212
H    0.749287  0.172090  4.917009
H    1.915747  1.314270  5.530832
H    1.397008  0.471056  2.744362
H    4.519381  2.933576  3.570641
H    3.573527  2.348932  4.889401
H    4.259773  1.892048  1.437292
N    -3.991929  1.891496  3.364883
C    -5.338777  2.159679  2.854537
H    -3.757165  2.255292  4.283170
H    -5.287610  2.716859  1.911778
H    -5.876561  2.757473  3.594703
H    -5.878963  1.219982  2.689196
Ca    -2.509479  -0.335848  -0.183282
