36
Energy: -39735.1049541 eV PBE+vdW (tier 2 basis)
C    -0.647139  0.353783  -0.603433
C    -0.311506  -0.204664  0.737963
O    0.881821  -0.570882  1.006339
H    -0.297375  1.394218  -0.688568
H    -1.716921  0.318542  -0.829288
H    -0.094309  -0.224159  -1.355638
N    -1.258601  -0.329369  1.692497
C    -2.201656  0.742307  2.011998
C    -1.376727  1.870125  2.726328
O    -0.094815  1.736060  2.816265
H    -0.959826  -0.880638  2.499210
H    -2.565641  1.161425  1.062227
C    -3.401159  0.218715  2.838139
C    -4.744699  0.848608  2.427614
C    -5.761178  0.964695  3.581994
N    -5.230008  1.579970  4.794173
C    -4.697220  2.843372  4.930928
N    -4.714973  3.631474  3.743974
N    -4.099449  3.351407  5.947423
H    -3.217456  0.402665  3.906940
H    -3.447963  -0.870248  2.704667
H    -5.207178  0.258851  1.623662
H    -4.573037  1.845628  1.998892
H    -6.106805  -0.035104  3.873460
H    -6.657601  1.491263  3.213204
H    -5.330391  1.059354  5.656366
H    -4.587419  4.606157  4.020921
H    -5.577482  3.552235  3.204431
H    -4.063489  2.722880  6.753389
N    -1.996397  2.909383  3.217447
C    -1.364156  3.996801  3.968536
H    -3.041305  3.015982  3.150186
H    -1.345990  4.907419  3.355716
H    -0.344963  3.723259  4.248165
H    -1.972536  4.172625  4.867018
Ca    1.751644  0.767568  2.457932
