36
Energy: -39735.2329744 eV PBE+vdW (tier 2 basis)
C    -0.569519  -0.210992  -0.025574
C    -0.273232  -0.188262  1.433079
O    0.888897  -0.481387  1.866819
H    -0.377304  -1.236401  -0.379089
H    0.123975  0.436953  -0.578225
H    -1.603178  0.051968  -0.263952
N    -1.234304  0.153059  2.323096
C    -2.037418  1.389039  2.188540
C    -1.039597  2.522804  1.840879
O    0.143923  2.480243  2.373752
H    -0.976939  -0.049298  3.291372
H    -2.755402  1.288573  1.366281
C    -2.773258  1.568468  3.542078
C    -3.716209  2.764575  3.748997
C    -5.133142  2.659876  3.150106
N    -5.179704  2.617885  1.684500
C    -4.506064  3.535462  0.916517
N    -4.436296  4.809112  1.409894
N    -3.825217  3.269570  -0.178359
H    -1.994164  1.622113  4.321386
H    -3.319844  0.627863  3.716947
H    -3.239167  3.696964  3.413484
H    -3.844006  2.877655  4.835413
H    -5.737974  3.498282  3.526886
H    -5.639904  1.754024  3.506910
H    -5.254229  1.695962  1.270092
H    -4.176113  5.508737  0.722643
H    -5.147662  5.113303  2.065573
H    -3.979705  2.311414  -0.501970
N    -1.392704  3.444068  0.990303
C    -0.533789  4.560455  0.604957
H    -2.366901  3.372487  0.475500
H    -1.065524  5.148861  -0.147771
H    0.409367  4.202782  0.171345
H    -0.307827  5.194428  1.471289
Ca    1.835583  1.272265  2.733955
