36
Energy: -39736.1326804 eV PBE+vdW (tier 2 basis)
C    -0.443631  0.039346  -0.211118
C    -0.146191  0.622759  1.126303
O    0.970658  1.141729  1.384588
H    0.033926  0.610923  -1.012839
H    -1.515317  -0.085471  -0.394122
H    0.002300  -0.969620  -0.221450
N    -1.115076  0.545712  2.114946
C    -2.288359  1.464351  1.954714
C    -1.559134  2.835681  1.945041
O    -0.934577  3.116862  3.058496
H    -0.682838  0.767201  3.018002
H    -2.768513  1.256331  0.991937
C    -3.274873  1.249825  3.099049
C    -4.520033  2.141729  3.006086
C    -5.534645  1.778786  4.100876
N    -6.793278  2.529118  4.020166
C    -7.158110  3.570434  4.779731
N    -8.439260  3.966979  4.790163
N    -6.262951  4.226369  5.530845
H    -2.754814  1.430841  4.052457
H    -3.567622  0.189368  3.088819
H    -5.001421  2.019720  2.023021
H    -4.240435  3.204326  3.086840
H    -5.111411  1.918237  5.105483
H    -5.797260  0.713919  4.031589
H    -7.476076  2.205934  3.341743
H    -8.709853  4.865211  5.172621
H    -9.181816  3.368392  4.448983
H    -5.268461  4.094505  5.405780
N    -1.207720  3.502758  0.868794
C    -1.816622  3.341904  -0.442957
H    -6.560460  4.854516  6.267598
H    -1.060689  3.048729  -1.184707
H    -2.220010  4.309894  -0.768293
H    -2.634192  2.607729  -0.476975
Ca    0.879860  3.385125  1.897311
