36
Energy: -39736.5309355 eV PBE+vdW (tier 2 basis)
C    0.278963  0.519385  0.032096
C    0.203491  0.292000  1.509647
O    1.287485  0.186977  2.194358
H    0.885504  1.410132  -0.179463
H    -0.706069  0.639009  -0.429338
H    0.783419  -0.339153  -0.433076
N    -0.983731  0.213273  2.072565
C    -1.363694  -0.204505  3.421560
C    -2.812400  -0.757340  3.181394
O    -3.388342  -0.433151  2.138599
H    -1.854438  0.230444  1.495016
H    -0.692178  -1.011310  3.753351
C    -1.396504  0.925428  4.476222
C    -0.025227  1.393916  4.998658
C    0.576103  2.575565  4.236139
N    2.061769  2.646401  4.489587
C    2.757982  3.651905  3.722517
N    2.774128  4.907721  4.181824
N    3.324982  3.176939  2.645889
H    -1.973223  0.545650  5.329742
H    -1.982164  1.768841  4.080738
H    0.673977  0.541523  4.975895
H    -0.122828  1.671982  6.058022
H    0.086745  3.515359  4.534440
H    0.441170  2.475553  3.152275
H    2.223515  2.783180  5.492384
H    3.296097  5.640148  3.708758
H    2.236507  5.187565  4.995007
H    3.771327  3.869772  2.041801
N    -3.332423  -1.528351  4.146373
C    -4.682644  -2.088899  4.086397
H    -2.752534  -1.778797  4.940353
H    -5.169313  -1.716859  3.181188
H    -5.259925  -1.778095  4.965062
H    -4.638523  -3.184066  4.049993
Ca    3.097047  0.909803  2.985298
