36
Energy: -39736.8934156 eV PBE+vdW (tier 2 basis)
C    0.797919  0.658061  1.775781
C    0.290900  1.600895  2.830717
O    1.064043  2.563136  3.215158
H    0.238041  -0.281866  1.724005
H    1.853642  0.444257  1.978847
H    0.761209  1.143343  0.789918
N    -0.917728  1.572721  3.394326
C    -2.082783  0.980272  2.780453
C    -2.990205  2.177611  2.371920
O    -2.660022  3.352635  2.698899
H    -0.428171  -3.564589  7.737441
H    -1.839756  0.433434  1.849483
C    -2.796738  0.000706  3.740894
C    -1.957589  -1.258282  3.994086
C    -2.665414  -2.351801  4.806574
N    -2.867009  -2.048960  6.231777
C    -2.116817  -2.503120  7.245670
N    -2.583846  -2.431185  8.501865
N    -0.900797  -3.019419  7.026158
H    -3.771316  -0.292263  3.319235
H    -3.001840  0.532984  4.683217
H    -1.005986  -0.979134  4.472267
H    -1.694810  -1.715949  3.027182
H    -2.111696  -3.297982  4.740258
H    -3.659554  -2.559010  4.386283
H    -3.698723  -1.527118  6.486726
H    -3.573380  -2.327817  8.691979
H    -1.977096  -2.588815  9.297842
H    -0.434571  -2.919051  6.134287
N    -4.090323  1.928307  1.666866
C    -5.026920  2.944226  1.186718
H    -4.266393  0.967025  1.390086
H    -6.052388  2.642166  1.426724
H    -4.932874  3.065843  0.100265
H    -4.800249  3.893361  1.677530
Ca    -0.680085  3.806537  3.689416
