36
Energy: -39735.7012448 eV PBE+vdW (tier 2 basis)
C    -0.038351  -0.314578  -0.170818
C    -0.129887  -0.122428  1.304694
O    0.887911  0.265049  1.969539
H    0.768100  -1.024556  -0.398032
H    0.240573  0.642852  -0.633638
H    -0.971336  -0.670290  -0.619401
N    -1.291858  -0.349988  1.924720
C    -1.558855  -0.061815  3.346624
C    -0.820586  -1.082248  4.242963
O    0.325862  -0.719831  4.710298
H    -2.084630  -0.636847  1.354255
H    -1.050433  0.888594  3.572297
C    -3.056951  0.157423  3.588894
C    -3.378138  0.467020  5.052244
C    -4.878807  0.686000  5.308143
N    -5.751467  -0.365535  4.789163
C    -5.889187  -1.579494  5.447056
N    -7.135428  -2.148525  5.324116
N    -4.852532  -2.104891  6.031725
H    -3.648780  -0.708793  3.263265
H    -3.356846  1.001335  2.947043
H    -2.849875  1.377955  5.376411
H    -3.048914  -0.356818  5.699470
H    -5.200914  1.621427  4.830907
H    -5.017816  0.807051  6.393849
H    -6.582657  -0.034832  4.313846
H    -7.284397  -3.047488  5.766415
H    -7.957035  -1.554312  5.295249
H    -5.118627  -2.929096  6.575329
N    -1.271809  -2.286368  4.518547
C    -2.514230  -2.956958  4.125187
H    -0.667419  -2.809039  5.154545
H    -2.347817  -4.033834  4.224703
H    -2.755164  -2.743810  3.079564
H    -3.351884  -2.648351  4.795868
Ca    1.951028  0.272067  3.805902
