36
Energy: -39733.7044507 eV PBE+vdW (tier 2 basis)
C    0.257196  0.543134  0.648981
C    -0.082189  0.455894  2.097881
O    0.756500  0.960341  2.962318
H    0.473308  1.587768  0.388617
H    -0.537269  0.169947  -0.002309
H    1.171914  -0.035257  0.456296
N    -1.175541  -0.098326  2.548762
C    -2.312290  -0.716402  1.854879
C    -3.422079  -0.616694  2.948727
O    -3.058560  -0.505043  4.127664
H    -1.403201  -0.110135  3.571995
H    -2.581110  -0.124518  0.968128
C    -1.984370  -2.177820  1.468124
C    -3.086467  -2.909155  0.692684
C    -2.594675  -4.272791  0.190552
N    -3.634699  -4.964836  -0.545517
C    -3.344796  -5.981198  -1.450116
N    -4.448184  -6.581740  -1.998433
N    -2.172501  -6.417724  -1.801929
H    -1.735267  -2.728557  2.387946
H    -1.068003  -2.158788  0.856875
H    -3.413519  -2.313736  -0.174824
H    -3.965908  -3.056932  1.337708
H    -2.219767  -4.872416  1.041126
H    -1.746722  -4.117971  -0.492533
H    -4.523872  -5.064074  -0.062570
H    -4.247395  -7.292233  -2.693896
H    -5.311335  -6.065059  -2.115814
H    -1.405178  -5.968538  -1.298579
N    -4.693175  -0.670736  2.533506
C    -5.841345  -0.633554  3.438226
H    -4.875401  -0.720553  1.536457
H    -6.430390  -1.553897  3.344108
H    -6.478433  0.227469  3.204109
H    -5.471086  -0.544657  4.462668
Ca    2.044597  1.792785  4.277182
