36
Energy: -39734.6044146 eV PBE+vdW (tier 2 basis)
C    0.601876  1.793957  1.471804
C    -0.069246  0.503014  1.724142
O    0.170339  -0.517071  0.981804
H    -0.112162  2.620931  1.362658
H    1.218095  1.722224  0.571583
H    1.251092  2.080423  2.343545
N    -0.944365  0.322807  2.748888
C    -2.050371  1.220654  3.100692
C    -2.987943  1.310082  1.859677
O    -2.784523  0.571494  0.835537
H    -1.129839  -0.661378  2.937286
H    -2.617383  0.673221  3.870381
C    -1.644067  2.580953  3.713001
C    -0.590511  2.429039  4.815728
C    0.194030  3.729262  5.099366
N    1.472977  3.479330  5.749905
C    2.449323  2.697114  5.127706
N    2.588843  2.959511  3.738747
N    3.209536  1.809551  5.646883
H    -2.547696  3.057470  4.123820
H    -1.278045  3.256678  2.927118
H    0.142017  1.667825  4.513378
H    -1.054607  2.053776  5.739761
H    -0.381829  4.413375  5.735737
H    0.367728  4.265573  4.154329
H    1.413789  3.310328  6.750066
H    3.455168  2.513874  3.433165
H    2.631517  3.959625  3.535240
H    2.989758  1.615257  6.627516
N    -4.009839  2.140503  1.901555
C    -5.012499  2.291710  0.840883
H    -4.115387  2.714727  2.734509
H    -5.763259  3.010538  1.178266
H    -5.499221  1.330699  0.638665
H    -4.543424  2.665655  -0.076811
Ca    -1.563649  -0.871358  -0.211558
