36
Energy: -39736.6279433 eV PBE+vdW (tier 2 basis)
C    -0.081823  -0.116762  2.236161
C    -1.179185  0.374267  3.148234
O    -0.886582  1.348764  3.945299
H    -0.391551  -0.135454  1.184995
H    0.218721  -1.140055  2.505974
H    0.789519  0.535582  2.340900
N    -2.407975  -0.135962  3.285828
C    -2.751341  -1.528591  2.989530
C    -2.095076  -2.367369  4.122697
O    -1.907824  -1.807308  5.243874
H    -3.727118  3.614001  -1.255867
H    -3.829148  -1.609790  3.226457
C    -2.621396  -2.069562  1.550897
C    -3.577206  -1.422245  0.531002
C    -3.220800  -0.002248  0.078051
N    -4.139775  0.406402  -0.993657
C    -4.310277  1.653599  -1.452016
N    -5.286588  1.913769  -2.333636
N    -3.526522  2.649896  -1.018501
H    -2.902813  -3.134040  1.566382
H    -1.586039  -2.033590  1.188993
H    -4.601401  -1.423145  0.935605
H    -3.590215  -2.071880  -0.358732
H    -2.182767  0.023151  -0.293927
H    -3.310316  0.705356  0.914097
H    -4.603324  -0.337457  -1.507162
H    -5.315192  2.785835  -2.848262
H    -6.012356  1.237026  -2.535685
H    -2.655379  2.463692  -0.539479
N    -1.781052  -3.643156  3.940953
C    -1.239442  -4.500396  4.999712
H    -1.936102  -4.055550  3.027918
H    -0.309417  -4.075695  5.394351
H    -1.036539  -5.487321  4.576395
H    -1.960842  -4.597445  5.819578
Ca    -2.117096  0.418595  5.492363
