36
Energy: -39735.270205 eV PBE+vdW (tier 2 basis)
C    1.579000  -0.357423  0.676461
C    0.759810  0.039047  1.862551
O    1.082771  1.077028  2.531825
H    1.479017  0.430439  -0.085152
H    1.278213  -1.313002  0.234838
H    2.640758  -0.399392  0.949802
N    -0.292081  -0.718287  2.180609
C    -1.439476  -0.500969  3.084736
C    -1.154974  0.182448  4.413851
O    -0.002818  0.113770  4.988184
H    -0.431688  -1.520178  1.568757
H    -2.154969  0.132232  2.538020
C    -2.132209  -1.872317  3.331611
C    -1.297430  -2.954051  4.062988
C    -1.812345  -3.359669  5.456728
N    -1.747736  -2.295941  6.446378
C    -2.820434  -1.514612  6.826144
N    -2.457958  -0.436397  7.673124
N    -4.038499  -1.556571  6.416989
H    -2.446791  -2.235779  2.341534
H    -3.066694  -1.669320  3.868853
H    -0.246652  -2.638400  4.155287
H    -1.280300  -3.863869  3.446752
H    -1.217807  -4.208848  5.818739
H    -2.844434  -3.732270  5.386750
H    -0.913361  -2.261920  7.019730
H    -3.289226  -0.105193  8.163979
H    -1.729436  -0.656908  8.351225
H    -4.241211  -2.363938  5.824724
N    -2.143664  0.803274  5.030669
C    -3.523873  1.045422  4.600100
H    -1.998304  0.887837  6.054096
H    -4.176135  0.270056  5.033312
H    -3.829591  2.023399  4.987628
H    -3.608711  1.062182  3.510156
Ca    1.587929  1.418689  4.549939
