36
Energy: -39736.6987562 eV PBE+vdW (tier 2 basis)
C    -0.886954  1.838343  0.710289
C    -0.691462  1.151784  2.031866
O    0.516130  0.671226  2.244417
H    -0.214133  2.704061  0.640255
H    -1.916394  2.182652  0.577509
H    -0.613105  1.158481  -0.107730
N    -1.703181  1.077242  2.850705
C    -1.656097  0.347801  4.128109
C    -0.568758  0.817645  5.103914
O    0.622311  0.363864  5.097252
H    -4.809571  2.183913  1.689643
H    -2.606639  0.600142  4.627780
C    -1.662018  -1.190239  3.952854
C    -3.030799  -1.783426  3.566974
C    -3.555917  -1.569021  2.139147
N    -3.920065  -0.179513  1.862491
C    -4.924413  0.222241  1.088074
N    -5.667251  -0.636377  0.370798
N    -5.211997  1.537168  1.024322
H    -1.368889  -1.652059  4.907147
H    -0.903042  -1.484325  3.210159
H    -3.793818  -1.439507  4.282580
H    -2.964979  -2.872418  3.702309
H    -4.448727  -2.198966  2.026282
H    -2.811626  -1.916197  1.402411
H    -3.198958  0.531571  2.165604
H    -5.378657  -1.594922  0.230362
H    -6.537761  -0.347572  -0.057902
H    -5.841037  1.910108  0.325232
N    -0.929451  1.727227  5.999452
C    -0.049569  2.305398  7.013334
H    -1.888121  2.061499  5.961440
H    -0.648539  2.574715  7.888386
H    0.446290  3.206993  6.629762
H    0.705484  1.569445  7.303429
Ca    1.968328  -0.006226  3.487715
