36
Energy: -39736.3874384 eV PBE+vdW (tier 2 basis)
C    1.372800  0.174523  2.039181
C    0.084953  0.837636  2.451097
O    0.019092  1.189938  3.723522
H    1.637912  -0.632352  2.735053
H    1.323874  -0.237561  1.026876
H    2.188662  0.909414  2.094002
N    -0.841066  1.013564  1.556543
C    -2.057613  1.784856  1.768703
C    -2.871280  1.580535  3.051939
O    -2.776968  0.538345  3.787508
H    1.184592  1.034310  -1.183334
H    -1.782627  2.853894  1.765581
C    -3.001277  1.552286  0.545591
C    -3.235128  0.064327  0.201765
C    -2.524288  -0.396127  -1.075878
N    -1.094006  -0.094407  -0.992556
C    -0.242312  -0.191082  -2.006315
N    -0.583163  -0.810921  -3.147871
N    0.994605  0.335309  -1.889045
H    -2.549271  2.077638  -0.307263
H    -3.962391  2.049580  0.719038
H    -4.305983  -0.124220  0.056717
H    -2.923809  -0.578447  1.037917
H    -2.956835  0.117659  -1.950120
H    -2.687955  -1.478198  -1.205335
H    -0.786439  0.320131  -0.068996
H    -1.421905  -1.372929  -3.209198
H    0.018014  -0.789220  -3.961908
H    1.700526  0.187054  -2.598565
N    -3.754633  2.513905  3.409640
C    -4.078205  3.795134  2.780702
H    -4.329640  2.251299  4.209559
H    -3.204868  4.214665  2.272996
H    -4.390420  4.493236  3.564052
H    -4.899015  3.688045  2.059745
Ca    -1.129659  0.228021  5.115079
