36
Energy: -39734.6404471 eV PBE+vdW (tier 2 basis)
C    -0.213785  1.548358  0.215798
C    -0.475518  0.326245  1.025400
O    0.467810  -0.233940  1.679871
H    0.032282  2.402384  0.864153
H    -1.040384  1.816711  -0.447458
H    0.684904  1.355122  -0.388100
N    -1.713450  -0.207699  1.095301
C    -2.925399  0.582047  1.324926
C    -2.741334  1.323622  2.673682
O    -1.793654  0.996753  3.472334
H    -1.752473  -1.156957  1.472762
H    -3.043242  1.322573  0.519524
C    -4.139960  -0.373938  1.340148
C    -5.510674  0.262126  1.092948
C    -6.635439  -0.802513  0.973138
N    -6.411964  -1.809700  -0.049871
C    -5.500120  -2.860819  0.099901
N    -5.474124  -3.410660  1.385923
N    -4.696036  -3.321998  -0.793255
H    -4.146726  -0.950562  2.278912
H    -3.946135  -1.099741  0.535247
H    -5.479705  0.854854  0.163652
H    -5.803535  0.946416  1.907903
H    -7.578569  -0.285670  0.752492
H    -6.771515  -1.295772  1.943524
H    -6.485987  -1.477787  -1.006893
H    -4.943616  -4.279306  1.373186
H    -6.394912  -3.555479  1.796080
H    -4.735909  -2.787358  -1.665639
N    -3.595181  2.276498  2.986262
C    -3.599203  3.022841  4.249619
H    -4.329718  2.485149  2.312855
H    -4.399564  3.765644  4.206711
H    -2.641232  3.536491  4.389896
H    -3.779008  2.346087  5.093267
Ca    0.080740  -0.012691  3.784249
