36
Energy: -39737.5109707 eV PBE+vdW (tier 2 basis)
C    0.282858  1.410527  0.327534
C    0.233445  0.784406  1.688496
O    1.301951  0.565865  2.317608
H    -0.700834  1.571912  -0.125070
H    0.878212  0.763480  -0.331214
H    0.810849  2.370818  0.392428
N    -0.986134  0.480362  2.174762
C    -1.437597  -0.216301  3.401956
C    -1.043066  0.495904  4.702182
O    0.154444  0.791065  4.976537
H    -1.748721  0.718389  1.547704
H    -2.527934  -0.129829  3.329972
C    -1.182629  -1.748909  3.414954
C    0.236873  -2.328486  3.547992
C    0.735650  -2.515889  4.993558
N    2.019142  -3.192938  5.072098
C    3.232507  -2.594673  5.156640
N    4.285526  -3.412033  5.386741
N    3.366177  -1.275150  5.018903
H    -1.618654  -2.114263  2.474620
H    -1.823053  -2.166099  4.209505
H    0.960669  -1.756511  2.952125
H    0.216562  -3.325012  3.083422
H    0.009468  -3.124344  5.551771
H    0.815119  -1.570355  5.547425
H    2.004709  -4.206029  5.042305
H    4.169353  -4.380264  5.658938
H    5.233896  -3.064144  5.339450
H    4.326704  -1.026503  5.273142
N    -2.003045  0.761795  5.584685
C    -3.448440  0.529145  5.485070
H    -1.665586  1.197824  6.442406
H    -3.906872  0.873083  6.416311
H    -3.678102  -0.536897  5.369053
H    -3.889742  1.102906  4.660568
Ca    2.227297  0.575145  4.287422
