36
Energy: -39736.8929455 eV PBE+vdW (tier 2 basis)
C    0.412025  -0.335841  1.474029
C    0.089595  0.433312  2.710646
O    0.995197  0.874916  3.474415
H    0.598450  0.361345  0.641723
H    -0.387027  -1.024211  1.179415
H    1.343224  -0.889546  1.638386
N    -1.200707  0.707824  3.036853
C    -2.243684  1.098305  2.101034
C    -1.756963  2.382194  1.378705
O    -0.881507  3.109155  1.935186
H    -1.338849  1.117391  3.971651
H    -2.420500  0.291327  1.375619
C    -3.556549  1.424365  2.875033
C    -3.830719  0.560586  4.128497
C    -3.605436  1.305052  5.457504
N    -2.223642  1.811533  5.606530
C    -1.894908  3.123110  5.932517
N    -2.834833  3.890531  6.513270
N    -0.685297  3.550314  5.602331
H    -4.385695  1.326271  2.164286
H    -3.534472  2.487325  3.161570
H    -3.245459  -0.369894  4.106601
H    -4.881418  0.241583  4.123494
H    -3.862660  0.651217  6.301933
H    -4.286509  2.164194  5.488198
H    -1.553703  1.145919  5.988545
H    -2.679165  4.883357  6.647491
H    -3.613183  3.483363  7.019657
H    -0.456733  4.406736  6.116414
N    -2.315110  2.683871  0.216647
C    -2.048904  3.888010  -0.572225
H    -2.994504  2.026965  -0.160830
H    -2.973766  4.465200  -0.689873
H    -1.675019  3.604711  -1.563175
H    -1.301329  4.494312  -0.056615
Ca    0.535386  3.057444  3.684937
