36
Energy: -39737.3588453 eV PBE+vdW (tier 2 basis)
C    0.329289  -0.817782  0.783311
C    -0.167081  -0.721841  2.192516
O    0.329715  -1.447891  3.094458
H    -0.166077  -0.128904  0.091423
H    0.183543  -1.847456  0.429100
H    1.410362  -0.626452  0.769830
N    -1.157931  0.161503  2.441097
C    -1.880995  0.397294  3.709252
C    -0.927376  0.995659  4.767697
O    -0.067982  0.286382  5.354608
H    -1.479840  0.698296  1.641329
H    -2.627908  1.165222  3.466835
C    -2.621559  -0.872574  4.181782
C    -3.217660  -0.801670  5.594721
C    -3.577829  -2.189932  6.184418
N    -2.575063  -3.236504  5.923229
C    -1.260097  -3.158486  6.220364
N    -0.828554  -2.224310  7.186253
N    -0.260798  -3.772910  5.630079
H    -1.919252  -1.712245  4.112920
H    -3.406046  -1.085745  3.441746
H    -4.132512  -0.192899  5.607254
H    -2.514374  -0.288959  6.267668
H    -4.510875  -2.562851  5.746999
H    -3.766830  -2.106127  7.264648
H    -2.800427  -3.876758  5.167515
H    -0.254677  -2.683628  7.895816
H    -1.555543  -1.672170  7.636198
H    -0.537279  -4.511714  4.979964
N    -1.070015  2.292378  5.026713
C    -0.254598  3.052791  5.973262
H    -1.778959  2.805957  4.510757
H    -0.903331  3.712784  6.558936
H    0.484076  3.661444  5.436046
H    0.262930  2.358346  6.639305
Ca    0.862174  -1.735550  5.211035
