36
Energy: -39734.7165137 eV PBE+vdW (tier 2 basis)
C    -0.753115  0.943173  -0.527621
C    -0.159070  0.296663  0.658379
O    1.113627  0.329528  0.829407
H    -0.051905  1.703887  -0.888876
H    -1.722266  1.393810  -0.296050
H    -0.929188  0.250114  -1.383432
N    -0.895495  -0.294342  1.646907
C    -1.843032  -1.413347  1.511876
C    -0.990913  -2.709814  1.372164
O    0.231754  -2.656776  1.004590
H    -0.333891  -0.390029  2.494642
H    -2.381818  -1.468060  2.471101
C    -2.866584  -1.327042  0.366969
C    -3.936971  -0.237737  0.521007
C    -4.808337  -0.078828  -0.746501
N    -4.093108  0.436107  -1.908832
C    -3.209653  -0.280587  -2.698817
N    -3.468526  -1.645807  -2.792925
N    -2.160643  0.190874  -3.300142
H    -3.369187  -2.303644  0.308633
H    -2.339874  -1.240905  -0.590096
H    -3.480774  0.733911  0.763091
H    -4.594883  -0.482903  1.369702
H    -5.627177  0.617579  -0.526160
H    -5.288810  -1.035043  -0.994983
H    -3.952175  1.440194  -1.930292
H    -2.927707  -2.054461  -3.551428
H    -4.452210  -1.894804  -2.862100
H    -2.060567  1.199448  -3.153064
N    -1.567168  -3.864717  1.639805
C    -0.919194  -5.175399  1.518423
H    -2.536062  -3.849289  1.950096
H    -0.528028  -5.312076  0.503997
H    -1.664565  -5.947739  1.723739
H    -0.101663  -5.266281  2.243737
Ca    2.055197  -1.571498  0.680674
