36
Energy: -39736.3091285 eV PBE+vdW (tier 2 basis)
C    0.041025  0.785183  0.015526
C    -0.028392  0.354179  1.441444
O    1.051016  -0.013596  2.044817
H    -0.906248  1.177282  -0.364579
H    0.369704  -0.049772  -0.618532
H    0.809628  1.565920  -0.068489
N    -1.154605  0.332777  2.126375
C    -2.549933  0.262084  1.693368
C    -3.313721  0.239355  3.048581
O    -2.677744  -0.099077  4.060760
H    -1.138701  0.116019  3.145262
H    -2.818286  1.141925  1.094374
C    -2.830267  -1.031310  0.882768
C    -2.597290  -2.374872  1.600555
C    -1.145212  -2.656987  2.014014
N    -0.952047  -4.044358  2.396042
C    0.143834  -4.510813  3.033485
N    0.152800  -5.819687  3.361319
N    1.170208  -3.694617  3.321889
H    -2.235976  -0.995765  -0.042738
H    -3.878876  -0.999189  0.557359
H    -2.918673  -3.160596  0.898831
H    -3.243042  -2.459168  2.486383
H    -0.892392  -2.037123  2.888286
H    -0.465441  -2.397918  1.179758
H    -1.655211  -4.713685  2.101573
H    0.965575  -6.249832  3.782914
H    -0.653269  -6.417230  3.223597
H    1.847494  -4.234293  3.871288
N    -4.620621  0.531387  3.066374
C    -5.488610  0.964784  1.974907
H    -5.044447  0.440482  3.988212
H    -4.914662  1.464305  1.187854
H    -6.211626  1.688912  2.364892
H    -6.041592  0.121703  1.538606
Ca    1.990275  -1.601248  3.058534
