36
Energy: -39735.1452583 eV PBE+vdW (tier 2 basis)
C    0.296445  -0.301141  2.424227
C    -0.467769  0.048208  3.648306
O    0.123475  0.217438  4.772298
H    1.028758  0.485680  2.190410
H    -0.340277  -0.515192  1.552635
H    0.890984  -1.196748  2.664260
N    -1.809937  0.206694  3.611985
C    -2.484100  0.999002  2.580815
C    -2.022982  2.458201  2.757874
O    -1.336051  2.795107  3.795748
H    -2.245399  0.260410  4.535234
H    -2.149429  0.613007  1.596017
C    -4.014460  0.812027  2.703582
C    -4.467808  -0.636828  2.439388
C    -4.975219  -0.963704  1.011468
N    -4.307309  -0.280451  -0.091439
C    -2.974019  -0.424947  -0.398132
N    -2.526581  0.378508  -1.438686
N    -2.093433  -1.097062  0.284736
H    -4.518118  1.501160  2.015084
H    -4.316526  1.120663  3.717300
H    -5.297764  -0.872615  3.118666
H    -3.661350  -1.325802  2.727781
H    -6.029030  -0.669118  0.938829
H    -4.951341  -2.058016  0.880238
H    -4.922102  0.041981  -0.831165
H    -1.652326  0.047083  -1.837293
H    -3.201846  0.640817  -2.150843
H    -2.546896  -1.717920  0.957682
N    -2.301201  3.378260  1.853352
C    -2.987129  3.232815  0.566357
H    -1.979004  4.315829  2.093450
H    -2.755402  2.267955  0.098791
H    -2.627872  4.029260  -0.092621
H    -4.071512  3.343982  0.689030
Ca    -0.013842  2.265747  5.388507
