36
Energy: -39735.0835891 eV PBE+vdW (tier 2 basis)
C    -0.961622  -0.513790  -0.509351
C    -0.847891  -0.722693  0.964244
O    0.212499  -1.227760  1.451799
H    -1.900019  -0.040066  -0.814936
H    -0.874416  -1.490689  -1.006747
H    -0.117020  0.095156  -0.858105
N    -1.882248  -0.368425  1.738732
C    -2.107688  -0.610833  3.181665
C    -1.182677  0.223738  4.075315
O    0.071362  -0.013623  4.107716
H    -2.675243  0.027016  1.241140
H    -3.134354  -0.268135  3.349823
C    -2.043567  -2.099423  3.593112
C    -3.076784  -2.999411  2.911899
C    -4.550530  -2.684707  3.289235
N    -5.438333  -3.811635  3.171870
C    -5.320151  -4.900173  4.049083
N    -6.037967  -6.005092  3.636809
N    -4.612338  -4.954437  5.126879
H    -2.187878  -2.136127  4.685299
H    -1.032873  -2.502641  3.407718
H    -2.866063  -4.029504  3.232814
H    -2.951842  -2.985341  1.818415
H    -4.957540  -1.876177  2.663665
H    -4.593490  -2.322116  4.331667
H    -5.755238  -4.038321  2.234182
H    -6.061547  -6.739650  4.337873
H    -6.940448  -5.837994  3.202730
H    -4.070901  -4.104342  5.291180
N    -1.690660  1.150129  4.869148
C    -3.089210  1.578669  5.013951
H    -1.007278  1.605340  5.476123
H    -3.105433  2.439022  5.688474
H    -3.703019  0.783871  5.455630
H    -3.507893  1.894895  4.051842
Ca    1.514699  -1.212446  3.111299
