36
Energy: -39736.176924 eV PBE+vdW (tier 2 basis)
C    0.355664  -1.390092  1.475208
C    0.451415  0.081904  1.715197
O    1.444582  0.740216  1.258985
H    0.150503  -1.602287  0.415792
H    -0.398493  -1.882795  2.094909
H    1.341607  -1.822487  1.694175
N    -0.503554  0.722279  2.423599
C    -1.931541  0.549457  2.091619
C    -2.247436  1.532279  0.920256
O    -1.244856  1.750618  0.078404
H    -0.244121  1.681872  2.658202
H    -2.030189  -0.460421  1.666531
C    -2.855541  0.632151  3.306074
C    -2.946166  2.008996  4.001997
C    -4.388687  2.425568  4.302271
N    -5.144836  2.478863  3.049083
C    -6.458390  2.659844  2.960377
N    -7.189592  3.002931  4.032789
N    -7.071032  2.495075  1.772002
H    -2.530357  -0.133739  4.022274
H    -3.849121  0.313373  2.963731
H    -2.490497  2.797129  3.382869
H    -2.394068  2.001976  4.949720
H    -4.385335  3.410509  4.796077
H    -4.857490  1.701663  4.989325
H    -4.591290  2.282955  2.174069
H    -8.200255  3.041304  3.993462
H    -6.751002  3.287734  4.898355
H    -8.039770  2.750673  1.632480
N    -3.424066  2.040241  0.830407
C    -3.719000  2.903707  -0.310307
H    -6.586835  2.051792  1.002845
H    -3.914127  2.304775  -1.212630
H    -2.898429  3.597990  -0.542334
H    -4.616666  3.496730  -0.096488
Ca    0.741772  1.959883  -0.405445
