36
Energy: -39734.411465 eV PBE+vdW (tier 2 basis)
C    0.462579  -0.830965  0.365069
C    -0.175680  -0.173638  1.540909
O    0.473346  -0.105029  2.641963
H    1.540403  -0.632251  0.421673
H    0.069503  -0.477304  -0.590121
H    0.339585  -1.924281  0.417174
N    -1.407591  0.391379  1.500679
C    -2.649287  -0.257927  1.044426
C    -3.021889  -1.308273  2.118426
O    -2.131316  -1.734690  2.942850
H    -1.563570  0.998175  2.307463
H    -3.414224  0.532954  1.065963
C    -2.638123  -0.844156  -0.383943
C    -2.445317  0.230045  -1.456351
C    -2.425320  -0.346849  -2.888885
N    -2.282922  0.685349  -3.901336
C    -3.264242  1.682535  -4.042441
N    -4.557434  1.172949  -4.154666
N    -2.882609  2.908148  -4.016318
H    -3.608572  -1.335692  -0.540561
H    -1.893452  -1.648440  -0.463976
H    -1.519503  0.800959  -1.284470
H    -3.263387  0.964527  -1.390228
H    -3.348807  -0.914434  -3.069486
H    -1.593095  -1.056350  -3.009865
H    -1.368239  1.133908  -3.913326
H    -5.260344  1.872432  -4.373164
H    -4.645782  0.352490  -4.750795
H    -3.627008  3.559992  -4.280696
N    -4.256023  -1.773384  2.204877
C    -5.445758  -1.412337  1.427764
H    -4.389104  -2.493197  2.916222
H    -6.305412  -1.392170  2.106041
H    -5.632057  -2.156577  0.643097
H    -5.337417  -0.422735  0.975688
Ca    -0.351912  -1.445075  4.098568
