36
Energy: -39736.9156339 eV PBE+vdW (tier 2 basis)
C    -0.234166  0.548595  0.935380
C    -0.527048  0.903689  2.355842
O    0.379300  0.910981  3.236072
H    0.066123  1.450087  0.377874
H    -1.090728  0.094936  0.425229
H    0.620395  -0.136501  0.916087
N    -1.781175  1.278885  2.730709
C    -2.684570  2.082129  1.918388
C    -1.965472  3.411166  1.574306
O    -0.987005  3.787073  2.290761
H    -1.982678  1.263807  3.748436
H    -2.938572  1.547137  0.992517
C    -3.986809  2.364081  2.702407
C    -3.829828  3.188503  4.001966
C    -3.838176  2.418285  5.323343
N    -2.743068  1.413248  5.537489
C    -1.703799  1.745351  6.411507
N    -1.589489  1.001073  7.525573
N    -0.884529  2.728437  6.080115
H    -4.465482  1.394585  2.905462
H    -4.670126  2.889186  2.023837
H    -4.682132  3.879415  4.071615
H    -2.948502  3.845580  3.957501
H    -4.778923  1.859080  5.410879
H    -3.818837  3.139634  6.151002
H    -3.127214  0.493386  5.746311
H    -0.771277  1.067270  8.121941
H    -2.350587  0.423382  7.865430
H    -0.344507  3.027469  6.898708
N    -2.380937  4.160669  0.563401
C    -3.473844  3.923879  -0.381684
H    -1.872250  5.039246  0.457909
H    -4.372079  4.479441  -0.082811
H    -3.712475  2.858955  -0.450020
H    -3.160189  4.269874  -1.372128
Ca    0.177262  3.005317  4.022938
