36
Energy: -39735.9030275 eV PBE+vdW (tier 2 basis)
C    -0.573193  -1.557204  0.924273
C    -0.211751  -0.395454  1.792129
O    1.009476  -0.106676  2.009358
H    -0.607591  -1.241633  -0.130664
H    -1.544171  -1.991100  1.183974
H    0.209489  -2.318626  1.012849
N    -1.182461  0.371604  2.335133
C    -2.317797  0.854654  1.536796
C    -1.778818  1.722083  0.346040
O    -0.481298  1.991725  0.352202
H    -0.820617  1.068331  2.988668
H    -2.813838  -0.018387  1.091453
C    -3.302032  1.618507  2.440313
C    -4.271374  0.753537  3.262487
C    -5.410668  0.072403  2.481224
N    -6.291174  1.016935  1.777803
C    -5.991564  1.599542  0.603548
N    -6.486934  2.809485  0.305531
N    -5.192061  1.004452  -0.300487
H    -3.851483  2.331780  1.813828
H    -2.720020  2.249517  3.131166
H    -4.717137  1.387618  4.042682
H    -3.722832  -0.035725  3.799768
H    -6.042565  -0.494575  3.174832
H    -5.028454  -0.668177  1.766174
H    -7.075011  1.392295  2.304576
H    -6.534146  3.100172  -0.664631
H    -6.955228  3.385170  0.995457
H    -5.062496  0.005529  -0.179731
N    -2.621630  2.083601  -0.551330
C    -2.160702  2.895019  -1.674988
H    -4.301277  1.510164  -0.582956
H    -2.008393  3.939733  -1.364995
H    -2.920122  2.883784  -2.463628
H    -1.213822  2.527396  -2.096237
Ca    1.485012  1.694956  0.863424
