36
Energy: -39735.1546757 eV PBE+vdW (tier 2 basis)
C    -0.368049  0.188455  -0.340795
C    -0.550820  0.406253  1.127470
O    0.385723  0.951155  1.801967
H    -0.307162  1.175155  -0.824426
H    -1.180232  -0.379781  -0.805707
H    0.587369  -0.315769  -0.531847
N    -1.701369  0.011912  1.679053
C    -2.367259  0.301960  2.967770
C    -1.501641  0.242596  4.225821
O    -0.338657  -0.305350  4.247094
H    -2.344327  -0.424154  1.020939
H    -2.750545  1.334487  2.902388
C    -3.584314  -0.650093  3.091944
C    -3.260005  -2.147369  3.213241
C    -4.445200  -2.974169  3.772625
N    -4.632603  -2.850019  5.214916
C    -5.071294  -1.688608  5.845292
N    -6.087876  -1.010869  5.177792
N    -4.605442  -1.186853  6.942277
H    -4.231897  -0.465875  2.219168
H    -4.186818  -0.323725  3.946831
H    -2.395492  -2.305956  3.878426
H    -2.974522  -2.565382  2.234741
H    -4.271133  -4.036092  3.558759
H    -5.373436  -2.710351  3.247730
H    -3.945729  -3.356431  5.765420
H    -6.530441  -0.325391  5.785005
H    -6.776777  -1.603611  4.721346
H    -3.819504  -1.733121  7.305497
N    -1.977801  0.760713  5.345054
C    -3.241581  1.441278  5.648314
H    -1.379179  0.592161  6.154612
H    -3.730705  1.795035  4.737571
H    -3.016441  2.302909  6.286851
H    -3.899258  0.738219  6.196794
Ca    1.517066  0.291935  3.450915
