36
Energy: -39735.9008981 eV PBE+vdW (tier 2 basis)
C    -3.031480  -0.432430  -0.388953
C    -1.668047  -0.369395  0.219927
O    -0.628610  -0.421911  -0.513984
H    -3.358493  0.578873  -0.678614
H    -3.777287  -0.851099  0.294319
H    -2.981645  -1.035899  -1.301846
N    -1.532313  -0.229156  1.556713
C    -2.314447  0.762953  2.308803
C    -2.074812  2.185617  1.706602
O    -1.079684  2.298336  0.837290
H    -0.562932  -0.304124  1.869456
H    -3.381460  0.540374  2.175706
C    -1.938720  0.701801  3.803167
C    -2.731000  -0.279007  4.682757
C    -4.261182  -0.095519  4.683198
N    -4.616604  1.330165  4.632084
C    -5.674244  1.846367  3.978584
N    -6.845047  1.191253  3.987224
N    -5.493544  2.989194  3.314021
H    -2.014934  1.723955  4.197130
H    -0.868228  0.459796  3.895824
H    -2.352910  -0.174417  5.709391
H    -2.526678  -1.318982  4.392814
H    -4.676547  -0.574567  5.580824
H    -4.719861  -0.587622  3.812502
H    -3.864193  1.993803  4.782376
H    -7.612650  1.489997  3.397306
H    -7.063079  0.539622  4.732730
H    -6.280556  3.552244  3.011973
N    -2.851826  3.128000  2.101275
C    -2.611930  4.483348  1.605023
H    -4.538343  3.157658  2.918546
H    -1.542322  4.725441  1.540376
H    -3.091780  5.204655  2.276053
H    -3.050888  4.614953  0.603787
Ca    0.233109  1.590125  -0.574128
