36
Energy: -39736.1201923 eV PBE+vdW (tier 2 basis)
C    0.204170  0.744279  0.311305
C    0.066417  0.035622  1.623820
O    0.951212  -0.835154  1.967853
H    1.168758  1.268468  0.268426
H    -0.596982  1.468624  0.134786
H    0.192616  0.003067  -0.499741
N    -0.960499  0.342616  2.388777
C    -1.498424  -0.304432  3.588054
C    -3.034888  -0.303879  3.272386
O    -3.455887  0.518123  2.453061
H    -1.729615  0.919913  1.984688
H    -1.103280  -1.327390  3.666342
C    -1.270289  0.489173  4.900876
C    0.082184  0.330824  5.612273
C    1.215826  1.202954  5.047397
N    2.533658  0.937037  5.634541
C    3.356409  -0.031971  5.182664
N    4.663861  0.008422  5.507223
N    2.903965  -1.005693  4.376183
H    -2.048494  0.156094  5.601076
H    -1.491261  1.550269  4.708189
H    0.366178  -0.735369  5.620973
H    -0.052120  0.592609  6.671470
H    0.990722  2.261512  5.229241
H    1.309554  1.085613  3.958773
H    2.854068  1.543634  6.382790
H    5.200417  -0.850085  5.489293
H    5.062192  0.788081  6.017673
H    1.888409  -1.055837  4.520785
N    -3.804823  -1.168555  3.945243
C    -5.260807  -1.202700  3.781471
H    -3.375269  -1.833534  4.578071
H    -5.526347  -1.470388  2.751758
H    -5.692233  -0.221471  4.010323
H    -5.670248  -1.948610  4.467741
Ca    2.833952  -1.710785  2.288672
