36
Energy: -39735.5824273 eV PBE+vdW (tier 2 basis)
C    -1.473503  -0.364764  -0.842841
C    -1.113918  -0.759783  0.553292
O    -1.162627  -1.979900  0.916174
H    -0.717418  0.301199  -1.274482
H    -2.431694  0.179471  -0.849020
H    -1.574326  -1.260145  -1.462032
N    -0.760251  0.182812  1.455746
C    -1.528502  1.440220  1.633590
C    -3.047632  1.082936  1.674118
O    -3.316975  -0.148315  2.097046
H    -0.416107  -0.219076  2.326401
H    -1.270198  1.749166  2.658715
C    -1.115282  2.584666  0.685732
C    -1.026920  3.939029  1.414664
C    -1.023094  5.186096  0.491877
N    -2.182242  6.070014  0.721946
C    -3.439684  5.609156  0.746132
N    -4.381905  6.210455  1.481746
N    -3.780665  4.512434  0.032359
H    -1.822668  2.632401  -0.151572
H    -0.134153  2.338263  0.258840
H    -0.117334  3.949360  2.030791
H    -1.865270  4.030560  2.119178
H    -0.972824  4.900993  -0.570291
H    -0.139077  5.806567  0.670958
H    -2.000829  7.015867  1.044643
H    -5.358902  6.051892  1.261600
H    -4.158494  6.923448  2.166670
H    -3.131178  4.291463  -0.716493
N    -3.932633  1.952902  1.341653
C    -5.337596  1.566756  1.487569
H    -4.043660  3.645285  0.558801
H    -5.585360  0.688028  0.872711
H    -5.979353  2.393317  1.163549
H    -5.585123  1.324876  2.531532
Ca    -2.943607  -2.166106  2.176744
