36
Energy: -39734.7650615 eV PBE+vdW (tier 2 basis)
C    0.456946  1.387422  1.045601
C    -0.232651  0.278671  1.762088
O    0.145061  -0.078831  2.926458
H    0.365398  2.305258  1.644168
H    0.053645  1.572093  0.044826
H    1.529602  1.163238  0.971046
N    -1.264992  -0.342771  1.178269
C    -2.091448  -1.345581  1.861872
C    -1.289371  -2.649409  2.104595
O    -0.890285  -2.844779  3.309594
H    -1.570008  -0.018102  0.262632
H    -2.222007  -0.975789  2.889952
C    -3.529350  -1.420722  1.299326
C    -3.786028  -1.597897  -0.201020
C    -5.206865  -1.145851  -0.570671
N    -5.439399  -1.347575  -1.994670
C    -6.755757  -1.232433  -2.503405
N    -7.680203  -2.040066  -1.856011
N    -6.939082  -0.402956  -3.463117
H    -3.996529  -0.475215  1.619581
H    -4.050230  -2.207167  1.865041
H    -3.669010  -2.641517  -0.515115
H    -3.077188  -1.006494  -0.810822
H    -5.346838  -0.088760  -0.265657
H    -5.943158  -1.732407  -0.005186
H    -4.869284  -0.729609  -2.574018
H    -8.615908  -2.022573  -2.247822
H    -7.370394  -2.979357  -1.622530
H    -7.876133  -0.458494  -3.871293
N    -0.964324  -3.538273  1.184157
C    -1.143239  -3.545706  -0.267815
H    -0.462883  -4.342851  1.565605
H    -1.944817  -4.237595  -0.552418
H    -0.206535  -3.887206  -0.722949
H    -1.373059  -2.547106  -0.640025
Ca    0.224600  -1.485147  4.525154
