36
Energy: -39737.4261294 eV PBE+vdW (tier 2 basis)
C    -0.765107  2.689516  1.793248
C    -0.883576  1.264904  2.233327
O    -0.215621  0.360160  1.665093
H    -1.055158  2.756008  0.735667
H    0.287365  2.996455  1.854950
H    -1.377973  3.384392  2.376435
N    -1.729635  0.992889  3.251362
C    -2.070423  -0.338979  3.794642
C    -0.843399  -0.933011  4.517561
O    0.038485  -1.569750  3.873061
H    -2.234503  1.784248  3.638600
H    -2.847974  -0.153742  4.544813
C    -2.653695  -1.262642  2.706009
C    -2.807527  -2.744854  3.070194
C    -2.990577  -3.611200  1.796464
N    -2.079413  -4.746764  1.694575
C    -0.938368  -4.766410  0.962261
N    -0.522320  -5.981704  0.537341
N    -0.263155  -3.643189  0.693340
H    -2.044700  -1.176120  1.792876
H    -3.625014  -0.837681  2.414675
H    -3.654998  -2.885252  3.754032
H    -1.920322  -3.112679  3.602130
H    -2.846570  -2.998064  0.896376
H    -4.010571  -4.009528  1.744358
H    -2.424055  -5.642843  2.021576
H    0.415015  -6.115660  0.180652
H    -1.145894  -6.779231  0.498065
H    0.339282  -3.832868  -0.115038
N    -0.722422  -0.767874  5.829848
C    -1.612600  -0.053825  6.751208
H    0.121259  -1.180901  6.227088
H    -1.688723  1.008911  6.490783
H    -2.610149  -0.509140  6.778540
H    -1.183473  -0.124516  7.754327
Ca    0.510510  -1.728054  1.731562
