36
Energy: -39735.2806022 eV PBE+vdW (tier 2 basis)
C    -2.658911  1.637035  -0.725183
C    -1.823462  1.296750  0.453789
O    -1.071762  2.174596  1.008841
H    -3.517172  0.965144  -0.851771
H    -2.022680  1.496025  -1.616076
H    -2.962680  2.688024  -0.704711
N    -1.822478  0.045287  0.958978
C    -3.036589  -0.718582  1.233096
C    -3.802724  0.026634  2.334455
O    -3.258351  1.011380  2.964995
H    -1.051336  -0.139333  1.604135
H    -3.684417  -0.753896  0.315646
C    -2.690441  -2.186622  1.615353
C    -3.079050  -3.242377  0.572671
C    -2.292821  -3.270186  -0.738865
N    -2.297566  -2.046754  -1.569462
C    -3.446076  -1.493258  -2.113993
N    -3.318422  -1.090113  -3.422215
N    -4.482453  -1.271222  -1.350823
H    -3.183823  -2.442549  2.563148
H    -1.610114  -2.241334  1.827639
H    -4.150706  -3.174434  0.352596
H    -2.926172  -4.228944  1.035197
H    -2.663561  -4.127220  -1.325004
H    -1.233715  -3.468628  -0.523231
H    -1.506015  -2.023408  -2.205513
H    -2.750851  -1.642424  -4.057465
H    -4.120280  -0.649782  -3.859660
H    -5.286746  -0.949754  -1.894151
N    -5.039734  -0.323116  2.630918
C    -5.862676  -1.353150  1.987449
H    -5.460746  0.186931  3.407376
H    -6.902908  -1.012613  1.999216
H    -5.795437  -2.300134  2.537894
H    -5.548959  -1.497888  0.947447
Ca    -1.771790  2.534979  3.010269
