36
Energy: -39734.778238 eV PBE+vdW (tier 2 basis)
C    0.458009  0.378245  2.231228
C    -0.099252  -0.681977  3.118557
O    0.697170  -1.528369  3.653364
H    -0.160399  1.277743  2.201995
H    0.576751  -0.000968  1.204119
H    1.462072  0.625653  2.597280
N    -1.417748  -0.780050  3.412603
C    -2.520177  -0.827225  2.432069
C    -2.417881  -2.191532  1.697890
O    -1.330984  -2.883979  1.774757
H    -1.574380  -1.411874  4.200122
H    -3.441611  -0.843537  3.034610
C    -2.651224  0.335791  1.438621
C    -2.980708  1.700887  2.065219
C    -3.756327  2.616729  1.091224
N    -5.136287  2.209803  0.893812
C    -5.562099  1.231462  0.016226
N    -6.841051  0.764911  0.251080
N    -4.860331  0.649966  -0.912318
H    -3.475427  0.061530  0.767036
H    -1.771436  0.396141  0.783600
H    -2.067866  2.220602  2.395146
H    -3.596985  1.564058  2.967070
H    -3.233408  2.688435  0.124183
H    -3.768786  3.635898  1.496215
H    -5.837860  2.719602  1.417510
H    -7.295634  0.383155  -0.572263
H    -7.457161  1.302875  0.850043
H    -3.986529  1.146214  -1.097158
N    -3.435887  -2.655262  1.003442
C    -4.773594  -2.084349  0.799935
H    -3.248234  -3.534376  0.519847
H    -5.458542  -2.912832  0.597436
H    -4.781222  -1.372646  -0.050728
H    -5.115194  -1.561026  1.699457
Ca    0.473194  -3.457920  2.734539
