36
Energy: -39737.0650032 eV PBE+vdW (tier 2 basis)
C    0.624060  -0.175929  0.310864
C    0.545890  -0.011800  1.791732
O    1.575439  -0.061810  2.518967
H    -0.284792  -0.612905  -0.116661
H    1.489644  -0.804296  0.074616
H    0.799376  0.802526  -0.164257
N    -0.655419  0.229706  2.394091
C    -1.670134  1.128066  1.861068
C    -1.043953  2.549968  1.742271
O    0.026396  2.830637  2.359204
H    -0.627394  0.159195  3.416415
H    -1.941914  0.805438  0.845043
C    -2.959682  1.081926  2.728778
C    -2.776893  1.014019  4.252928
C    -2.134198  2.245503  4.921414
N    -1.629402  1.969050  6.261172
C    -0.533238  1.220773  6.529417
N    -0.411874  0.744514  7.787072
N    0.377244  0.969446  5.578070
H    -3.520774  0.190386  2.419339
H    -3.588609  1.942552  2.458705
H    -2.206196  0.112860  4.526640
H    -3.770071  0.849163  4.693031
H    -2.866839  3.056509  5.016341
H    -1.318523  2.661126  4.317792
H    -2.224190  2.222393  7.042054
H    0.467264  0.368212  8.118742
H    -1.159893  0.816782  8.466657
H    0.979336  0.209816  5.913135
N    -1.672497  3.424593  0.972105
C    -1.262380  4.811102  0.741782
H    -2.508632  3.107280  0.485893
H    -2.064348  5.490670  1.053598
H    -1.059582  4.963311  -0.325024
H    -0.359094  5.017372  1.319499
Ca    1.467685  1.818848  3.738982
