36
Energy: -39736.4407507 eV PBE+vdW (tier 2 basis)
C    0.432280  0.931259  0.916517
C    -0.019361  -0.402401  1.413877
O    0.821817  -1.374387  1.495245
H    1.270798  1.292977  1.526516
H    -0.368527  1.676940  0.925398
H    0.803276  0.820078  -0.112051
N    -1.274872  -0.566076  1.769591
C    -1.974784  -1.809991  2.079770
C    -3.430604  -1.487434  1.590028
O    -3.736026  -0.300681  1.446127
H    -1.988031  0.178234  1.611045
H    -1.534384  -2.628341  1.489432
C    -2.009613  -2.177963  3.577934
C    -0.699670  -2.595104  4.271115
C    0.167501  -1.442756  4.813405
N    1.131553  -1.862707  5.823025
C    2.422552  -2.207450  5.620295
N    3.193834  -2.341605  6.719668
N    2.905484  -2.407819  4.386443
H    -2.716224  -3.013581  3.675218
H    -2.467079  -1.342659  4.130698
H    -0.118505  -3.271508  3.610691
H    -0.967274  -3.226684  5.130429
H    -0.490481  -0.704110  5.291310
H    0.704783  -0.896045  4.026839
H    0.802719  -1.868459  6.782479
H    4.118214  -2.749447  6.663951
H    2.883125  -2.046730  7.637731
H    3.925119  -2.485277  4.453989
N    -4.249513  -2.530112  1.392211
C    -5.646992  -2.386557  0.982065
H    -3.883121  -3.470140  1.498245
H    -6.309165  -2.844824  1.726178
H    -5.807609  -2.865818  0.009038
H    -5.873507  -1.320274  0.901943
Ca    2.217384  -2.707171  2.270226
