36
Energy: -39736.1874501 eV PBE+vdW (tier 2 basis)
C    0.072037  -1.390321  -0.172103
C    -0.058013  -0.619927  1.103624
O    0.535925  0.521047  1.226397
H    -0.293559  -0.782968  -1.011348
H    -0.483017  -2.333368  -0.153442
H    1.132599  -1.610000  -0.356755
N    -0.775811  -1.129987  2.077655
C    -1.058395  -0.587448  3.408718
C    -1.706910  -1.814251  4.122741
O    -2.285639  -2.631753  3.401444
H    -1.303322  -2.016311  1.955302
H    -0.114075  -0.271627  3.873210
C    -2.066919  0.584706  3.290041
C    -2.305977  1.454621  4.527868
C    -1.076100  2.198676  5.080097
N    -0.197955  2.774539  4.055721
C    -0.447949  3.819471  3.235417
N    -1.485571  4.626146  3.520690
N    0.334357  3.979848  2.154913
H    -3.027685  0.161890  2.964573
H    -1.723193  1.226890  2.466556
H    -2.736616  0.867273  5.351009
H    -3.084444  2.181397  4.256037
H    -0.435136  1.525281  5.659577
H    -1.393193  2.971735  5.797197
H    0.735940  2.392986  3.986819
H    -1.758327  5.363701  2.882940
H    -1.914745  4.635783  4.438641
H    0.267750  4.942387  1.811879
N    -1.661273  -1.932127  5.463214
C    -0.878895  -1.195186  6.445316
H    -2.175917  -2.744151  5.800875
H    0.006133  -0.744156  5.982819
H    -0.521338  -1.894105  7.209519
H    -1.469595  -0.416637  6.948359
Ca    1.269741  2.433749  0.817613
