36
Energy: -39737.0536273 eV PBE+vdW (tier 2 basis)
C    -0.452243  1.922344  0.277310
C    -0.201794  0.992638  1.427920
O    0.979259  0.682608  1.734103
H    -0.119741  2.927924  0.575184
H    -1.503306  1.984738  -0.025007
H    0.164723  1.619834  -0.575464
N    -1.286435  0.545268  2.089170
C    -1.519701  -0.115703  3.395546
C    -0.294031  -0.376386  4.284758
O    0.692040  -1.080292  3.932126
H    -2.162728  0.881270  1.696730
H    -2.133527  0.617857  3.941161
C    -2.427176  -1.378878  3.281301
C    -1.819450  -2.750628  2.922673
C    -2.038432  -3.293145  1.502238
N    -1.496955  -2.504954  0.387952
C    -0.185656  -2.234586  0.190723
N    0.131001  -1.400833  -0.849522
N    0.796854  -2.638620  0.986173
H    -3.245341  -1.122656  2.589784
H    -2.906955  -1.468016  4.265848
H    -2.293610  -3.498303  3.573809
H    -0.758941  -2.778116  3.196641
H    -3.114937  -3.375645  1.306584
H    -1.647193  -4.323190  1.457194
H    -2.115308  -2.393120  -0.409198
H    1.027366  -1.574388  -1.292706
H    -0.600065  -1.120452  -1.494759
H    0.492293  -3.438653  1.545655
N    -0.389119  0.092005  5.525730
C    0.594554  -0.167962  6.577302
H    -1.187416  0.673172  5.764086
H    0.112325  -0.026721  7.548571
H    1.441549  0.525599  6.495099
H    0.958582  -1.196794  6.496449
Ca    2.042216  -1.147527  2.205050
