36
Energy: -39736.12526 eV PBE+vdW (tier 2 basis)
C    0.352088  -1.731239  0.375836
C    0.060599  -0.954616  1.615877
O    0.852132  -0.018969  1.985996
H    0.420078  -1.036578  -0.472637
H    -0.410581  -2.486430  0.162791
H    1.331304  -2.219231  0.470080
N    -1.030738  -1.241587  2.318578
C    -1.458815  -0.481875  3.501642
C    -0.492121  -0.762233  4.677497
O    0.417561  0.118490  4.924669
H    -1.641929  -2.013189  2.002870
H    -1.293693  0.576545  3.251446
C    -2.966465  -0.644928  3.841722
C    -3.909880  -1.078258  2.697918
C    -4.205038  -2.582273  2.553909
N    -3.048033  -3.425645  2.193848
C    -2.239942  -4.010310  3.173521
N    -1.182558  -4.732494  2.686973
N    -2.323508  -3.787270  4.453067
H    -3.290504  0.338369  4.205829
H    -3.083024  -1.317579  4.697242
H    -3.571686  -0.670172  1.732778
H    -4.883013  -0.601626  2.881009
H    -4.942149  -2.708668  1.751990
H    -4.691387  -2.965224  3.465097
H    -3.204718  -4.001047  1.368562
H    -0.774103  -5.391317  3.342038
H    -1.190381  -5.043310  1.722125
H    -3.232452  -3.394041  4.702276
N    -0.583941  -1.876345  5.355340
C    0.303267  -2.216700  6.466173
H    -1.271089  -2.644539  5.039327
H    -0.114875  -3.088798  6.976405
H    0.376467  -1.379508  7.168969
H    1.309865  -2.466779  6.103699
Ca    1.703880  1.094679  3.574423
