36
Energy: -39737.0022688 eV PBE+vdW (tier 2 basis)
C    -0.239301  -1.274410  0.899274
C    0.095421  -0.504160  2.132626
O    1.273668  -0.451644  2.579849
H    -0.099758  -0.636556  0.011893
H    -1.267100  -1.652865  0.899695
H    0.466403  -2.107115  0.806096
N    -0.875280  0.192359  2.793204
C    -1.910369  0.974024  2.129124
C    -1.213482  2.068484  1.276399
O    0.002242  2.362604  1.499852
H    -0.575726  0.550703  3.706099
H    -2.465970  0.319430  1.443266
C    -2.923643  1.543499  3.163925
C    -2.351920  2.046542  4.498736
C    -1.443179  3.290087  4.427736
N    -0.628774  3.470841  5.623730
C    0.423102  2.687753  5.960880
N    0.828037  2.729501  7.248365
N    1.019722  1.908306  5.047893
H    -3.637065  0.739518  3.387285
H    -3.507186  2.338422  2.679401
H    -1.817603  1.233441  5.014168
H    -3.205300  2.268053  5.154473
H    -2.045958  4.199178  4.310724
H    -0.782677  3.265440  3.552889
H    -0.967234  4.124103  6.321159
H    1.724804  2.349941  7.524498
H    0.297870  3.209513  7.966069
H    1.612325  1.236690  5.547451
N    -1.879425  2.685371  0.310311
C    -3.259298  2.491973  -0.140298
H    -1.340303  3.401467  -0.177917
H    -3.280434  2.545980  -1.233958
H    -3.912554  3.276188  0.263448
H    -3.641653  1.513826  0.163721
Ca    1.670014  1.742681  2.845729
