36
Energy: -39736.3940947 eV PBE+vdW (tier 2 basis)
C    -1.493585  -0.883249  0.213283
C    -1.271063  0.426066  0.895796
O    -0.617629  1.347449  0.285684
H    -0.531624  -1.309023  -0.100224
H    -2.065936  -0.693600  -0.706284
H    -2.035693  -1.613512  0.819439
N    -1.737113  0.682886  2.105542
C    -2.384371  -0.172526  3.098450
C    -3.025260  0.862250  4.070390
O    -2.556407  2.010808  4.086816
H    -1.688344  1.649410  2.481194
H    -3.157521  -0.794866  2.628203
C    -1.352014  -1.066815  3.833319
C    -0.321575  -0.277237  4.673777
C    1.155490  -0.616591  4.431907
N    1.614735  -0.513678  3.028813
C    1.912970  0.590243  2.330599
N    1.492648  1.869930  2.808253
N    2.490310  0.663791  1.152000
H    -0.851467  -1.688043  3.075708
H    -1.903353  -1.767885  4.473318
H    -0.501066  -0.450557  5.743523
H    -0.491952  0.804021  4.554507
H    1.360545  -1.653086  4.725709
H    1.794582  0.014746  5.065417
H    1.856476  -1.390530  2.575628
H    2.290679  2.406962  3.159729
H    0.775836  1.836094  3.535681
H    2.924012  -0.200522  0.822862
N    -4.007774  0.414792  4.859690
C    -4.686072  1.239860  5.859268
H    -4.347812  -0.531964  4.720666
H    -5.737338  1.383804  5.581985
H    -4.187973  2.211703  5.902029
H    -4.635553  0.756600  6.841882
Ca    1.225445  2.372511  0.299598
