36
Energy: -39736.6806269 eV PBE+vdW (tier 2 basis)
C    0.613385  -1.401383  0.955986
C    0.067015  -0.552550  2.059639
O    0.860941  0.114731  2.797655
H    1.158706  -0.754042  0.255130
H    -0.158604  -1.949707  0.406368
H    1.341765  -2.113028  1.365373
N    -1.255938  -0.504081  2.235571
C    -1.992481  0.372560  3.172522
C    -1.939610  -0.171062  4.618979
O    -0.818824  0.140149  5.252727
H    -1.816944  -1.080717  1.614226
H    -1.426604  1.316574  3.201991
C    -3.372734  0.714760  2.597022
C    -4.344636  -0.459049  2.341903
C    -5.623969  -0.308634  3.181857
N    -6.472047  -1.498250  3.185427
C    -6.256908  -2.562281  3.974380
N    -7.143449  -3.573507  3.973545
N    -5.168836  -2.614319  4.745079
H    -3.207162  1.274774  1.666525
H    -3.826722  1.433172  3.294401
H    -3.872423  -1.420508  2.590330
H    -4.616605  -0.510337  1.279091
H    -6.234962  0.521872  2.807220
H    -5.360770  -0.067079  4.221066
H    -7.230213  -1.552577  2.514660
H    -6.971811  -4.423002  4.495681
H    -8.057466  -3.474440  3.549926
H    -5.088784  -3.346062  5.439929
N    -2.914231  -0.840849  5.127483
C    -2.766368  -1.249815  6.526544
H    -4.405668  -1.900420  4.713837
H    -3.758093  -1.438069  6.955815
H    -2.263664  -0.489211  7.138101
H    -2.180266  -2.179391  6.603003
Ca    1.126732  0.620853  4.861480
