36
Energy: -39736.2459634 eV PBE+vdW (tier 2 basis)
C    -0.727987  1.972570  0.184217
C    -0.498160  1.504294  1.593920
O    0.187542  2.082357  2.421925
H    -1.555202  2.697716  0.185796
H    -0.985435  1.161031  -0.507246
H    0.164428  2.496141  -0.172652
N    -1.127640  0.294397  1.953847
C    -1.227459  -0.013787  3.368266
C    0.005998  -0.762106  3.890756
O    0.105532  -1.018946  5.141979
H    -1.844246  -0.069165  1.332472
H    -1.172840  0.949803  3.908697
C    -2.534615  -0.716550  3.767430
C    -2.778300  -2.129120  3.186177
C    -3.511178  -3.086147  4.144693
N    -2.593156  -3.772409  5.076690
C    -2.100948  -3.282663  6.220081
N    -0.911310  -3.875445  6.744918
N    -2.473829  -2.227305  6.907523
H    -3.366465  -0.051415  3.498272
H    -2.539594  -0.754292  4.862267
H    -1.830996  -2.605421  2.887977
H    -3.376918  -2.058830  2.267596
H    -4.016804  -3.880486  3.584016
H    -4.297165  -2.570726  4.714244
H    -2.270736  -4.690372  4.783995
H    -0.439740  -4.528895  6.118023
H    -1.084820  -4.333321  7.644239
H    -3.388487  -1.851506  6.653741
N    0.939394  -1.084493  3.024968
C    2.243749  -1.665788  3.311749
H    0.728762  -0.787582  2.068350
H    3.024215  -0.903714  3.189046
H    2.440212  -2.489244  2.616224
H    2.263095  -2.039895  4.338387
Ca    -0.347639  -1.411982  7.162726
