36
Energy: -39735.64143 eV PBE+vdW (tier 2 basis)
C    -0.951294  -0.948962  -0.050573
C    -0.887558  -0.101117  1.177070
O    -0.111570  -0.449604  2.137721
H    -1.662734  -0.571212  -0.790804
H    -1.224367  -1.974312  0.233737
H    0.047084  -1.000883  -0.506415
N    -1.640288  0.989783  1.232090
C    -1.824407  1.894779  2.385853
C    -0.507013  2.569432  2.787254
O    0.284238  2.010429  3.625835
H    -2.363987  1.140804  0.467906
H    -2.471044  2.689700  2.000956
C    -2.550924  1.204270  3.570478
C    -4.083899  1.379143  3.612684
C    -4.920416  1.100411  2.338093
N    -5.123795  2.275706  1.485914
C    -4.359638  2.670085  0.408949
N    -3.824428  1.601682  -0.374977
N    -4.058919  3.863256  0.036823
H    -2.150100  1.597502  4.516220
H    -2.312087  0.129456  3.546355
H    -4.317991  2.398688  3.955966
H    -4.451231  0.715899  4.408930
H    -5.911188  0.747622  2.653300
H    -4.489720  0.286096  1.740980
H    -5.596845  3.048239  1.946543
H    -3.547734  2.001800  -1.274055
H    -4.507101  0.858619  -0.536309
H    -4.425172  4.579021  0.671155
N    -0.181660  3.748827  2.288522
C    -0.864253  4.602093  1.310488
H    0.698856  4.118231  2.653414
H    -1.735670  4.112928  0.862842
H    -0.156069  4.851091  0.511180
H    -1.181378  5.531630  1.799505
Ca    0.915501  0.008369  3.896797
