36
Energy: -39734.9933705 eV PBE+vdW (tier 2 basis)
C    -0.684564  -0.472252  -0.926432
C    -0.344261  0.069740  0.419617
O    0.102596  1.257757  0.550076
H    -1.657894  -0.080453  -1.262041
H    -0.714939  -1.565584  -0.951912
H    0.062913  -0.106719  -1.642213
N    -0.523068  -0.681944  1.528193
C    -1.761946  -1.424038  1.786286
C    -2.921513  -0.389422  1.825415
O    -2.640433  0.867334  1.889701
H    -0.114828  -0.272491  2.370268
H    -1.936466  -2.133405  0.965336
C    -1.656723  -2.194838  3.119331
C    -1.413068  -1.302490  4.349383
C    -2.082519  -1.818698  5.647676
N    -3.464474  -2.237986  5.486559
C    -4.499351  -1.379793  5.154335
N    -5.722067  -2.014956  4.963837
N    -4.411202  -0.115093  4.883597
H    -0.865585  -2.948435  3.006979
H    -2.594381  -2.746464  3.266409
H    -1.788105  -0.285838  4.153102
H    -0.338416  -1.206227  4.564271
H    -1.977679  -1.040748  6.422921
H    -1.533565  -2.695297  6.013120
H    -3.711700  -3.107953  5.944967
H    -6.510076  -1.381975  5.070113
H    -5.870096  -2.901098  5.437413
H    -3.496143  0.252979  5.145824
N    -4.175231  -0.771336  1.844022
C    -4.748322  -2.111484  1.720305
H    -4.836060  -0.027704  2.083626
H    -4.001153  -2.831949  1.379643
H    -5.559687  -2.071239  0.983953
H    -5.163171  -2.416485  2.692507
Ca    -1.358787  2.512881  1.534625
