36
Energy: -39735.7768377 eV PBE+vdW (tier 2 basis)
C    1.183727  -0.090004  0.850460
C    0.568908  0.450608  2.095007
O    1.208647  1.310945  2.805535
H    1.159740  0.695946  0.079887
H    0.651538  -0.973097  0.473576
H    2.238706  -0.326311  1.033437
N    -0.644102  0.035518  2.439473
C    -1.464801  0.572366  3.538946
C    -0.873342  0.150929  4.904579
O    0.047599  0.857538  5.435709
H    -1.205137  -0.524842  1.726084
H    -1.404004  1.674355  3.527593
C    -2.929068  0.135441  3.347879
C    -3.715004  0.747562  2.168686
C    -3.144671  0.581549  0.748472
N    -2.515271  -0.730419  0.568337
C    -1.832503  -1.103524  -0.635173
N    -1.874647  -0.174772  -1.650040
N    -1.169127  -2.198756  -0.563941
H    -3.478296  0.395499  4.263719
H    -2.961754  -0.964335  3.266256
H    -3.871099  1.821230  2.344972
H    -4.716309  0.295102  2.210371
H    -2.375849  1.343531  0.553974
H    -3.966478  0.772772  0.037698
H    -3.079672  -1.520849  0.878364
H    -1.431429  -0.448035  -2.521218
H    -2.717586  0.375616  -1.783778
H    -0.774088  -2.486633  -1.462719
N    -1.329806  -0.933483  5.499637
C    -0.867239  -1.461384  6.784241
H    -2.066633  -1.449791  5.024376
H    -1.730168  -1.840744  7.340968
H    -0.385804  -0.663346  7.354244
H    -0.156978  -2.282672  6.622694
Ca    1.666536  2.029433  4.701068
