36
Energy: -39735.0676611 eV PBE+vdW (tier 2 basis)
C    1.332477  -0.773525  0.964880
C    0.786689  0.223690  1.925183
O    1.525455  0.710978  2.845207
H    0.788818  -0.793513  0.013291
H    1.226113  -1.776757  1.428790
H    2.396895  -0.594205  0.785447
N    -0.509576  0.553830  1.824128
C    -1.405810  1.171550  2.831998
C    -1.147182  2.676808  2.994195
O    -0.057855  3.102098  3.502762
H    -0.996449  0.110022  1.049582
H    -2.408854  1.052733  2.399167
C    -1.414810  0.468735  4.211864
C    -1.985223  -0.959946  4.236372
C    -1.213967  -1.954940  3.367062
N    -1.452958  -3.341341  3.736067
C    -0.790111  -4.330714  2.970256
N    0.574933  -4.033433  2.762488
N    -1.287191  -5.393775  2.471864
H    -2.012014  1.102204  4.885167
H    -0.394830  0.452103  4.627954
H    -3.050183  -0.941440  3.956019
H    -1.949559  -1.303077  5.280970
H    -0.135825  -1.769320  3.477395
H    -1.455120  -1.789082  2.295876
H    -2.439211  -3.569809  3.847793
H    1.001415  -4.819990  2.272589
H    1.072709  -3.867543  3.638116
H    -2.304140  -5.455188  2.573137
N    -2.113260  3.505184  2.640466
C    -2.092554  4.962175  2.783751
H    -2.952192  3.099606  2.231149
H    -3.012750  5.285894  3.283230
H    -2.038727  5.430875  1.793182
H    -1.226170  5.256510  3.379319
Ca    1.886786  2.416235  4.009567
