36
Energy: -39736.4563345 eV PBE+vdW (tier 2 basis)
C    -0.696368  -0.670016  -0.491843
C    -0.402583  -0.584924  0.971339
O    0.807418  -0.743670  1.389789
H    -0.100730  0.077675  -1.032678
H    -1.755200  -0.510471  -0.717502
H    -0.399537  -1.660424  -0.863398
N    -1.388388  -0.353106  1.806025
C    -1.387744  -0.341629  3.266345
C    -2.856133  -0.781794  3.592235
O    -3.699459  -0.670402  2.698828
H    -2.379047  -0.333767  1.482089
H    -0.663553  -1.080635  3.639548
C    -1.138378  1.068643  3.847887
C    0.246171  1.700909  3.643415
C    1.369112  1.051825  4.467483
N    2.562905  1.875273  4.606706
C    3.579970  2.003540  3.724960
N    4.457735  3.002906  3.953669
N    3.713544  1.166201  2.688477
H    -1.360019  1.029782  4.925728
H    -1.895476  1.738228  3.415170
H    0.171736  2.749887  3.965599
H    0.518058  1.737239  2.578654
H    1.653230  0.056697  4.078537
H    1.014446  0.851410  5.488433
H    2.570579  2.501570  5.404120
H    5.322909  3.068160  3.432791
H    4.334560  3.670754  4.705291
H    4.506609  1.485604  2.123752
N    -3.097893  -1.216901  4.837648
C    -4.428102  -1.606289  5.306854
H    -2.323480  -1.301020  5.487132
H    -4.734825  -0.973940  6.148573
H    -4.426528  -2.656191  5.622766
H    -5.133451  -1.477777  4.481747
Ca    2.838713  -0.706017  1.811157
