36
Energy: -39736.7753388 eV PBE+vdW (tier 2 basis)
C    -1.123900  -0.443958  0.288666
C    -0.947164  0.026800  1.706121
O    0.185199  0.647135  1.957872
H    -1.142075  0.419126  -0.392899
H    -2.027985  -1.050779  0.170326
H    -0.264280  -1.055688  -0.014540
N    -1.899345  -0.193904  2.569321
C    -1.770832  0.306401  3.945113
C    -0.766816  -0.534160  4.757213
O    0.478079  -0.255000  4.718841
H    -3.777297  0.357123  -0.178330
H    -1.316696  1.315134  3.943147
C    -3.163962  0.449125  4.597624
C    -4.140311  -0.745186  4.448139
C    -5.255929  -0.533433  3.421241
N    -4.685561  -0.343099  2.088152
C    -5.402065  -0.069507  1.002098
N    -6.743895  -0.103401  1.029677
N    -4.783242  0.265509  -0.146310
H    -3.623872  1.346802  4.159854
H    -3.025188  0.691303  5.660511
H    -4.635151  -0.941780  5.408306
H    -3.613127  -1.670441  4.165058
H    -5.859198  0.345826  3.702943
H    -5.915170  -1.416575  3.432587
H    -3.634157  -0.347764  2.053728
H    -7.245549  -0.446033  1.837866
H    -7.296381  0.178934  0.230008
H    -5.282166  0.294690  -1.026039
N    -1.182745  -1.546891  5.500045
C    -0.301120  -2.403772  6.294620
H    -2.176927  -1.748971  5.511329
H    -0.917861  -3.017979  6.955798
H    0.376304  -1.789849  6.897844
H    0.291476  -3.059257  5.644072
Ca    1.707798  0.784459  3.308007
