36
Energy: -39736.5292018 eV PBE+vdW (tier 2 basis)
C    0.527663  0.890293  0.323458
C    0.284590  1.335449  1.724902
O    1.125924  2.034043  2.355177
H    0.339007  1.726886  -0.367160
H    -0.089675  0.035875  0.029278
H    1.589507  0.635508  0.219394
N    -0.875694  1.007224  2.365000
C    -2.203845  1.108670  1.759227
C    -2.334073  2.530664  1.155508
O    -1.635418  3.466988  1.655493
H    -0.855738  1.288303  3.348921
H    -2.309664  0.336653  0.986015
C    -3.338567  0.949540  2.814669
C    -3.210974  -0.151019  3.884254
C    -2.209177  -0.004850  5.047854
N    -2.376205  1.122557  5.990944
C    -1.631161  2.264636  5.950085
N    -1.163875  2.757608  7.108216
N    -1.365162  2.895833  4.797048
H    -4.256318  0.747653  2.245509
H    -3.535517  1.920681  3.297913
H    -2.977765  -1.111001  3.398508
H    -4.213668  -0.274739  4.317990
H    -1.167128  -0.012612  4.702237
H    -2.308168  -0.914107  5.654878
H    -2.742016  0.865129  6.903298
H    -0.884631  3.728993  7.168737
H    -1.154546  2.213260  7.963071
H    -2.155603  2.691282  4.178349
N    -3.184945  2.776594  0.170500
C    -4.091862  1.858157  -0.520913
H    -3.236396  3.758253  -0.104962
H    -4.113727  2.120491  -1.583805
H    -5.108239  1.941225  -0.115163
H    -3.748514  0.823996  -0.429892
Ca    -0.012234  3.794046  3.179099
