36
Energy: -39735.4329664 eV PBE+vdW (tier 2 basis)
C    0.172968  -0.753046  -1.271332
C    0.531813  -0.384800  0.130403
O    1.737812  -0.559905  0.528963
H    -0.175395  -1.796810  -1.319368
H    1.080221  -0.684063  -1.882159
H    -0.607786  -0.112742  -1.688709
N    -0.355375  0.143106  1.000783
C    -1.690634  -0.386793  1.330925
C    -1.470267  -1.699607  2.106449
O    -0.332740  -2.311093  2.082067
H    0.105825  0.548919  1.817289
H    -2.111125  0.340103  2.073615
C    -2.679950  -0.469496  0.148271
C    -4.154267  -0.757847  0.484009
C    -4.842840  0.170837  1.493036
N    -4.668961  -0.234880  2.914178
C    -4.108447  0.693933  3.823311
N    -4.727914  0.729959  5.043465
N    -3.035056  1.316701  3.462959
H    -2.357019  -1.220983  -0.583762
H    -2.623889  0.511073  -0.347386
H    -4.292822  -1.806150  0.789685
H    -4.696304  -0.671210  -0.468382
H    -5.919164  0.182846  1.278594
H    -4.478920  1.201176  1.391016
H    -5.505694  -0.679925  3.285062
H    -5.728758  0.576153  5.109791
H    -4.352380  1.353873  5.748780
H    -2.745976  2.024806  4.139804
N    -2.469996  -2.140063  2.832441
C    -2.445072  -3.358862  3.636574
H    -3.322795  -1.529092  2.886457
H    -3.476449  -3.675250  3.818283
H    -1.957788  -3.177104  4.604120
H    -1.913655  -4.155863  3.107167
Ca    1.773317  -2.230390  1.874424
