36
Energy: -39735.2292502 eV PBE+vdW (tier 2 basis)
C    0.470893  1.058106  1.775659
C    -0.074443  0.330629  2.950598
O    0.692397  -0.082375  3.888203
H    1.196728  1.820122  2.084627
H    -0.310543  1.485984  1.136662
H    1.035017  0.319233  1.182076
N    -1.399429  0.091809  3.051674
C    -2.408623  1.133314  2.827101
C    -2.132155  2.256439  3.843433
O    -1.385128  2.031068  4.870330
H    -1.645585  -0.579749  3.782294
H    -2.297521  1.542918  1.794666
C    -3.813363  0.514420  3.013379
C    -4.181949  -0.536878  1.944353
C    -5.007470  0.008095  0.761099
N    -4.426394  1.177021  0.105520
C    -3.199443  1.172201  -0.537092
N    -3.036430  0.179522  -1.464090
N    -2.316010  2.068261  -0.180241
H    -3.853267  0.061679  4.018176
H    -4.558816  1.321925  3.033303
H    -4.766509  -1.336819  2.419841
H    -3.269179  -1.018197  1.560205
H    -6.009253  0.301493  1.102376
H    -5.160335  -0.799328  0.033915
H    -4.586594  2.058583  0.578865
H    -2.176906  0.163358  -1.999778
H    -3.855468  -0.153433  -1.962846
H    -1.564857  2.154642  -0.871101
N    -2.645007  3.457884  3.668788
C    -3.421760  3.956055  2.527262
H    -2.460809  4.118251  4.424541
H    -3.093624  3.466108  1.598767
H    -3.234925  5.030783  2.438523
H    -4.495989  3.805349  2.697451
Ca    0.259486  0.968923  5.714984
