36
Energy: -39736.3519672 eV PBE+vdW (tier 2 basis)
C    -1.291780  0.675656  2.669086
C    -0.590732  0.019345  3.814329
O    0.523109  0.511768  4.226739
H    -2.147496  0.111142  2.289944
H    -0.586968  0.872999  1.852602
H    -1.649686  1.657266  3.014887
N    -1.088768  -1.030689  4.437992
C    -2.188572  -1.927081  4.087113
C    -2.452614  -2.675711  5.426016
O    -1.553963  -2.655910  6.281283
H    -0.667698  -1.363613  5.328945
H    -3.070266  -1.356204  3.771312
C    -1.744363  -2.906890  2.969389
C    -0.600801  -3.848227  3.405193
C    0.488611  -4.101851  2.358148
N    1.224641  -2.895838  1.917493
C    2.025575  -2.137717  2.677754
N    2.593637  -0.950263  2.085664
N    2.336299  -2.256137  3.943057
H    -1.441343  -2.298806  2.103536
H    -2.614550  -3.487426  2.637385
H    -0.144415  -3.481824  4.334689
H    -1.006114  -4.833724  3.671517
H    0.059314  -4.531339  1.444888
H    1.210677  -4.839590  2.739867
H    1.255466  -2.732180  0.915779
H    3.552494  -1.131068  1.770888
H    2.064886  -0.594026  1.286693
H    2.045185  -3.128229  4.386157
N    -3.605237  -3.341328  5.583713
C    -4.745954  -3.442438  4.678614
H    -3.669404  -3.837485  6.471061
H    -5.665457  -3.482010  5.271944
H    -4.693699  -4.348236  4.058946
H    -4.813068  -2.564723  4.027325
Ca    2.553825  -0.014262  4.441929
