36
Energy: -39736.0630674 eV PBE+vdW (tier 2 basis)
C    0.171519  -0.086764  0.528862
C    -0.226369  0.048305  1.962980
O    0.685848  0.041634  2.857269
H    -0.558679  0.334566  -0.164060
H    0.338027  -1.144111  0.273125
H    1.134823  0.423792  0.406738
N    -1.510188  0.229506  2.355787
C    -2.663502  -0.641137  2.033532
C    -2.525117  -1.947794  2.870630
O    -1.304851  -2.270885  3.277443
H    -1.542313  0.518152  3.335172
H    -3.533715  -0.106609  2.434347
C    -2.891770  -0.886667  0.527822
C    -4.198554  -1.619743  0.190880
C    -5.469277  -0.849065  0.579086
N    -6.679330  -1.667357  0.529618
C    -7.161987  -2.370194  1.567279
N    -8.400604  -2.887955  1.481630
N    -6.435598  -2.537472  2.674527
H    -2.068527  -1.479522  0.110038
H    -2.874481  0.091600  0.023826
H    -4.203627  -2.602791  0.679143
H    -4.209782  -1.810294  -0.891396
H    -5.626589  0.007465  -0.089409
H    -5.403995  -0.440959  1.596700
H    -7.173138  -1.739073  -0.353400
H    -8.725751  -3.582570  2.141888
H    -9.060864  -2.569261  0.783340
H    -6.894417  -2.894107  3.504296
N    -3.599814  -2.608482  3.116923
C    -3.483124  -3.854694  3.872737
H    -5.393303  -2.419171  2.724678
H    -2.593940  -4.438413  3.597514
H    -4.370896  -4.472405  3.692881
H    -3.435380  -3.649319  4.953513
Ca    0.565613  -1.814967  3.987528
