36
Energy: -39736.3372651 eV PBE+vdW (tier 2 basis)
C    -1.180741  2.337736  -0.700224
C    -0.911950  1.315297  0.355973
O    0.200371  1.350407  1.015245
H    -1.134734  3.343413  -0.260819
H    -2.157434  2.203199  -1.175243
H    -0.401102  2.277912  -1.472055
N    -1.814015  0.392359  0.595975
C    -1.759440  -0.704652  1.557338
C    -2.976626  -1.584249  1.131621
O    -3.831697  -1.071814  0.405252
H    -2.717715  0.346027  0.079986
H    -0.811957  -1.252004  1.428999
C    -1.877672  -0.181432  3.006725
C    -1.385236  -1.155305  4.086841
C    -0.833566  -0.419412  5.317931
N    0.343529  0.395032  4.986734
C    1.601913  -0.046431  4.757103
N    1.978020  -1.220887  5.298256
N    2.408672  0.688442  3.973434
H    -2.916769  0.120814  3.198390
H    -1.274778  0.736638  3.053646
H    -0.585085  -1.801621  3.688537
H    -2.192653  -1.824199  4.414078
H    -0.597929  -1.128811  6.122509
H    -1.581709  0.264964  5.737258
H    0.209245  1.390582  4.863288
H    1.487238  -1.617442  6.091727
H    2.881080  -1.622029  5.077288
H    3.388506  0.473549  4.184956
N    -3.029429  -2.832398  1.623294
C    -4.127878  -3.755470  1.334575
H    -2.230979  -3.191280  2.134719
H    -4.427507  -4.271785  2.253074
H    -3.827193  -4.496302  0.582836
H    -4.972140  -3.178636  0.947887
Ca    2.004677  1.703928  1.997447
