36
Energy: -39736.5820856 eV PBE+vdW (tier 2 basis)
C    -0.079151  -1.934139  -0.142961
C    0.129953  -0.794179  0.798931
O    0.951195  0.137862  0.471467
H    0.887658  -2.376414  -0.414590
H    -0.509368  -1.531241  -1.071503
H    -0.740606  -2.714552  0.241049
N    -0.512304  -0.699878  1.950676
C    -1.408264  -1.636177  2.629117
C    -2.166683  -0.731570  3.641043
O    -1.639534  0.338132  3.982499
H    -0.437764  0.168347  2.508108
H    -2.112382  -2.064936  1.903350
C    -0.635576  -2.786356  3.332807
C    0.000127  -2.512704  4.708678
C    0.985770  -1.347517  4.862738
N    2.141428  -1.429591  3.957444
C    2.663760  -0.389724  3.298208
N    3.663698  -0.648951  2.299607
N    2.321437  0.875864  3.341676
H    0.120864  -3.158476  2.625048
H    -1.338238  -3.620702  3.467891
H    -0.791015  -2.328225  5.450430
H    0.484426  -3.445620  5.036092
H    1.348454  -1.319918  5.900668
H    0.473369  -0.396696  4.673421
H    2.656992  -2.306772  3.946093
H    4.593825  -0.379902  2.634536
H    3.702883  -1.620575  1.986239
H    1.705561  1.134292  4.114001
N    -3.326341  -1.206490  4.110414
C    -4.149337  -0.510090  5.098923
H    -3.688839  -2.071155  3.720290
H    -4.349887  -1.168608  5.952058
H    -5.101684  -0.202054  4.650676
H    -3.607589  0.376360  5.438306
Ca    2.570508  1.332030  1.112179
