36
Energy: -39735.2820628 eV PBE+vdW (tier 2 basis)
C    0.335506  -1.568371  1.993407
C    -0.210063  -0.484253  2.858060
O    0.346453  0.663972  2.885062
H    0.302289  -1.233486  0.946585
H    -0.212896  -2.511390  2.084467
H    1.392451  -1.737087  2.239400
N    -1.295718  -0.719118  3.601413
C    -2.006864  0.306732  4.385187
C    -1.174431  0.722443  5.618410
O    -0.460306  1.787163  5.511305
H    -1.725052  -1.639458  3.535780
H    -2.032419  1.214077  3.760509
C    -3.445295  -0.097632  4.705840
C    -4.382326  -0.253430  3.502018
C    -5.838987  -0.539370  3.954792
N    -5.982340  -1.661515  4.875122
C    -5.603587  -1.592829  6.217513
N    -5.915191  -0.387654  6.841336
N    -4.972667  -2.496860  6.892454
H    -3.850586  0.661776  5.391367
H    -3.447088  -1.033797  5.277623
H    -4.385080  0.656714  2.880294
H    -4.045835  -1.076821  2.849928
H    -6.454303  -0.739576  3.068411
H    -6.253868  0.363136  4.420512
H    -5.833191  -2.577834  4.463429
H    -5.819905  -0.470996  7.850557
H    -6.815970  0.009448  6.584985
H    -4.732791  -3.307284  6.314186
N    -1.162817  0.056375  6.757665
C    -1.778768  -1.225347  7.137853
H    -0.600336  0.507484  7.480803
H    -2.849826  -1.133384  7.367041
H    -1.258740  -1.581551  8.031703
H    -1.643757  -1.968899  6.346052
Ca    0.792665  2.450812  3.936283
