36
Energy: -39737.0436397 eV PBE+vdW (tier 2 basis)
C    -0.743753  -0.808554  1.413795
C    -1.652644  -0.433303  2.537632
O    -1.341193  -0.674895  3.737393
H    0.027576  -0.033989  1.279555
H    -1.269806  -0.951991  0.464469
H    -0.218330  -1.730490  1.688808
N    -2.837469  0.187558  2.285910
C    -2.969470  1.292909  1.343592
C    -2.183002  2.501033  1.930331
O    -1.773350  2.464249  3.133088
H    -3.415862  0.323782  3.122072
H    -2.478198  1.001531  0.403745
C    -4.456219  1.582564  1.008781
C    -5.340603  2.370123  1.994489
C    -5.755581  1.701981  3.311886
N    -4.624314  1.685226  4.248054
C    -4.577465  1.065356  5.479737
N    -5.674655  0.424641  5.914738
N    -3.408398  1.096417  6.107136
H    -4.911957  0.605266  0.791395
H    -4.477601  2.127935  0.056871
H    -6.269772  2.600655  1.455405
H    -4.895461  3.355551  2.217071
H    -6.087077  0.668391  3.131664
H    -6.608244  2.261404  3.731143
H    -4.070417  2.537710  4.228797
H    -6.590332  0.596124  5.516351
H    -5.642284  -0.147199  6.750777
H    -3.493226  0.785702  7.077350
N    -1.931304  3.561834  1.174779
C    -2.261854  3.795788  -0.233243
H    -1.426234  4.307962  1.653344
H    -3.232520  4.297830  -0.333244
H    -2.273162  2.857160  -0.796145
H    -1.489215  4.440303  -0.663836
Ca    -1.406947  1.184524  4.965114
