36
Energy: -39735.2206874 eV PBE+vdW (tier 2 basis)
C    -1.287029  0.283981  0.160065
C    -1.079010  0.500960  1.617711
O    -0.133195  1.270978  2.027931
H    -1.330535  1.258350  -0.344678
H    -2.195009  -0.286983  -0.065335
H    -0.414277  -0.244593  -0.250711
N    -1.872090  -0.105272  2.496455
C    -1.825419  0.182210  3.932548
C    -0.481522  -0.235571  4.578372
O    0.314966  0.719414  4.898711
H    -2.770308  -0.581685  2.182115
H    -1.774762  1.278298  4.039291
C    -3.156859  -0.180807  4.639804
C    -3.822516  -1.575183  4.630353
C    -4.066376  -2.304854  3.292619
N    -4.311632  -1.387714  2.168355
C    -4.273845  -1.821399  0.800085
N    -3.632294  -3.031520  0.594480
N    -4.619317  -1.091131  -0.191642
H    -3.873904  0.546570  4.230030
H    -3.036538  0.113770  5.692518
H    -4.793186  -1.409935  5.120286
H    -3.293327  -2.267638  5.297081
H    -4.894370  -3.017772  3.437125
H    -3.187020  -2.899698  3.017433
H    -5.115098  -0.777115  2.315428
H    -3.649510  -3.287046  -0.391117
H    -3.907691  -3.809352  1.187941
H    -4.990503  -0.177220  0.081168
N    -0.086991  -1.475914  4.806551
C    -0.678294  -2.754139  4.418317
H    0.809644  -1.530528  5.292520
H    -1.222907  -3.206177  5.255276
H    0.134357  -3.428360  4.126524
H    -1.337039  -2.620255  3.559273
Ca    1.081250  2.142259  3.497381
