36
Energy: -39736.5437578 eV PBE+vdW (tier 2 basis)
C    0.365694  -1.398820  0.647613
C    0.163331  -0.713350  1.964382
O    1.240409  -0.202860  2.527717
H    0.746302  -0.682051  -0.093232
H    -0.557797  -1.854570  0.278552
H    1.128871  -2.181981  0.748186
N    -1.033188  -0.638132  2.489904
C    -1.115877  0.099512  3.751631
C    -0.288113  -0.556947  4.873775
O    0.647759  0.135191  5.413768
H    -2.456666  -0.604324  1.384250
H    -0.596371  1.068436  3.625169
C    -2.548878  0.521912  4.153311
C    -3.637595  -0.509686  4.473022
C    -4.206479  -1.325917  3.304271
N    -4.914576  -0.513177  2.310724
C    -4.505124  -0.262571  1.056630
N    -5.393936  0.224205  0.170895
N    -3.241828  -0.486811  0.692980
H    -2.898608  1.183355  3.344841
H    -2.444522  1.178039  5.030113
H    -3.305960  -1.211842  5.249485
H    -4.471035  0.038817  4.938255
H    -4.923937  -2.060932  3.694944
H    -3.432069  -1.891074  2.774789
H    -5.835514  -0.171536  2.566756
H    -5.094784  0.598960  -0.720284
H    -6.391577  0.158856  0.331001
H    -3.002499  -0.443764  -0.290073
N    -0.454583  -1.806716  5.290606
C    -1.277478  -2.885066  4.747004
H    0.160807  -2.059380  6.064387
H    -2.109729  -3.122439  5.420350
H    -0.651367  -3.779186  4.642571
H    -1.645855  -2.604166  3.758991
Ca    2.252372  0.678184  4.082170
