36
Energy: -39736.6348386 eV PBE+vdW (tier 2 basis)
C    -0.701191  0.010991  -0.126680
C    -1.603459  -0.145543  1.050962
O    -1.493127  -1.133155  1.835809
H    0.308088  0.295521  0.206308
H    -1.061465  0.740907  -0.857796
H    -0.601190  -0.970590  -0.608355
N    -2.556239  0.783747  1.327237
C    -2.350603  2.224127  1.219487
C    -1.024473  2.558370  1.950198
O    -0.617637  1.779534  2.867169
H    -3.267304  0.454481  1.993464
H    -2.304501  2.516393  0.161718
C    -3.478272  3.015877  1.948700
C    -4.915880  2.460866  1.815520
C    -5.664145  2.323975  3.168466
N    -4.852073  1.774243  4.269406
C    -4.167985  0.608234  4.230035
N    -4.584781  -0.327091  3.307663
N    -3.068705  0.343263  4.924537
H    -3.434162  4.050556  1.588111
H    -3.203083  3.057396  3.012256
H    -4.912650  1.496405  1.290725
H    -5.520428  3.120139  1.179774
H    -6.581495  1.732061  3.032373
H    -5.999247  3.306479  3.520095
H    -4.526506  2.445706  4.956160
H    -4.317338  -1.282808  3.529159
H    -5.547087  -0.260941  2.985051
H    -2.916470  1.057156  5.643735
N    -0.350555  3.659761  1.652948
C    -0.653436  4.692704  0.660166
H    0.473110  3.818047  2.234674
H    -1.306033  4.303495  -0.126039
H    0.283669  5.020277  0.198027
H    -1.133481  5.557108  1.136497
Ca    -1.082220  -0.197887  3.828985
