36
Energy: -39736.6127013 eV PBE+vdW (tier 2 basis)
C    -0.783802  -0.475382  0.955590
C    -0.478244  -0.111881  2.379205
O    0.768427  -0.303213  2.758763
H    -0.519172  -1.525870  0.773002
H    -0.162237  0.127951  0.279868
H    -1.835788  -0.314081  0.705874
N    -1.436633  0.345408  3.137969
C    -1.189725  0.661303  4.557255
C    -0.009888  1.614750  4.781674
O    1.138053  1.209636  5.173327
H    -3.154540  -0.099695  2.849523
H    -2.077174  1.227991  4.881600
C    -1.141621  -0.583657  5.468862
C    -2.509105  -1.284954  5.561620
C    -2.855126  -2.209830  4.368621
N    -4.273707  -2.211530  4.017363
C    -4.862568  -1.319741  3.202889
N    -6.176372  -1.452268  2.941909
N    -4.169638  -0.316170  2.659288
H    -0.840842  -0.266765  6.477188
H    -0.376701  -1.297897  5.122200
H    -3.291665  -0.516996  5.656638
H    -2.552104  -1.867861  6.490668
H    -2.584057  -3.248255  4.593520
H    -2.291607  -1.930534  3.471778
H    -4.879386  -2.862399  4.505115
H    -6.674218  -0.768831  2.386464
H    -6.691042  -2.279800  3.215278
H    -4.624825  0.257027  1.958835
N    -0.195734  2.912532  4.577539
C    -1.417096  3.588180  4.134094
H    0.609796  3.500247  4.789640
H    -1.133232  4.543009  3.681340
H    -2.085921  3.790305  4.981256
H    -1.931769  2.987250  3.378343
Ca    2.332631  -0.155153  4.053476
