36
Energy: -39735.0217308 eV PBE+vdW (tier 2 basis)
C    -1.728418  -0.296543  4.963880
C    -2.334705  -1.485484  5.631606
O    -1.979443  -1.761814  6.829936
H    -2.332209  0.098265  4.145902
H    -0.721729  -0.529467  4.585368
H    -1.601508  0.475425  5.734422
N    -3.293133  -2.258741  5.061285
C    -3.196896  -2.999350  3.778229
C    -2.369056  -4.270373  4.121126
O    -1.417556  -4.180887  4.995954
H    -3.760777  -2.825206  5.772310
H    -4.223623  -3.314098  3.528742
C    -2.629086  -2.171239  2.605709
C    -2.835766  -2.716625  1.180485
C    -4.275968  -2.621008  0.591425
N    -4.916102  -3.927352  0.349760
C    -5.138250  -4.738249  1.452100
N    -5.943140  -4.182430  2.430924
N    -4.598958  -5.902396  1.683778
H    -1.552671  -2.007829  2.757036
H    -3.111817  -1.185198  2.657038
H    -2.474059  -3.752968  1.102590
H    -2.162188  -2.132998  0.538722
H    -4.247945  -2.105980  -0.375015
H    -4.926267  -2.014799  1.236075
H    -4.450426  -4.437418  -0.398959
H    -6.328519  -4.879701  3.062802
H    -6.647284  -3.532204  2.091299
H    -4.003914  -6.193508  0.903017
N    -2.671911  -5.414089  3.566680
C    -1.939204  -6.653079  3.825440
H    -3.500779  -5.524841  2.883802
H    -2.372575  -7.434016  3.194273
H    -2.043289  -6.955645  4.875738
H    -0.874961  -6.537205  3.588325
Ca    -0.775602  -3.543875  6.900608
