36
Energy: -39736.442593 eV PBE+vdW (tier 2 basis)
C    0.808691  0.993826  0.542943
C    0.287952  0.234444  1.723616
O    1.117624  -0.394988  2.488214
H    0.021621  1.534775  0.008570
H    1.283489  0.289532  -0.154684
H    1.578821  1.707794  0.864225
N    -1.005847  0.231695  1.943917
C    -1.812318  -0.443198  2.961012
C    -3.260537  0.006486  2.568727
O    -3.384052  0.885603  1.708726
H    -1.660661  0.794992  1.351719
H    -1.720846  -1.532577  2.825857
C    -1.432264  -0.082812  4.410836
C    -1.401674  1.419407  4.728418
C    -0.452069  1.752879  5.884955
N    0.923516  1.413540  5.502162
C    1.864902  0.780893  6.234804
N    1.752337  0.797094  7.575999
N    2.848971  0.129758  5.589032
H    -0.446807  -0.525638  4.614860
H    -2.131883  -0.595872  5.085732
H    -2.404991  1.787730  4.979994
H    -1.091307  2.000275  3.844939
H    -0.712529  1.167198  6.777649
H    -0.528779  2.818266  6.145835
H    1.199185  1.653834  4.556350
H    1.192415  1.495020  8.052085
H    2.355763  0.224058  8.153037
H    3.647745  -0.011565  6.213913
N    -4.272907  -0.588987  3.213037
C    -5.679873  -0.284158  2.949421
H    -4.067947  -1.354689  3.846485
H    -6.210992  -0.134508  3.895958
H    -6.154014  -1.102483  2.393172
H    -5.729937  0.630129  2.352467
Ca    2.767253  -0.975315  3.633103
