36
Energy: -39735.1717866 eV PBE+vdW (tier 2 basis)
C    0.482680  -0.965213  0.490409
C    0.153951  -0.517151  1.879157
O    1.089093  -0.104997  2.642708
H    0.848628  -0.091436  -0.069615
H    -0.369071  -1.394342  -0.047208
H    1.304373  -1.691835  0.512952
N    -1.123501  -0.573393  2.266289
C    -1.875685  0.021534  3.392963
C    -1.229923  -0.065164  4.776757
O    -0.245421  -0.850499  5.035663
H    -1.752003  -0.941777  1.555190
H    -1.996564  1.094014  3.164238
C    -3.280848  -0.633826  3.412848
C    -3.306726  -2.090346  3.886117
C    -4.733275  -2.594056  4.215191
N    -5.520534  -1.698483  5.054499
C    -5.081204  -1.107891  6.228279
N    -4.100700  -1.825995  6.920155
N    -5.446573  0.039551  6.697911
H    -3.716137  -0.522101  2.405897
H    -3.917556  -0.029255  4.069855
H    -2.692811  -2.188223  4.793015
H    -2.873864  -2.769346  3.135774
H    -4.647990  -3.594348  4.668066
H    -5.308810  -2.736570  3.291595
H    -6.269589  -1.197110  4.592731
H    -4.035223  -1.479723  7.875143
H    -4.233051  -2.835494  6.913317
H    -6.130298  0.507641  6.096565
N    -1.722361  0.675978  5.753658
C    -2.805472  1.662675  5.777728
H    -1.315213  0.461236  6.664609
H    -2.995351  2.062273  4.777516
H    -2.494899  2.486887  6.429282
H    -3.726787  1.201046  6.190388
Ca    1.788789  -0.780554  4.513383
