36
Energy: -39736.5120354 eV PBE+vdW (tier 2 basis)
C    -1.291038  1.508173  -1.893678
C    -0.669879  0.695183  -0.810537
O    0.554583  0.391285  -0.817944
H    -1.047765  2.571714  -1.744703
H    -2.377949  1.392082  -1.949404
H    -0.834901  1.216673  -2.847694
N    -1.403675  0.289943  0.269313
C    -2.432084  1.075924  0.949895
C    -1.822582  2.459537  1.258260
O    -0.574180  2.513646  1.490966
H    -0.971099  -0.460672  0.831571
H    -3.342864  1.136365  0.340880
C    -2.720485  0.436498  2.334511
C    -2.829044  -1.095005  2.355547
C    -2.313826  -1.700479  3.659432
N    -0.912220  -1.371388  4.061958
C    0.216169  -1.746863  3.367537
N    1.059580  -2.586794  4.000384
N    0.485716  -1.233919  2.160478
H    -3.633281  0.894414  2.736675
H    -1.905749  0.733763  3.013250
H    -2.309822  -1.564240  1.509825
H    -3.875943  -1.410146  2.246846
H    -2.434682  -2.793669  3.612570
H    -2.926771  -1.345972  4.498265
H    -0.803557  -1.519223  5.063514
H    2.002779  -2.747180  3.663439
H    0.753764  -3.157580  4.781400
H    1.145403  -1.855876  1.676923
N    -2.578738  3.542574  1.343457
C    -4.025803  3.670405  1.154977
H    -2.079060  4.382349  1.638470
H    -4.236898  4.668009  0.757488
H    -4.555182  3.551205  2.109024
H    -4.395344  2.932154  0.437530
Ca    0.998140  0.929190  1.326733
