36
Energy: -39737.4692942 eV PBE+vdW (tier 2 basis)
C    -1.523117  2.083746  0.849034
C    -1.349119  0.871772  1.713807
O    -0.552615  -0.037866  1.364498
H    -2.242847  2.810380  1.239685
H    -1.846172  1.759208  -0.149337
H    -0.549388  2.575772  0.724134
N    -2.077693  0.819413  2.844787
C    -2.242607  -0.194420  3.912594
C    -0.939204  -0.599921  4.613238
O    0.029767  -1.112651  3.985584
H    -2.673912  1.630323  2.981068
H    -2.829157  0.360890  4.652640
C    -3.139072  -1.426925  3.579788
C    -2.582726  -2.702227  2.925577
C    -2.473985  -2.696919  1.390839
N    -2.086270  -3.986267  0.842253
C    -0.816963  -4.441032  0.701287
N    -0.680551  -5.681893  0.179643
N    0.228553  -3.697627  1.064897
H    -3.992958  -1.042859  3.000304
H    -3.563599  -1.726738  4.549173
H    -3.279585  -3.510687  3.190876
H    -1.627215  -3.000430  3.382739
H    -1.784113  -1.930294  1.012111
H    -3.450368  -2.443275  0.955024
H    -2.836013  -4.629563  0.617164
H    0.235192  -6.084973  0.032934
H    -1.465192  -6.199221  -0.196825
H    1.082027  -4.209253  0.823240
N    -0.869326  -0.463116  5.934989
C    -1.853479  0.102269  6.864844
H    0.000090  -0.809326  6.339973
H    -2.785108  -0.476834  6.866267
H    -1.427330  0.055773  7.870772
H    -2.061091  1.154755  6.635978
Ca    0.749149  -1.663985  1.984421
