36
Energy: -39736.3378263 eV PBE+vdW (tier 2 basis)
C    0.298731  1.666381  1.245997
C    0.116662  0.348324  1.932831
O    1.143932  -0.249784  2.438680
H    -0.648442  2.106462  0.919026
H    0.939624  1.524517  0.364304
H    0.809936  2.372494  1.913912
N    -1.091274  -0.160910  1.996309
C    -1.577358  -1.426352  2.550046
C    -3.105557  -1.341772  2.237151
O    -3.561234  -0.242475  1.897424
H    -1.924896  0.373118  1.657459
H    -1.119143  -2.258753  1.995027
C    -1.283020  -1.601639  4.054960
C    -1.750952  -0.449391  4.956684
C    -0.915840  -0.336485  6.237503
N    0.472623  -0.012195  5.889220
C    1.608029  -0.533777  6.400861
N    1.559723  -1.105858  7.618261
N    2.725548  -0.493918  5.652932
H    -0.197257  -1.737186  4.161683
H    -1.733852  -2.546217  4.386145
H    -2.805911  -0.571107  5.235406
H    -1.701393  0.513486  4.423431
H    -0.916828  -1.290397  6.783326
H    -1.337811  0.432672  6.900386
H    0.603392  0.672766  5.153048
H    2.350600  -1.626463  7.977330
H    0.815172  -0.895717  8.273062
H    3.552025  -0.601523  6.247802
N    -3.863779  -2.442166  2.363430
C    -3.467920  -3.814664  2.657741
H    -4.849581  -2.273766  2.170580
H    -2.432566  -4.001673  2.352676
H    -4.105217  -4.495998  2.083941
H    -3.581313  -4.054566  3.724346
Ca    2.941687  -0.665541  3.422210
