36
Energy: -39737.5812786 eV PBE+vdW (tier 2 basis)
C    0.134768  -1.172002  0.462782
C    0.024052  -0.424662  1.755102
O    0.964317  0.324598  2.142081
H    0.279752  -0.454531  -0.355927
H    -0.733714  -1.799891  0.238994
H    1.034454  -1.801631  0.494172
N    -1.095541  -0.595167  2.479852
C    -1.445936  -0.049073  3.810045
C    -1.716956  1.469990  3.712476
O    -0.761851  2.278782  3.545523
H    -1.785340  -1.221407  2.075371
H    -2.384901  -0.559119  4.061440
C    -0.428116  -0.313657  4.943212
C    0.308788  -1.659503  4.933581
C    1.682850  -1.555892  5.621833
N    2.515897  -0.553092  4.950607
C    2.964355  0.618780  5.479032
N    3.339657  0.610467  6.776383
N    2.978747  1.707629  4.708204
H    -0.974728  -0.186971  5.888877
H    0.315332  0.493508  4.932993
H    0.466354  -2.015323  3.904637
H    -0.279632  -2.440457  5.433706
H    2.179524  -2.535392  5.611090
H    1.565899  -1.257424  6.671564
H    2.528038  -0.588013  3.935716
H    3.578422  1.475666  7.245195
H    3.642752  -0.247384  7.223446
H    3.609700  2.414669  5.095206
N    -2.976025  1.871548  3.829699
C    -3.422778  3.264230  3.784729
H    -3.691226  1.160159  3.954788
H    -4.149981  3.433849  4.585922
H    -3.896390  3.479147  2.818375
H    -2.561577  3.921756  3.923579
Ca    1.420572  2.239688  3.097565
