36
Energy: -39736.6844902 eV PBE+vdW (tier 2 basis)
C    0.097186  0.930096  1.648998
C    0.090892  -0.463115  2.180198
O    0.775013  -0.795670  3.183396
H    -0.601055  1.550520  2.232839
H    -0.178109  0.986117  0.590879
H    1.095762  1.356554  1.799303
N    -0.684538  -1.423005  1.589446
C    -2.071032  -1.211422  1.193492
C    -2.826732  -0.681626  2.434106
O    -2.392960  -0.990430  3.585871
H    -0.508141  -2.350684  1.984137
H    -2.100783  -0.484646  0.372825
C    -2.776138  -2.544588  0.751342
C    -1.868695  -3.738941  0.377364
C    -2.185374  -5.054732  1.125116
N    -2.470370  -4.923952  2.567559
C    -1.667752  -4.384079  3.497192
N    -2.227398  -4.063158  4.763561
N    -0.423589  -3.981208  3.369753
H    -3.434595  -2.297581  -0.088561
H    -3.441478  -2.853658  1.569645
H    -0.806038  -3.488078  0.482635
H    -1.976598  -3.967668  -0.690562
H    -1.369844  -5.775631  0.966491
H    -3.087104  -5.512737  0.702390
H    -3.324765  -5.365508  2.893758
H    -1.842396  -4.652665  5.505795
H    -3.246615  -4.077320  4.808400
H    0.076435  -4.384936  2.575408
N    -3.926310  0.046847  2.294071
C    -4.602850  0.460495  1.062439
H    -4.379131  0.302790  3.171878
H    -3.894485  0.539946  0.232716
H    -5.050527  1.446168  1.224126
H    -5.396353  -0.249245  0.795778
Ca    -0.593431  -1.954057  4.565836
