36
Energy: -39734.4898 eV PBE+vdW (tier 2 basis)
C    -1.015048  -2.540183  0.932222
C    -0.560985  -1.165341  1.281037
O    0.738537  -0.912010  1.217504
H    -0.604326  -2.827884  -0.044610
H    -2.104715  -2.623877  0.901628
H    -0.627407  -3.254339  1.672880
N    -1.343899  -0.200567  1.640096
C    -2.799371  -0.111103  1.791465
C    -2.971944  1.441933  1.764257
O    -1.928496  2.117648  1.957338
H    -1.031596  0.822309  1.831940
H    -3.309649  -0.568332  0.933218
C    -3.243724  -0.748097  3.134536
C    -4.749268  -0.694736  3.415492
C    -5.589822  -1.563756  2.457719
N    -6.976462  -1.162872  2.352294
C    -7.382445  -0.170014  1.501593
N    -8.738125  -0.000481  1.418552
N    -6.486647  0.542220  0.861140
H    -2.700209  -0.238991  3.943859
H    -2.903001  -1.796382  3.140588
H    -5.104030  0.342335  3.371545
H    -4.912158  -1.023815  4.451355
H    -5.563497  -2.614720  2.777371
H    -5.179790  -1.525805  1.438499
H    -7.640089  -1.514957  3.031240
H    -9.097893  0.715654  0.801320
H    -9.359103  -0.783907  1.584691
H    -6.930259  1.123575  0.147450
N    -4.178330  1.930068  1.555618
C    -4.430272  3.368425  1.562220
H    -5.001040  1.293198  1.330384
H    -3.943422  3.859188  0.709238
H    -4.052740  3.825251  2.484566
H    -5.511192  3.523786  1.498463
Ca    2.636586  -0.373251  1.127775
