36
Energy: -39736.1563089 eV PBE+vdW (tier 2 basis)
C    1.727083  1.263980  1.967392
C    0.768652  0.360939  2.686641
O    1.312455  -0.659205  3.324927
H    2.303572  0.687067  1.231289
H    1.210948  2.089516  1.470173
H    2.452596  1.677674  2.681112
N    -0.505288  0.627915  2.635180
C    -1.494662  -0.261827  3.279720
C    -1.233777  -0.430633  4.783895
O    -0.652188  -1.456113  5.275736
H    -1.438854  1.353526  1.067249
H    -2.442231  0.294160  3.225345
C    -1.704688  -1.601287  2.529103
C    -3.167298  -1.997632  2.257282
C    -3.988545  -1.068380  1.341133
N    -3.372069  -0.824987  0.027299
C    -2.424500  0.094951  -0.206851
N    -1.537208  -0.077274  -1.196559
N    -2.325272  1.218437  0.535722
H    -1.246024  -2.427207  3.091377
H    -1.148656  -1.541551  1.583352
H    -3.725154  -2.084588  3.203034
H    -3.169495  -3.007457  1.821031
H    -4.972606  -1.514758  1.155556
H    -4.193698  -0.104973  1.823612
H    -3.555759  -1.510477  -0.700676
H    -1.064044  0.733724  -1.580452
H    -1.461385  -0.951009  -1.704467
H    -3.146189  1.460052  1.080370
N    -1.616310  0.542468  5.602196
C    -2.258823  1.812160  5.254744
H    -1.434948  0.368634  6.589940
H    -3.345586  1.691550  5.151592
H    -2.068875  2.522321  6.065184
H    -1.826785  2.218328  4.334666
Ca    1.323785  -2.101928  4.747802
