36
Energy: -39736.4358585 eV PBE+vdW (tier 2 basis)
C    -0.312455  1.318123  0.240034
C    -0.554709  1.281815  1.725087
O    -0.656372  2.467624  2.301246
H    -1.201648  1.731062  -0.257179
H    -0.095727  0.329914  -0.174695
H    0.518933  1.993521  -0.001636
N    -0.647372  0.130365  2.322310
C    -1.063693  -0.042710  3.707736
C    -0.520802  0.891692  4.793630
O    0.586884  1.524296  4.690862
H    -0.692077  -1.345743  1.340335
H    -2.160648  0.080804  3.735608
C    -0.782507  -1.510424  4.151271
C    0.686588  -1.962095  4.151765
C    1.303060  -2.322348  2.790930
N    0.653326  -3.457279  2.128809
C    -0.218603  -3.386632  1.109485
N    -0.554926  -4.521285  0.467119
N    -0.745421  -2.218364  0.742013
H    -1.388096  -2.162476  3.505965
H    -1.187615  -1.657071  5.160696
H    0.769065  -2.841272  4.807930
H    1.331349  -1.196139  4.609962
H    2.356744  -2.596244  2.935301
H    1.284179  -1.470942  2.102461
H    0.897456  -4.385584  2.457729
H    -1.310464  -4.538596  -0.205690
H    -0.007635  -5.367367  0.564027
H    -1.302825  -2.179855  -0.102767
N    -1.201398  1.016929  5.934444
C    -2.478289  0.428287  6.340951
H    -0.711662  1.556020  6.647931
H    -3.141401  0.297385  5.480728
H    -2.961442  1.111011  7.047172
H    -2.330308  -0.539974  6.836406
Ca    0.733326  3.317658  3.530519
