36
Energy: -39736.8842888 eV PBE+vdW (tier 2 basis)
C    0.286290  0.443483  0.140540
C    0.079488  0.274964  1.609093
O    1.030072  0.024539  2.395593
H    0.537729  1.492686  -0.082274
H    -0.594916  0.164219  -0.446836
H    1.146562  -0.162856  -0.163562
N    -1.169653  0.416849  2.143349
C    -2.130265  1.443984  1.774659
C    -1.465990  2.838030  1.915638
O    -0.413408  2.970569  2.606069
H    -1.221564  0.124442  3.117526
H    -2.419378  1.310581  0.722633
C    -3.413517  1.301249  2.636543
C    -3.284779  0.933640  4.129156
C    -2.594229  1.905684  5.106217
N    -1.178409  1.531586  5.379443
C    -0.416047  2.316889  6.313402
N    -1.063697  3.063712  7.218081
N    0.874629  2.240680  6.125147
H    -4.025948  0.517774  2.170188
H    -3.995550  2.228127  2.545752
H    -2.862065  -0.078705  4.253165
H    -4.320235  0.812994  4.475410
H    -3.180728  1.900752  6.038587
H    -2.599358  2.934730  4.723364
H    -1.133742  0.557097  5.696045
H    -0.550549  3.671519  7.848571
H    -2.050374  2.940096  7.412958
H    1.437903  2.673745  6.860056
N    -2.000379  3.887953  1.301761
C    -3.186126  3.966134  0.445883
H    -1.504472  4.763978  1.468323
H    -2.979171  4.661679  -0.374270
H    -4.051691  4.336523  1.010404
H    -3.429278  2.991206  0.014533
Ca    1.009632  1.777827  3.851630
