36
Energy: -39737.2587767 eV PBE+vdW (tier 2 basis)
C    0.327979  -0.924074  1.040453
C    -0.450771  -1.027399  2.315088
O    -0.137454  -1.876696  3.189941
H    -0.026308  -0.136531  0.367438
H    0.277571  -1.889630  0.518798
H    1.384742  -0.745475  1.278985
N    -1.489350  -0.178275  2.477007
C    -2.467258  -0.134363  3.585009
C    -1.755442  0.250950  4.900259
O    -1.148341  -0.617967  5.586043
H    -1.661893  0.460910  1.706957
H    -3.156275  0.676092  3.319043
C    -3.269343  -1.440661  3.706078
C    -4.386396  -1.430087  4.769691
C    -4.625602  -2.794275  5.449508
N    -3.608337  -3.110302  6.463002
C    -2.375700  -3.623182  6.272251
N    -2.056412  -4.250379  5.042699
N    -1.334136  -3.527345  7.064186
H    -2.555721  -2.247614  3.894301
H    -3.698353  -1.651680  2.716908
H    -5.331024  -1.105752  4.312009
H    -4.172160  -0.696882  5.563538
H    -4.691303  -3.610585  4.715647
H    -5.592772  -2.788866  5.966484
H    -3.712000  -2.597296  7.335210
H    -1.636243  -5.166084  5.216043
H    -2.820825  -4.349338  4.377051
H    -1.540139  -3.142203  7.988465
N    -1.791721  1.518154  5.302898
C    -2.423794  2.672843  4.654393
H    -1.286144  1.696027  6.170362
H    -1.996155  2.858209  3.661608
H    -2.228963  3.552511  5.273902
H    -3.510899  2.547168  4.580264
Ca    -0.079396  -2.548951  5.301355
