36
Energy: -39734.2101152 eV PBE+vdW (tier 2 basis)
C    -0.154910  0.224593  0.831014
C    -0.657893  -0.369570  2.097253
O    -0.612472  -1.631739  2.279217
H    -0.736005  1.089551  0.494615
H    -0.099501  -0.532374  0.044066
H    0.867558  0.594115  1.024422
N    -1.135349  0.401457  3.106803
C    -2.153943  1.457168  2.956358
C    -3.360970  0.826124  2.195756
O    -3.446919  -0.442774  2.065370
H    -1.215932  -0.119041  3.980092
H    -2.521509  1.615600  3.983676
C    -1.693452  2.841137  2.451959
C    -0.552562  3.491380  3.255559
C    0.849139  3.021219  2.864897
N    1.866782  3.812269  3.545164
C    3.230014  3.513855  3.334914
N    3.544360  3.262480  1.999970
N    4.140503  3.436334  4.233063
H    -2.564209  3.510008  2.538098
H    -1.441060  2.810744  1.382475
H    -0.724706  3.341993  4.334489
H    -0.604255  4.576564  3.088529
H    0.975093  3.143774  1.779889
H    0.973982  1.941887  3.083499
H    1.676042  3.959933  4.533798
H    4.548948  3.137543  1.892037
H    3.184880  3.951455  1.342211
H    3.783756  3.533487  5.187362
N    -4.307874  1.616238  1.733544
C    -5.537061  1.154668  1.078210
H    -4.183532  2.618918  1.849173
H    -6.137628  2.030327  0.819963
H    -6.110222  0.511064  1.755701
H    -5.295580  0.601423  0.163119
Ca    -2.609551  -2.432802  2.194980
