36
Energy: -39736.3634676 eV PBE+vdW (tier 2 basis)
C    -0.251292  -1.970071  -0.257020
C    -0.227898  -2.230363  1.217480
O    0.637640  -3.050679  1.703860
H    0.731218  -1.602594  -0.582151
H    -1.014705  -1.241465  -0.546811
H    -0.444970  -2.912126  -0.788375
N    -1.105029  -1.601372  1.972239
C    -1.430881  -1.745562  3.391754
C    -2.989164  -1.591287  3.387429
O    -3.504304  -1.024817  2.420529
H    -1.881276  -1.074273  1.522473
H    -1.119893  -2.741059  3.740670
C    -0.818987  -0.606660  4.243084
C    0.712031  -0.605779  4.339117
C    1.267814  -1.602278  5.376837
N    2.621174  -2.044848  5.013488
C    2.872108  -3.197669  4.380888
N    3.968203  -3.255279  3.476667
N    2.141084  -4.291279  4.358827
H    -1.264710  -0.646195  5.248490
H    -1.155890  0.345123  3.808958
H    1.055183  0.406552  4.592098
H    1.141935  -0.835304  3.352897
H    0.634653  -2.494962  5.445435
H    1.296605  -1.163654  6.381646
H    3.358030  -1.344582  5.050678
H    4.660095  -3.959285  3.746716
H    4.433598  -2.365644  3.292425
H    1.435364  -4.344367  5.093714
N    -3.649248  -2.050418  4.461484
C    -5.094842  -1.905635  4.636501
H    -3.127024  -2.512080  5.198194
H    -5.503975  -1.440939  3.735627
H    -5.313615  -1.269835  5.503030
H    -5.557745  -2.888666  4.781325
Ca    2.119367  -4.488608  2.096888
