36
Energy: -39737.0391219 eV PBE+vdW (tier 2 basis)
C    0.920745  0.299289  0.297895
C    0.616541  0.100040  1.745649
O    1.534307  0.096622  2.613194
H    1.601708  -0.494004  -0.038974
H    1.455675  1.250711  0.175128
H    0.029466  0.301974  -0.337977
N    -0.671729  -0.071987  2.118361
C    -1.033519  -0.187788  3.531636
C    -0.732012  -1.616630  4.044930
O    0.344100  -1.782350  4.696658
H    -1.392175  -0.047605  1.402097
H    -0.268836  0.415746  4.035870
C    -2.374822  0.448432  3.946671
C    -2.266022  1.035149  5.370931
C    -1.388448  2.312103  5.401230
N    -0.563072  2.535585  6.594626
C    0.689620  2.021966  6.726176
N    1.609025  2.743137  7.392855
N    1.023149  0.838716  6.199079
H    -3.208833  -0.259749  3.896160
H    -2.612231  1.254643  3.235335
H    -1.874041  0.274138  6.063995
H    -3.271300  1.265651  5.744544
H    -2.032464  3.193193  5.297024
H    -0.713175  2.329844  4.530920
H    -0.815783  3.320435  7.186439
H    1.455156  3.711264  7.648427
H    2.417546  2.277783  7.786004
H    0.163508  0.282591  6.155813
N    -1.523616  -2.653609  3.802356
C    -2.764178  -2.737517  3.032337
H    -1.185644  -3.527761  4.207182
H    -3.638837  -2.738341  3.695584
H    -2.756231  -3.674090  2.464220
H    -2.846794  -1.912388  2.321063
Ca    2.134998  -0.445918  4.688060
