36
Energy: -39735.0499131 eV PBE+vdW (tier 2 basis)
C    -0.110059  0.253270  0.266164
C    -0.176632  0.174176  1.748973
O    0.881125  0.051553  2.456765
H    0.676758  0.945522  -0.058148
H    -1.073975  0.497080  -0.195140
H    0.196282  -0.744769  -0.089819
N    -1.369165  0.243318  2.379997
C    -2.368971  1.277693  2.063161
C    -1.638758  2.626555  2.182820
O    -0.646572  2.735564  3.002206
H    -1.338082  -0.023379  3.366453
H    -2.744224  1.113654  1.028702
C    -3.511424  1.126088  3.102812
C    -4.818018  1.912468  2.906960
C    -5.845570  1.272037  1.953231
N    -5.424222  1.228729  0.557974
C    -4.722302  0.194431  -0.034132
N    -5.245850  -1.056223  0.176511
N    -3.627758  0.488456  -0.685010
H    -3.093542  1.374938  4.092935
H    -3.746263  0.050327  3.122871
H    -4.618945  2.953015  2.606819
H    -5.298336  1.990707  3.893607
H    -6.787189  1.833735  2.023651
H    -6.066802  0.248653  2.282570
H    -5.192137  2.124408  0.144679
H    -4.783406  -1.838994  -0.270935
H    -6.255703  -1.144120  0.238791
H    -3.331646  -0.280952  -1.292391
N    -1.981682  3.672015  1.456457
C    -2.918662  3.756242  0.331026
H    -1.471312  4.527040  1.683172
H    -3.095703  2.762214  -0.101461
H    -2.465592  4.396795  -0.433742
H    -3.860515  4.217850  0.652824
Ca    1.134872  1.793254  3.706583
