36
Energy: -39736.4639964 eV PBE+vdW (tier 2 basis)
C    0.020306  0.540531  0.361479
C    -0.050323  0.321090  1.836241
O    0.968964  0.531286  2.569683
H    -0.260238  1.580562  0.133724
H    -0.648709  -0.121388  -0.199042
H    1.050767  0.387962  0.025714
N    -1.185974  -0.093330  2.412695
C    -2.538713  -0.010136  1.861859
C    -2.853197  1.454479  1.457792
O    -2.335833  2.413902  2.059724
H    -1.115515  -0.270871  3.412568
H    -2.596552  -0.642204  0.963078
C    -3.593059  -0.543754  2.876826
C    -3.334076  -0.389732  4.388701
C    -3.058276  1.021885  4.980183
N    -1.738776  1.068470  5.632774
C    -0.644945  1.784182  5.330490
N    -0.625688  2.666316  4.213248
N    0.529783  1.697957  5.924954
H    -3.728401  -1.617598  2.691065
H    -4.552239  -0.073915  2.620113
H    -2.517498  -1.064699  4.694592
H    -4.218991  -0.810852  4.883721
H    -3.810875  1.267890  5.739595
H    -3.103129  1.810320  4.223126
H    -1.626558  0.426240  6.415608
H    -1.340670  2.504208  3.463870
H    -0.690262  3.638203  4.529216
H    0.548965  1.150738  6.787718
N    -3.727039  1.591170  0.454113
C    -4.247752  2.873167  -0.018530
H    -4.078057  0.750788  0.003427
H    -5.332277  2.921746  0.137845
H    -4.035152  2.992490  -1.087388
H    -3.762222  3.675458  0.542274
Ca    1.739296  1.943234  4.009091
