36
Energy: -39736.9924604 eV PBE+vdW (tier 2 basis)
C    -0.716654  -1.781205  -0.056660
C    -0.627222  -1.178985  1.306958
O    0.489626  -0.962220  1.852347
H    -1.743221  -1.878997  -0.424562
H    -0.244026  -2.772838  -0.042495
H    -0.137498  -1.164663  -0.757043
N    -1.773487  -0.861211  1.947297
C    -1.783978  -0.237811  3.271379
C    -1.456812  -1.274860  4.374596
O    -0.250416  -1.390355  4.739408
H    -2.655904  -1.076021  1.490443
H    -0.905896  0.412492  3.290021
C    -2.998981  0.652734  3.558182
C    -3.147287  1.948586  2.722706
C    -1.878596  2.746168  2.337428
N    -0.838676  2.778420  3.380748
C    0.423492  2.304980  3.192705
N    0.933520  2.359855  1.929233
N    1.150563  1.693328  4.127190
H    -2.926699  0.918102  4.623554
H    -3.940605  0.087142  3.467900
H    -3.831021  2.601432  3.282086
H    -3.664469  1.734516  1.776901
H    -2.179125  3.765251  2.058232
H    -1.427259  2.288191  1.448921
H    -1.156270  2.817677  4.344087
H    1.943254  2.287677  1.866829
H    0.533645  3.019910  1.271207
H    0.736573  1.819636  5.055611
N    -2.433318  -2.006234  4.890941
C    -2.266765  -3.035805  5.918880
H    -3.378943  -1.834885  4.558853
H    -2.918502  -2.811120  6.771039
H    -1.224949  -3.046828  6.246063
H    -2.535934  -4.017232  5.509806
Ca    1.563499  -0.567349  3.742131
