36
Energy: -39736.521154 eV PBE+vdW (tier 2 basis)
C    -0.539904  2.006445  0.770844
C    -0.542671  0.893741  1.767778
O    0.412011  0.798418  2.628256
H    -0.494472  2.971418  1.292796
H    -1.420176  1.991696  0.120796
H    0.361786  1.928553  0.147608
N    -1.525434  0.018174  1.747751
C    -1.688141  -1.163614  2.586955
C    -2.783766  -1.975165  1.830482
O    -3.510372  -1.366721  1.043063
H    -2.305273  0.074604  1.065286
H    -0.733720  -1.713052  2.620235
C    -2.128175  -0.785729  4.023083
C    -1.790223  -1.855835  5.066671
C    -1.785295  -1.355244  6.522433
N    -1.063537  -0.083733  6.733097
C    0.168997  0.201554  6.302174
N    0.564121  1.580130  6.240971
N    1.074151  -0.601706  5.795319
H    -3.203021  -0.554836  4.026172
H    -1.614425  0.151631  4.278382
H    -0.818807  -2.311729  4.819636
H    -2.517701  -2.678813  5.033848
H    -1.376129  -2.129419  7.188181
H    -2.810469  -1.162005  6.859688
H    -1.558512  0.634860  7.252718
H    1.242178  1.804634  6.975546
H    -0.210032  2.244525  6.299473
H    0.893889  -1.594906  5.940725
N    -2.891512  -3.280678  2.130972
C    -3.896218  -4.151950  1.518823
H    -2.168527  -3.714401  2.694291
H    -4.261406  -4.867332  2.263069
H    -3.474529  -4.698628  0.665500
H    -4.726262  -3.533195  1.167231
Ca    1.843120  0.808127  4.154969
