36
Energy: -39735.6791484 eV PBE+vdW (tier 2 basis)
C    -1.888947  1.059022  -0.053488
C    -1.777853  0.353068  1.257392
O    -0.933938  -0.605508  1.389603
H    -2.638175  1.856636  -0.042931
H    -2.133812  0.327443  -0.836032
H    -0.912748  1.488345  -0.317486
N    -2.564908  0.743328  2.250471
C    -2.743377  0.123742  3.580496
C    -1.475815  0.235404  4.433217
O    -0.497603  -0.573455  4.265876
H    -3.353947  1.411114  2.018169
H    -3.496669  0.768860  4.041838
C    -3.336003  -1.318392  3.575048
C    -4.612741  -1.429243  4.438653
C    -5.955800  -1.217659  3.686864
N    -5.944571  -0.223347  2.616394
C    -5.596762  1.097394  2.726355
N    -5.658429  1.641430  4.005632
N    -5.116856  1.842526  1.765688
H    -2.588099  -2.028732  3.956890
H    -3.546379  -1.608744  2.536410
H    -4.536242  -0.724308  5.279507
H    -4.661863  -2.425389  4.898471
H    -6.745791  -0.999856  4.421741
H    -6.255522  -2.157979  3.209012
H    -5.934355  -0.584871  1.670692
H    -5.695368  2.657805  3.963578
H    -6.383131  1.263110  4.610759
H    -5.171443  1.357686  0.864329
N    -1.380346  1.157445  5.376626
C    -2.305447  2.221247  5.774475
H    -0.495198  1.131185  5.886832
H    -2.345306  2.254846  6.868772
H    -3.312530  2.039793  5.389607
H    -1.942641  3.187709  5.401811
Ca    0.324318  -1.678003  2.652411
