36
Energy: -39736.1585915 eV PBE+vdW (tier 2 basis)
C    0.537603  -0.712552  0.594772
C    -0.077054  -0.859807  1.948793
O    0.608709  -1.335682  2.913655
H    1.257840  0.118906  0.582904
H    -0.197990  -0.560385  -0.200007
H    1.110898  -1.626372  0.389847
N    -1.360071  -0.498728  2.161991
C    -1.868715  0.811837  1.719733
C    -1.413010  1.868453  2.775739
O    -0.349703  1.541096  3.498472
H    -1.701536  -0.788909  3.079412
H    -1.320522  1.061382  0.798908
C    -3.359453  0.765336  1.359150
C    -4.368159  0.502376  2.496270
C    -5.061116  1.736539  3.095299
N    -5.858857  2.487677  2.122699
C    -5.544105  3.678023  1.583424
N    -6.493142  4.346181  0.900999
N    -4.318536  4.186812  1.705865
H    -3.457477  -0.026954  0.604940
H    -3.609751  1.692760  0.828306
H    -3.903563  -0.040952  3.334881
H    -5.145659  -0.178485  2.121979
H    -4.337094  2.423560  3.544743
H    -5.741767  1.416267  3.895940
H    -6.754675  2.091368  1.857386
H    -6.264707  5.163938  0.350467
H    -7.473488  4.108597  0.985325
H    -4.159141  5.146834  1.424955
N    -2.043778  2.983769  2.848874
C    -1.548718  3.994199  3.783063
H    -3.491470  3.641459  2.071911
H    -2.280729  4.806248  3.860265
H    -0.598777  4.425365  3.433604
H    -1.381302  3.584922  4.790011
Ca    1.049316  0.276763  4.313158
