36
Energy: -39736.5533521 eV PBE+vdW (tier 2 basis)
C    0.457849  2.985764  0.261453
C    0.460952  1.756422  1.109703
O    1.466449  0.978302  1.114052
H    -0.459715  3.575534  0.357761
H    0.587802  2.697170  -0.790615
H    1.316598  3.614705  0.532073
N    -0.616743  1.494698  1.863310
C    -0.712210  0.334058  2.747654
C    -1.529302  -0.851881  2.182272
O    -0.961730  -1.961377  2.156321
H    -1.376099  2.169865  1.834470
H    0.302700  -0.056788  2.738026
C    -1.034754  0.715231  4.204856
C    -1.119295  -0.454637  5.207537
C    0.010212  -1.512627  5.215227
N    1.353318  -0.962110  4.989114
C    2.151654  -1.147722  3.928418
N    1.733875  -1.967064  2.828664
N    3.315884  -0.571445  3.703356
H    -1.982257  1.269631  4.263178
H    -0.254173  1.424033  4.520085
H    -2.057084  -1.010961  5.064765
H    -1.197268  -0.002444  6.205791
H    -0.172643  -2.278000  4.456441
H    0.010629  -2.026214  6.185665
H    1.703239  -0.320009  5.697770
H    2.140269  -2.904211  2.907564
H    0.695164  -2.052365  2.673471
H    3.701973  -0.036787  4.483924
N    -2.797354  -0.701738  1.773724
C    -3.626328  0.499152  1.730570
H    -3.210204  -1.561280  1.413813
H    -4.677504  0.196265  1.767094
H    -3.472200  1.070698  0.804169
H    -3.450689  1.139823  2.602156
Ca    3.060837  -0.438663  1.440897
