36
Energy: -39735.6507697 eV PBE+vdW (tier 2 basis)
C    0.361257  1.039856  1.424656
C    0.537671  -0.477967  1.506757
O    1.274167  -0.869200  2.561309
H    -0.155460  1.407703  0.530734
H    1.356626  1.494254  1.471945
H    -0.195884  1.394463  2.302832
N    -0.801304  -1.202170  1.673727
C    -2.101383  -0.672504  1.249725
C    -2.869882  -0.302871  2.554417
O    -2.289329  -0.431331  3.669585
H    -0.683514  -2.151182  1.319951
H    -1.961391  0.276254  0.705595
C    -2.831704  -1.665344  0.323357
C    -2.344867  -1.748144  -1.140276
C    -0.949914  -2.356499  -1.452806
N    0.075800  -1.374786  -1.850657
C    0.834848  -0.623900  -1.040477
N    1.323633  0.542396  -1.478290
N    1.164420  -1.024822  0.221444
H    -3.899225  -1.406978  0.276051
H    -2.808270  -2.664997  0.789483
H    -2.406924  -0.753697  -1.608101
H    -3.084479  -2.362556  -1.670946
H    -1.035725  -3.042071  -2.302984
H    -0.565714  -2.970542  -0.628061
H    0.105530  -1.156363  -2.844770
H    2.137754  0.935740  -1.017901
H    1.001778  0.985140  -2.332916
H    1.288695  -2.033313  0.310792
N    -4.101133  0.179629  2.449593
C    -4.938619  0.609929  3.570862
H    -4.498738  0.271473  1.518894
H    -5.169803  1.677486  3.474114
H    -4.398589  0.435517  4.503763
H    -5.873942  0.038176  3.574839
Ca    -0.208529  -1.201633  4.034422
