36
Energy: -39734.882346 eV PBE+vdW (tier 2 basis)
C    -1.734344  0.387644  -0.017620
C    -1.571108  0.381108  1.428840
O    -0.697865  1.140649  2.001551
H    -2.680702  1.020599  -0.273306
H    -1.985142  -0.586392  -0.453110
H    -0.878766  0.846292  -0.520333
N    -2.336907  -0.391178  2.256429
C    -2.606340  -1.818152  2.031848
C    -1.256368  -2.509329  1.681317
O    -0.148133  -1.937389  1.960864
H    -2.230316  -0.128431  3.234374
H    -2.857176  -2.216328  3.030584
C    -3.809466  -2.102857  1.112957
C    -5.146468  -1.642726  1.734405
C    -6.217051  -1.216391  0.706555
N    -6.014138  0.138913  0.187051
C    -5.007006  0.490676  -0.685021
N    -4.698479  -0.437396  -1.667712
N    -4.301587  1.586943  -0.639919
H    -3.882764  -3.183807  0.918040
H    -3.652176  -1.632584  0.134470
H    -4.973356  -0.786308  2.404579
H    -5.553914  -2.447585  2.363654
H    -7.203261  -1.231660  1.186448
H    -6.277875  -1.933595  -0.122911
H    -6.227153  0.869693  0.859974
H    -4.178645  -0.013814  -2.431801
H    -5.475763  -0.998969  -2.004535
H    -4.555224  2.177652  0.156406
N    -1.274539  -3.715584  1.151598
C    -0.083393  -4.523084  0.869788
H    -2.182283  -4.116857  0.931637
H    0.512334  -4.060648  0.073526
H    -0.408641  -5.514040  0.543551
H    0.528598  -4.623143  1.773161
Ca    0.945255  -0.127910  2.425770
