36
Energy: -39737.3029052 eV PBE+vdW (tier 2 basis)
C    -1.133005  0.354587  0.439563
C    -1.748330  -0.127159  1.718701
O    -2.542174  -1.103565  1.712904
H    -0.437032  1.189955  0.568052
H    -1.939830  0.663754  -0.239307
H    -0.609693  -0.478529  -0.046823
N    -1.420446  0.533970  2.844340
C    -1.926895  0.425677  4.225903
C    -1.562327  -0.901184  4.908043
O    -1.789784  -2.017406  4.368535
H    -0.770050  1.301524  2.706861
H    -1.351127  1.204152  4.737174
C    -3.430844  0.829557  4.437875
C    -4.490424  -0.236059  4.779049
C    -5.211417  -0.917413  3.598802
N    -5.164333  -2.411424  3.756037
C    -5.825067  -3.165159  2.716889
N    -7.149448  -3.355597  2.820989
N    -5.014885  -3.601719  1.797430
H    -3.738028  1.413833  3.559295
H    -3.424188  1.546138  5.269483
H    -5.246824  0.261455  5.399264
H    -4.052050  -1.006482  5.431436
H    -4.736139  -0.675921  2.639625
H    -6.252492  -0.568037  3.534611
H    -5.542252  -2.664696  4.673232
H    -7.656523  -3.923903  2.149481
H    -7.701035  -2.899276  3.538212
H    -5.463625  -4.082737  1.015505
N    -1.036054  -0.846341  6.130663
C    -0.675848  0.329711  6.930468
H    -0.843330  -1.759848  6.539928
H    0.138868  0.897616  6.463505
H    -0.324722  -0.022346  7.904347
H    -1.541278  0.980979  7.101321
Ca    -2.934367  -3.005107  2.724610
