36
Energy: -39735.7825415 eV PBE+vdW (tier 2 basis)
C    0.205975  0.167422  0.232903
C    -0.020535  0.117227  1.705213
O    0.850733  0.612707  2.514997
H    -0.749805  0.158234  -0.311658
H    0.814211  -0.695712  -0.077787
H    0.773698  1.072073  -0.011904
N    -1.132909  -0.447209  2.154788
C    -1.637414  -0.381631  3.532990
C    -0.931526  -1.404229  4.441246
O    0.280540  -1.197525  4.786008
H    -1.847609  -0.817554  1.449803
H    -1.317426  0.590869  3.945149
C    -3.183591  -0.336205  3.524462
C    -4.083194  -1.529713  3.112491
C    -3.764843  -2.340751  1.840863
N    -3.205135  -1.549648  0.736656
C    -3.880569  -0.441015  0.119820
N    -5.231550  -0.357162  0.358070
N    -3.109810  0.377407  -0.496627
H    -3.428576  0.513340  2.870667
H    -3.501885  -0.022342  4.529073
H    -5.084587  -1.090441  3.015782
H    -4.206326  -2.256075  3.934931
H    -4.669546  -2.906260  1.559466
H    -3.000910  -3.102514  2.058674
H    -2.779232  -2.130846  0.015900
H    -5.771441  -1.215967  0.410983
H    -5.726970  0.403802  -0.096079
H    -3.620352  1.097014  -1.015006
N    -1.578096  -2.467091  4.876285
C    -1.005818  -3.481152  5.766251
H    -2.548666  -2.569586  4.589310
H    -1.802043  -4.167187  6.065722
H    -0.582520  -3.005455  6.658024
H    -0.218504  -4.043597  5.249912
Ca    1.857623  0.156425  4.271587
