36
Energy: -39736.204228 eV PBE+vdW (tier 2 basis)
C    0.442266  1.191805  0.220075
C    -0.060650  0.216917  1.239592
O    0.729467  -0.178969  2.188635
H    0.771705  2.113234  0.720215
H    -0.317212  1.453171  -0.523378
H    1.306256  0.761921  -0.306206
N    -1.296129  -0.206513  1.142446
C    -2.025122  -1.187605  1.943529
C    -3.190555  -1.565657  0.968440
O    -3.400439  -0.804283  0.016374
H    -1.917360  0.067096  0.342779
H    -1.372236  -2.048426  2.146675
C    -2.565944  -0.582312  3.277368
C    -2.396792  -1.475991  4.530993
C    -1.579524  -0.831618  5.652136
N    -0.222266  -0.553349  5.180956
C    0.859893  -0.268650  5.931554
N    0.726160  -0.214331  7.268195
N    2.039841  -0.072208  5.312431
H    -3.623114  -0.322299  3.142507
H    -2.063349  0.384197  3.428022
H    -1.921980  -2.432026  4.266721
H    -3.377923  -1.731754  4.948520
H    -1.531671  -1.529807  6.500813
H    -2.066899  0.095470  5.999212
H    -0.114388  -0.406323  4.180292
H    1.530383  -0.086657  7.869064
H    -0.176307  -0.281393  7.721695
H    2.752016  0.206028  5.991265
N    -3.932213  -2.657942  1.205978
C    -3.799467  -3.659199  2.255535
H    -4.698410  -2.772697  0.545043
H    -2.746649  -3.831457  2.506711
H    -4.204526  -4.606388  1.885339
H    -4.351606  -3.381724  3.163920
Ca    2.609119  -0.262558  3.172902
