36
Energy: -39736.1252732 eV PBE+vdW (tier 2 basis)
C    -2.560373  0.266640  0.429583
C    -1.897613  -0.003878  1.747396
O    -0.585286  -0.130398  1.716728
H    -2.324550  -0.539455  -0.278643
H    -2.159673  1.193630  -0.002964
H    -3.644628  0.361788  0.531059
N    -2.637818  -0.103651  2.816697
C    -2.040496  -0.433526  4.127299
C    -1.005431  0.624498  4.545779
O    0.251919  0.449310  4.412996
H    -4.280455  -1.005061  2.818770
H    -2.863509  -0.320727  4.848066
C    -1.511388  -1.889630  4.256227
C    -2.052755  -2.709047  5.448871
C    -3.385123  -3.465950  5.276190
N    -4.614728  -2.666758  5.419947
C    -5.091209  -1.803647  4.513305
N    -5.935326  -0.824758  4.884610
N    -4.729617  -1.863234  3.218864
H    -0.416665  -1.864262  4.360497
H    -1.712330  -2.418538  3.314193
H    -2.102163  -2.084556  6.354689
H    -1.312708  -3.489920  5.676552
H    -3.452773  -4.237424  6.051937
H    -3.403790  -4.014419  4.322544
H    -5.106877  -2.743506  6.305019
H    -6.550141  -0.421426  4.185579
H    -6.183533  -0.681395  5.856681
H    -4.247365  -2.710140  2.935694
N    -1.442008  1.776052  5.042077
C    -2.827589  2.204213  5.239259
H    -0.709716  2.432528  5.309728
H    -3.209668  1.870234  6.213348
H    -3.459496  1.828742  4.428440
H    -2.853288  3.298066  5.216557
Ca    1.249044  -0.053167  2.577157
