36
Energy: -39735.9399639 eV PBE+vdW (tier 2 basis)
C    0.910884  2.163470  1.669735
C    0.440121  1.533382  2.933337
O    1.171686  1.574201  3.991978
H    0.448618  1.686937  0.790086
H    2.003072  2.112032  1.610525
H    0.637361  3.230384  1.686787
N    -0.751401  0.944619  2.945520
C    -1.449009  0.446701  4.136781
C    -0.890366  -0.927535  4.572646
O    0.252396  -0.973346  5.140805
H    -1.335842  0.977076  2.057775
H    -1.177414  1.107013  4.977558
C    -2.982571  0.555484  3.982610
C    -3.716507  -0.084403  2.776179
C    -3.843274  0.797229  1.523392
N    -2.566782  0.984115  0.823519
C    -1.997473  0.001006  -0.046271
N    -2.771459  -1.114958  -0.278345
N    -0.790087  0.232109  -0.415194
H    -3.216673  1.630323  3.999094
H    -3.413539  0.162807  4.915361
H    -4.737673  -0.319330  3.107379
H    -3.279369  -1.046008  2.459210
H    -4.196988  1.795982  1.812625
H    -4.629996  0.385225  0.871185
H    -2.458080  1.905220  0.404198
H    -2.389620  -1.782127  -0.941537
H    -3.775684  -0.994354  -0.375143
H    -0.447741  -0.436173  -1.109294
N    -1.601823  -2.021776  4.387794
C    -1.205596  -3.374993  4.778706
H    -2.500420  -1.914474  3.922940
H    -2.068785  -3.884839  5.219410
H    -0.397273  -3.320595  5.511121
H    -0.866756  -3.937485  3.899248
Ca    1.907835  0.332152  5.483196
