36
Energy: -39736.166912 eV PBE+vdW (tier 2 basis)
C    -0.528781  0.668091  0.918256
C    -0.538032  0.099607  2.297173
O    0.481033  0.289509  3.062914
H    -1.483703  0.560521  0.396875
H    0.259623  0.185155  0.323742
H    -0.268106  1.732906  0.981376
N    -1.548681  -0.605581  2.768759
C    -2.785739  -1.096377  2.159321
C    -3.619333  -1.489123  3.416463
O    -3.006516  -1.637095  4.488984
H    -1.586295  -0.877245  3.778543
H    -3.281567  -0.293254  1.598153
C    -2.557232  -2.323703  1.239351
C    -1.783523  -3.491767  1.894094
C    -0.312426  -3.551551  1.438213
N    0.562822  -4.378245  2.272042
C    1.278467  -3.895724  3.309212
N    2.323549  -4.619319  3.769973
N    1.017758  -2.699564  3.856518
H    -2.042924  -1.985596  0.326690
H    -3.542108  -2.668766  0.901885
H    -2.268652  -4.443184  1.641966
H    -1.837621  -3.422984  2.991244
H    0.128418  -2.544688  1.407551
H    -0.252365  -3.945459  0.415102
H    0.680812  -5.353312  2.014915
H    2.593663  -4.520339  4.740837
H    2.617988  -5.471288  3.306201
H    0.046075  -2.459631  3.632989
N    -4.937153  -1.687453  3.295983
C    -5.799272  -1.516824  2.129943
H    -5.382823  -1.987193  4.161625
H    -5.363484  -0.810555  1.416130
H    -6.759490  -1.104549  2.457890
H    -5.986381  -2.473148  1.622781
Ca    1.885265  -0.691969  4.284790
