36
Energy: -39735.2684208 eV PBE+vdW (tier 2 basis)
C    -1.794079  1.035733  0.164546
C    -1.309356  0.590079  1.502286
O    -0.050119  0.641278  1.753781
H    -1.500357  2.084477  0.016440
H    -2.876187  0.947544  0.049852
H    -1.293930  0.452702  -0.620207
N    -2.174007  0.160910  2.420207
C    -1.707100  -0.185989  3.770080
C    -0.902958  -1.510077  3.740421
O    0.372687  -1.402144  3.857342
H    -3.201444  0.066895  2.135432
H    -0.913184  0.539810  3.995749
C    -2.711610  0.000814  4.938790
C    -4.177145  -0.433996  4.812575
C    -5.128803  0.627053  4.201449
N    -6.198152  0.027639  3.401133
C    -5.846885  -0.734716  2.296590
N    -4.857878  -0.088189  1.472676
N    -6.259366  -1.880251  1.911560
H    -2.683876  1.072439  5.187077
H    -2.246765  -0.499891  5.801183
H    -4.535916  -0.698474  5.816281
H    -4.271394  -1.352011  4.223797
H    -4.573279  1.341944  3.577826
H    -5.597035  1.228246  4.989678
H    -6.946143  -0.389534  3.949990
H    -4.840170  -0.621764  0.599582
H    -5.161757  0.866586  1.257918
H    -6.904647  -2.319452  2.574396
N    -1.412240  -2.717311  3.572931
C    -2.781664  -3.168498  3.312239
H    -0.708295  -3.455809  3.617377
H    -2.720920  -4.092512  2.728280
H    -3.340650  -2.434192  2.726799
H    -3.307366  -3.383497  4.250052
Ca    1.646802  -0.082035  2.766851
