36
Energy: -39735.6563069 eV PBE+vdW (tier 2 basis)
C    -0.334951  -0.078741  -0.157497
C    -0.275182  -0.000827  1.330296
O    0.823936  0.278095  1.916723
H    -0.054644  0.900850  -0.570826
H    -1.323442  -0.356807  -0.536745
H    0.409724  -0.800614  -0.518114
N    -1.384877  -0.215475  2.041004
C    -1.528412  -0.024550  3.497083
C    -0.831346  -1.167109  4.264935
O    0.411139  -1.001401  4.561492
H    -2.240818  -0.421189  1.528930
H    -0.940333  0.870818  3.758267
C    -2.989032  0.216944  3.866799
C    -3.553411  1.583918  3.482146
C    -5.065987  1.634064  3.783516
N    -5.411242  1.397036  5.174292
C    -5.895223  0.183400  5.632171
N    -6.648800  0.290578  6.782022
N    -5.565028  -0.919703  5.024736
H    -3.091317  0.096792  4.954059
H    -3.632474  -0.564399  3.439909
H    -3.417613  1.794122  2.408177
H    -3.033103  2.383728  4.032383
H    -5.580554  0.878110  3.173114
H    -5.452385  2.618883  3.488997
H    -5.613294  2.208652  5.744622
H    -7.025949  -0.567590  7.165559
H    -7.255497  1.095702  6.897929
H    -6.118046  -1.700185  5.385535
N    -1.428477  -2.282444  4.638256
C    -2.793152  -2.782569  4.403652
H    -0.813857  -2.904179  5.165405
H    -2.845797  -3.782715  4.841413
H    -2.991400  -2.866409  3.328682
H    -3.562582  -2.139795  4.862858
Ca    2.039182  -0.040710  3.618196
