36
Energy: -39737.6059755 eV PBE+vdW (tier 2 basis)
C    1.445348  -0.149923  0.867917
C    0.745034  -0.059992  2.183345
O    1.390662  -0.016129  3.267336
H    2.115584  0.714471  0.765226
H    0.763266  -0.179421  0.012057
H    2.079074  -1.046701  0.856732
N    -0.603790  -0.017302  2.196742
C    -1.361851  0.168046  3.435562
C    -1.427202  -1.161459  4.225608
O    -0.582494  -1.361629  5.146649
H    -1.098663  -0.046068  1.308877
H    -0.747820  0.827650  4.059336
C    -2.704142  0.878713  3.223011
C    -3.436898  1.234656  4.532452
C    -2.748893  2.253944  5.455035
N    -1.550244  1.705015  6.098261
C    -0.383279  2.353541  6.359385
N    -0.405329  3.704165  6.378554
N    0.725138  1.628215  6.520157
H    -3.376621  0.275052  2.590925
H    -2.505058  1.797070  2.649833
H    -3.671751  0.323252  5.106700
H    -4.413328  1.658829  4.261561
H    -3.476338  2.588014  6.210898
H    -2.446102  3.138438  4.876846
H    -1.607321  0.762877  6.470248
H    0.459973  4.225418  6.451378
H    -1.256787  4.213372  6.586088
H    1.447255  2.189075  6.980553
N    -2.353561  -2.052704  3.903662
C    -2.511666  -3.371131  4.520091
H    -3.005920  -1.807016  3.163278
H    -2.268654  -4.156147  3.793278
H    -3.548991  -3.498026  4.849963
H    -1.840856  -3.445860  5.378749
Ca    1.360766  -0.314803  5.455055
