36
Energy: -39737.4387371 eV PBE+vdW (tier 2 basis)
C    -0.808867  0.484938  -0.220049
C    -0.494379  0.358925  1.238689
O    0.685342  0.146652  1.622643
H    -1.869843  0.651543  -0.432351
H    -0.476729  -0.426109  -0.735232
H    -0.225328  1.316767  -0.637433
N    -1.520908  0.479106  2.105380
C    -1.521291  0.429334  3.582810
C    -0.475749  1.385848  4.201355
O    0.722640  1.043360  4.390954
H    -2.430806  0.634876  1.681669
H    -2.499534  0.851587  3.845382
C    -1.482869  -0.996491  4.224365
C    -0.881494  -2.168795  3.412429
C    0.191377  -2.989166  4.133880
N    1.393135  -2.166197  4.434852
C    2.717084  -2.692876  4.310771
N    2.907651  -4.015174  4.428467
N    3.605217  -1.775851  4.028958
H    -2.519892  -1.249461  4.473578
H    -0.977611  -0.890797  5.194852
H    -0.461114  -1.825544  2.460333
H    -1.686431  -2.863787  3.138938
H    0.498606  -3.808179  3.471868
H    -0.208667  -3.439601  5.054892
H    1.306149  -1.694348  5.337510
H    3.818765  -4.426404  4.253430
H    2.204566  -4.622990  4.832776
H    4.574907  -2.095941  4.058979
N    -0.924717  2.581052  4.572029
C    -0.107249  3.618399  5.201003
H    -1.903001  2.798561  4.404681
H    -0.725169  4.171436  5.915200
H    0.278991  4.316161  4.446464
H    0.729103  3.149986  5.726603
Ca    2.216112  -0.071820  3.198327
