36
Energy: -39737.229993 eV PBE+vdW (tier 2 basis)
C    -0.304711  -0.974181  0.089400
C    -0.245315  -0.595147  1.531420
O    0.847631  -0.299259  2.089049
H    -1.318632  -1.191693  -0.261795
H    0.332470  -1.853296  -0.076898
H    0.118268  -0.157168  -0.510524
N    -1.394354  -0.567276  2.244391
C    -1.384983  -0.141002  3.640966
C    -0.840826  -1.254544  4.562187
O    0.320686  -1.089892  5.047352
H    -2.268786  -0.792601  1.778617
H    -0.594996  0.622396  3.668394
C    -2.643506  0.612363  4.135692
C    -2.247004  2.046424  4.530570
C    -1.257842  2.080191  5.718580
N    -0.399924  3.256110  5.746114
C    0.683601  3.467040  4.962139
N    1.134618  4.742376  4.896652
N    1.272037  2.476309  4.279494
H    -3.103614  0.093635  4.987686
H    -3.405025  0.645697  3.343976
H    -3.144021  2.630363  4.773702
H    -1.783255  2.534589  3.660008
H    -0.617735  1.188038  5.738760
H    -1.804435  2.060776  6.669507
H    -0.698257  4.026925  6.332853
H    0.629595  5.512914  5.317694
H    2.068234  4.944642  4.562751
H    1.908168  2.922449  3.608650
N    -1.533883  -2.350685  4.835006
C    -2.851602  -2.761304  4.355139
H    -1.045705  -3.011327  5.441716
H    -2.754781  -3.623638  3.683411
H    -3.347824  -1.946166  3.824076
H    -3.477703  -3.046921  5.208476
Ca    1.786467  0.240817  4.034853
