36
Energy: -39736.5024716 eV PBE+vdW (tier 2 basis)
C    -0.141674  -0.366695  -0.496252
C    0.028699  -0.267551  0.984158
O    1.215783  -0.299149  1.474808
H    0.343152  -1.278846  -0.867673
H    0.390488  0.478149  -0.956438
H    -1.183199  -0.351027  -0.826704
N    -0.995330  -0.135584  1.809296
C    -2.436650  -0.174256  1.564201
C    -3.024206  0.500343  2.834655
O    -2.307944  0.555637  3.848594
H    -0.827620  0.066603  2.811178
H    -2.674459  0.419147  0.672020
C    -2.960572  -1.624240  1.365877
C    -3.248757  -2.478748  2.614334
C    -2.139224  -2.686224  3.653933
N    -0.916789  -3.287540  3.101006
C    0.326456  -2.894931  3.401344
N    1.415873  -3.448095  2.644573
N    0.724789  -1.969368  4.240665
H    -2.251267  -2.141248  0.702338
H    -3.897276  -1.565192  0.795084
H    -4.095139  -2.048811  3.170546
H    -3.608087  -3.458727  2.264249
H    -2.519086  -3.331879  4.459105
H    -1.868027  -1.726605  4.109697
H    -1.026529  -4.148651  2.570189
H    1.931682  -4.139084  3.197954
H    1.136680  -3.884866  1.764150
H    0.010703  -1.627920  4.885830
N    -4.282211  0.959079  2.799636
C    -5.232213  0.954721  1.690164
H    -4.599572  1.349915  3.685146
H    -5.910614  1.805488  1.808028
H    -5.831525  0.034090  1.670487
H    -4.720044  1.074183  0.729127
Ca    2.443267  -1.133690  2.977815
