36
Energy: -39735.1367221 eV PBE+vdW (tier 2 basis)
C    -0.042418  -0.342624  -0.490254
C    0.142671  0.069822  0.931426
O    1.320042  0.180053  1.417742
H    -0.787815  -1.139774  -0.605930
H    0.914621  -0.657670  -0.914171
H    -0.412730  0.517208  -1.068592
N    -0.909587  0.337072  1.737710
C    -2.106184  -0.517755  1.835125
C    -1.618770  -1.955342  2.195509
O    -0.374417  -2.151568  2.496533
H    -0.628028  0.770652  2.616717
H    -2.632052  -0.145068  2.728040
C    -3.073802  -0.442672  0.625048
C    -4.541162  -0.111402  0.942777
C    -5.287690  -0.981811  1.954811
N    -5.157656  -2.458250  1.771157
C    -5.532224  -3.043416  0.505337
N    -6.693672  -3.767062  0.551658
N    -4.699873  -2.914343  -0.463278
H    -3.054591  -1.381131  0.052524
H    -2.711297  0.353015  -0.036339
H    -5.071224  -0.137670  -0.018006
H    -4.625592  0.924292  1.306889
H    -6.346077  -0.676936  1.947021
H    -4.924025  -0.787953  2.976681
H    -5.667276  -2.919929  2.526930
H    -7.424198  -3.530828  1.213787
H    -7.013261  -4.228907  -0.292875
H    -5.053250  -3.313853  -1.336792
N    -2.488804  -2.924268  2.201174
C    -2.158668  -4.306226  2.540184
H    -3.531183  -2.728960  1.965302
H    -3.080954  -4.892794  2.503641
H    -1.727597  -4.374315  3.546609
H    -1.448865  -4.723360  1.814957
Ca    1.637543  -1.536936  2.679675
