36
Energy: -39736.0379575 eV PBE+vdW (tier 2 basis)
C    -1.119837  1.322549  2.119176
C    -2.179551  1.454760  3.014165
O    -1.967014  2.018487  4.176416
H    -3.746479  3.454972  -3.237697
H    -1.160729  0.756004  1.194489
H    -0.282678  2.012463  2.240823
N    -3.449647  0.875207  2.881471
C    -3.703804  -0.455277  2.342226
C    -2.861497  -1.539480  3.093871
O    -1.945480  -1.230783  3.905727
H    -3.964990  1.053666  3.742127
H    -4.752055  -0.671592  2.606854
C    -3.605442  -0.567863  0.802350
C    -4.660949  0.225964  0.011506
C    -4.658529  1.757436  0.145914
N    -3.383638  2.401195  -0.191099
C    -3.079869  2.999554  -1.347510
N    -1.982372  3.771679  -1.421829
N    -3.840232  2.838843  -2.439202
H    -3.727073  -1.623969  0.523395
H    -2.594901  -0.306681  0.464062
H    -5.669312  -0.113471  0.295708
H    -4.542308  -0.049590  -1.047782
H    -4.892199  2.057511  1.172615
H    -5.445687  2.187752  -0.487881
H    -2.666920  2.412347  0.537412
H    -1.631109  4.102905  -2.312000
H    -1.548249  4.141049  -0.585304
H    -4.569281  2.139307  -2.479961
N    -3.176300  -2.812641  2.884440
C    -2.510006  -3.938379  3.543946
H    -3.947505  -3.024527  2.259439
H    -2.983359  -4.864992  3.209679
H    -2.608205  -3.855771  4.632813
H    -1.446451  -3.962989  3.279169
Ca    -0.598043  0.411211  4.537150
