36
Energy: -39737.3835201 eV PBE+vdW (tier 2 basis)
C    -0.351173  0.830697  0.249511
C    -0.203195  0.285944  1.635466
O    0.922646  -0.094257  2.055694
H    -0.053713  0.050429  -0.464970
H    0.345115  1.668522  0.114497
H    -1.366536  1.163247  0.010705
N    -1.313444  0.217560  2.398636
C    -1.472903  -0.392995  3.739380
C    -0.757809  0.484306  4.784608
O    0.503871  0.480695  4.889888
H    -2.169176  0.544240  1.959848
H    -2.550254  -0.339053  3.934965
C    -1.081607  -1.886539  3.737841
C    -1.479553  -2.743332  4.949778
C    -0.717192  -2.523911  6.273609
N    0.719963  -2.273925  6.131696
C    1.622586  -3.001899  5.418717
N    1.456908  -4.342142  5.389484
N    2.582045  -2.347420  4.764602
H    -0.009476  -2.003166  3.536854
H    -1.582985  -2.312038  2.857039
H    -1.344867  -3.786871  4.634363
H    -2.554862  -2.643306  5.162636
H    -0.904091  -3.379807  6.938680
H    -1.106143  -1.652895  6.816091
H    1.016097  -1.324167  6.315434
H    0.948878  -4.814632  6.128928
H    2.072004  -4.918583  4.828077
H    3.354252  -2.972383  4.519399
N    -1.484828  1.261254  5.582761
C    -2.941473  1.438677  5.627099
H    -0.933606  1.830952  6.224596
H    -3.323375  1.854465  4.686758
H    -3.166746  2.150393  6.426063
H    -3.453926  0.497453  5.859223
Ca    2.266096  -0.286875  3.771265
