36
Energy: -39736.105053 eV PBE+vdW (tier 2 basis)
C    -0.922423  3.548534  1.263763
C    -0.707034  2.201167  1.069806
O    0.499077  1.694050  0.997185
H    -1.912939  3.974747  1.405203
H    -1.896285  1.987300  -2.444228
H    -0.134818  4.239708  0.958591
N    -1.735340  1.218729  1.156472
C    -2.829851  1.385713  2.110708
C    -2.296720  1.678079  3.541422
O    -1.068274  1.538301  3.819975
H    -1.268362  0.318580  1.293215
H    -3.426089  2.261321  1.807467
C    -3.744498  0.138716  2.080358
C    -4.717061  0.046488  0.885731
C    -4.212687  -0.570922  -0.424284
N    -3.247581  0.279151  -1.125187
C    -3.013997  0.260197  -2.439731
N    -3.592227  -0.646180  -3.240492
N    -2.194147  1.180533  -2.976947
H    -4.349068  0.126914  2.994994
H    -3.114877  -0.763961  2.144251
H    -5.154336  1.035182  0.676401
H    -5.556434  -0.588803  1.200917
H    -5.084237  -0.716173  -1.078017
H    -3.774481  -1.564306  -0.226394
H    -2.590131  0.793984  -0.514337
H    -3.561548  -0.552398  -4.248495
H    -4.048092  -1.468438  -2.867498
H    -1.839555  1.086612  -3.920361
N    -3.138967  2.091111  4.485452
C    -4.572445  2.369739  4.402422
H    -2.707338  2.213392  5.401190
H    -4.797465  3.223186  5.050670
H    -5.164889  1.509501  4.740887
H    -4.863628  2.632714  3.381263
Ca    0.796020  2.408366  2.983665
