36
Energy: -39735.957093 eV PBE+vdW (tier 2 basis)
C    -0.446773  0.044712  -0.666836
C    -0.388774  0.009257  0.719099
O    0.749773  0.217705  1.327564
H    -1.324620  -0.207192  -1.252363
H    0.354713  0.576303  -1.184890
H    -1.917760  2.531176  -1.191578
N    -1.448624  -0.370753  1.584667
C    -2.248636  -1.592796  1.423311
C    -1.363339  -2.860756  1.289672
O    -0.149314  -2.791657  0.937783
H    -1.076481  -0.304223  2.532703
H    -2.777625  -1.703886  2.383351
C    -3.327200  -1.513082  0.315715
C    -4.602974  -0.735316  0.685918
C    -4.424156  0.683295  1.250654
N    -3.536419  1.538219  0.462060
C    -3.856143  2.346654  -0.551932
N    -5.130266  2.659733  -0.824644
N    -2.874612  2.838316  -1.327287
H    -3.635150  -2.529128  0.036231
H    -2.878766  -1.098840  -0.594085
H    -5.181359  -1.301495  1.432507
H    -5.234721  -0.692905  -0.213332
H    -3.992770  0.657109  2.258755
H    -5.405947  1.159859  1.369878
H    -2.545938  1.396422  0.656732
H    -5.367226  3.225216  -1.630530
H    -5.872425  2.470150  -0.164013
H    -3.025969  3.645104  -1.920638
N    -1.884914  -4.050507  1.581123
C    -3.229817  -4.392519  2.040889
H    -1.238115  -4.828599  1.453865
H    -3.681246  -3.562896  2.593665
H    -3.157300  -5.250665  2.716764
H    -3.880338  -4.664001  1.198981
Ca    1.495095  -1.490992  0.285266
