36
Energy: -39735.4759167 eV PBE+vdW (tier 2 basis)
C    -0.496384  0.042694  0.582032
C    -1.082786  0.081608  1.951623
O    -0.407635  0.540463  2.932176
H    -0.242366  1.068441  0.278484
H    -1.167725  -0.394966  -0.163621
H    0.443681  -0.524766  0.602523
N    -2.329992  -0.359762  2.144997
C    -3.063536  -0.247015  3.418430
C    -2.462162  -1.215336  4.465596
O    -1.648522  -0.698561  5.324144
H    -2.844350  -0.700374  1.335338
H    -2.824689  0.747348  3.826730
C    -4.579829  -0.291695  3.190640
C    -5.369469  -0.073052  4.485095
C    -6.899765  -0.212767  4.309313
N    -7.303992  -1.329298  3.471486
C    -6.986094  -2.645545  3.761909
N    -7.201128  -3.530050  2.724563
N    -6.392681  -3.076441  4.833660
H    -4.883559  -1.239912  2.729018
H    -4.818402  0.501275  2.464380
H    -5.176591  0.933415  4.886617
H    -5.020151  -0.784233  5.247175
H    -7.359259  -0.252195  5.312071
H    -7.292121  0.691291  3.826320
H    -8.084477  -1.158495  2.847223
H    -7.340502  -4.492195  3.014347
H    -7.771739  -3.238680  1.939660
H    -6.408640  -2.380817  5.580703
N    -2.690628  -2.510279  4.502531
C    -3.524992  -3.379073  3.667266
H    -2.229315  -2.976443  5.286220
H    -3.046118  -4.363099  3.636775
H    -3.593442  -2.993549  2.647160
H    -4.541063  -3.466447  4.116410
Ca    0.002612  0.578827  5.015919
