36
Energy: -39734.8498824 eV PBE+vdW (tier 2 basis)
C    -3.198289  1.396650  2.392052
C    -3.631212  0.449021  3.457266
O    -3.663950  0.849611  4.671733
H    -3.542312  1.111230  1.396621
H    -2.102361  1.498135  2.381613
H    -3.598873  2.385038  2.654817
N    -4.043976  -0.816349  3.199034
C    -3.288824  -1.852408  2.467739
C    -2.165507  -2.343140  3.414228
O    -1.786443  -1.607773  4.405277
H    -4.543748  -1.208002  3.999722
H    -3.993237  -2.687615  2.332354
C    -2.736806  -1.493500  1.080310
C    -3.811002  -1.365652  -0.007099
C    -3.210745  -1.475129  -1.425181
N    -2.467637  -2.715664  -1.620967
C    -1.091168  -2.815463  -1.437475
N    -0.362938  -1.875984  -2.134211
N    -0.631583  -3.722619  -0.629645
H    -2.063148  -2.315000  0.797449
H    -2.089556  -0.607628  1.127921
H    -4.380357  -0.426822  0.077203
H    -4.551124  -2.173357  0.121324
H    -2.531235  -0.636048  -1.622236
H    -4.025945  -1.405753  -2.158875
H    -2.939381  -3.559680  -1.306785
H    0.646635  -1.947085  -2.076070
H    -0.705004  -1.617237  -3.055194
H    0.377095  -3.858175  -0.739684
N    -1.608863  -3.519124  3.215762
C    -1.910875  -4.525390  2.189182
H    -0.845496  -3.741430  3.855480
H    -2.993351  -4.592472  2.028707
H    -1.557643  -5.491540  2.561058
H    -1.405867  -4.290254  1.223543
Ca    -2.166794  -0.123292  5.871798
