36
Energy: -39736.3671243 eV PBE+vdW (tier 2 basis)
C    0.209768  -0.748879  -0.634032
C    -0.248267  -0.411643  0.748783
O    0.405920  -0.863367  1.768417
H    1.243106  -0.404394  -0.776091
H    -0.421282  -0.298852  -1.406641
H    0.201930  -1.839858  -0.763807
N    -1.314695  0.338757  0.899080
C    -1.959604  0.776316  2.132973
C    -3.308963  1.366393  1.612156
O    -3.394882  1.632455  0.410579
H    -1.850622  0.714434  0.088252
H    -2.135363  -0.098529  2.779373
C    -1.099717  1.823548  2.875793
C    -1.467652  2.025234  4.355852
C    -0.233226  2.266941  5.233160
N    0.613155  1.068526  5.220991
C    1.963973  0.996204  5.180039
N    2.678649  2.086314  5.510216
N    2.521417  -0.154991  4.768115
H    -1.144325  2.776606  2.331215
H    -0.057835  1.478958  2.815148
H    -1.995095  1.139997  4.752854
H    -2.158472  2.868037  4.484832
H    -0.534451  2.519182  6.260585
H    0.353839  3.106368  4.835623
H    0.141310  0.183355  5.371939
H    2.279890  2.837953  6.061089
H    3.677576  2.119916  5.346406
H    3.486864  -0.219151  5.104065
N    -4.272540  1.586064  2.520279
C    -5.572186  2.165018  2.176494
H    -4.142278  1.245657  3.466294
H    -5.862745  2.895305  2.939378
H    -6.341339  1.385101  2.108604
H    -5.484715  2.663495  1.207498
Ca    1.855137  -1.537304  3.113532
