36
Energy: -39736.3204955 eV PBE+vdW (tier 2 basis)
C    -1.616510  -1.344522  -0.234279
C    -1.079347  -1.191020  1.158313
O    0.005493  -1.679436  1.509331
H    -0.975416  -0.766941  -0.915213
H    -2.650786  -1.002269  -0.351014
H    -1.539052  -2.395252  -0.536113
N    -1.848856  -0.482617  2.047649
C    -1.347625  0.065143  3.313493
C    -1.103497  -1.000612  4.408086
O    -1.436860  -0.763182  5.630828
H    -2.715339  -0.092595  1.693377
H    -0.343420  0.486465  3.117376
C    -2.256280  1.205194  3.789556
C    -3.746107  0.833890  3.990512
C    -4.351929  1.201672  5.350708
N    -4.137480  2.584697  5.755586
C    -3.481819  3.010967  6.859703
N    -3.630520  4.311471  7.187007
N    -2.713719  2.182187  7.581866
H    -2.168541  2.014846  3.053265
H    -1.827981  1.625912  4.709828
H    -3.909899  -0.246887  3.861983
H    -4.355400  1.314291  3.211813
H    -3.956757  0.556181  6.148511
H    -5.433452  1.000428  5.334125
H    -4.660517  3.284070  5.238103
H    -3.072528  4.734371  7.917580
H    -4.307727  4.911721  6.731532
H    -2.429951  2.675797  8.433532
N    -0.480632  -2.094161  4.057164
C    -0.116476  -3.180141  4.958861
H    -0.156993  -2.096650  3.042364
H    0.160853  -4.049304  4.356264
H    -0.961089  -3.447155  5.604356
H    0.743919  -2.898580  5.581738
Ca    -1.792712  0.129327  7.476883
