36
Energy: -39734.8441777 eV PBE+vdW (tier 2 basis)
C    0.193061  -1.631843  -0.476971
C    0.581747  -0.483648  0.389887
O    1.212877  0.514867  -0.093428
H    0.999483  -1.804805  -1.200944
H    0.001892  -2.548203  0.089499
H    -0.706108  -1.382022  -1.062813
N    0.247814  -0.465622  1.698786
C    -1.101369  -0.784902  2.173860
C    -2.085690  0.201791  1.499275
O    -1.627198  1.288849  0.972308
H    0.701365  0.278059  2.232879
H    -1.359874  -1.806348  1.862946
C    -1.163489  -0.718928  3.716601
C    -0.690858  0.605708  4.374605
C    -1.726660  1.324263  5.259962
N    -2.811010  1.936221  4.500198
C    -4.036393  1.303311  4.295084
N    -4.874904  1.984734  3.407671
N    -4.410329  0.142759  4.710144
H    -0.557084  -1.557272  4.083686
H    -2.197221  -0.940813  4.006027
H    -0.368856  1.343023  3.617305
H    0.195103  0.400588  4.991248
H    -1.215341  2.119839  5.816169
H    -2.117089  0.634778  6.024966
H    -2.845820  2.949485  4.549220
H    -5.852448  1.742171  3.555221
H    -4.743312  2.990268  3.341074
H    -3.781370  -0.255997  5.409041
N    -3.371955  -0.055538  1.462565
C    -4.099251  -1.241023  1.926014
H    -3.958322  0.729049  1.166481
H    -4.918031  -1.428487  1.223483
H    -4.504656  -1.043148  2.935561
H    -3.445077  -2.117414  1.945533
Ca    -0.054524  2.266142  -0.061319
