36
Energy: -39736.475027 eV PBE+vdW (tier 2 basis)
C    -0.075374  -1.013822  -0.154417
C    -0.147349  -0.310092  1.158541
O    0.932513  0.014249  1.766480
H    0.593505  -0.442640  -0.812315
H    -1.045938  -1.132583  -0.643794
H    0.386306  -2.002215  -0.022309
N    -1.299539  0.013414  1.732391
C    -2.689440  -0.326942  1.433833
C    -3.483012  0.555568  2.430587
O    -2.897852  0.969140  3.455112
H    -1.260001  0.601647  2.574247
H    -2.922330  -0.035830  0.400690
C    -3.004841  -1.844248  1.611785
C    -3.544027  -2.374774  2.955581
C    -2.760840  -2.137772  4.258752
N    -1.328986  -2.449852  4.157887
C    -0.284342  -1.679217  4.486008
N    -0.470051  -0.295811  4.797564
N    0.987782  -2.021500  4.476223
H    -2.098752  -2.398807  1.330008
H    -3.751465  -2.113253  0.852613
H    -3.682805  -3.457897  2.819211
H    -4.555635  -1.982990  3.138961
H    -2.865899  -1.102317  4.592128
H    -3.197265  -2.768249  5.046929
H    -1.098659  -3.402113  3.879825
H    -0.364943  -0.142004  5.804744
H    -1.373667  0.105472  4.499715
H    1.170624  -3.021328  4.374124
N    -4.769046  0.812757  2.182177
C    -5.580037  0.390080  1.041076
H    -5.228711  1.364145  2.905260
H    -6.416127  1.087499  0.934585
H    -5.987470  -0.619765  1.185372
H    -5.002670  0.421330  0.110469
Ca    1.826153  -0.046387  3.704789
