36
Energy: -39734.6673328 eV PBE+vdW (tier 2 basis)
C    -2.847422  1.376421  3.302875
C    -2.413277  0.171047  4.064602
O    -1.721344  0.324517  5.129686
H    -3.018192  2.182394  4.027591
H    -3.750468  1.207551  2.713111
H    -2.045437  1.718054  2.629901
N    -2.742309  -1.092585  3.702254
C    -2.522298  -1.697710  2.375535
C    -0.991031  -1.894299  2.214729
O    -0.176097  -1.249436  2.977875
H    -2.562578  -1.752473  4.461280
H    -2.984813  -2.695322  2.430111
C    -3.118720  -0.978638  1.154965
C    -4.650409  -0.949181  1.111809
C    -5.190973  -0.503986  -0.269028
N    -4.863119  -1.416368  -1.358087
C    -3.586256  -1.527909  -1.904549
N    -2.916448  -0.316313  -2.059146
N    -2.981440  -2.624452  -2.230681
H    -2.761855  -1.536054  0.281674
H    -2.687968  0.023528  1.034108
H    -5.066405  -0.285796  1.886782
H    -5.043020  -1.954702  1.335907
H    -4.825276  0.502392  -0.510898
H    -6.284311  -0.426713  -0.209959
H    -5.362677  -2.300511  -1.331106
H    -2.094319  -0.436342  -2.646096
H    -3.497527  0.450720  -2.389348
H    -3.550983  -3.447172  -2.011048
N    -0.514530  -2.715920  1.301443
C    -1.230704  -3.598494  0.371944
H    0.504025  -2.729959  1.236129
H    -0.576485  -4.447404  0.150773
H    -1.488813  -3.086801  -0.574553
H    -2.147447  -3.979260  0.834492
Ca    0.314224  -0.278963  4.807055
