36
Energy: -39735.857162 eV PBE+vdW (tier 2 basis)
C    1.071531  -1.528351  1.237593
C    0.460197  -0.422231  2.032985
O    1.206360  0.418139  2.635495
H    1.650211  -1.082550  0.415306
H    0.335024  -2.220913  0.817531
H    1.782956  -2.085682  1.860174
N    -0.871212  -0.329897  2.083738
C    -1.685345  0.780342  2.618413
C    -1.783793  0.725557  4.159834
O    -0.692327  0.881726  4.827525
H    -1.392041  -1.051439  1.590181
H    -1.120506  1.706805  2.421886
C    -3.008302  0.857406  1.841393
C    -3.825014  -0.453474  1.715621
C    -5.315036  -0.226533  2.018406
N    -5.480282  0.133576  3.430313
C    -6.206134  1.264961  3.909512
N    -6.896362  1.984711  2.961117
N    -6.038044  1.532636  5.154830
H    -2.773318  1.240966  0.839680
H    -3.615677  1.641644  2.315337
H    -3.459935  -1.231828  2.407451
H    -3.728966  -0.869525  0.702630
H    -5.894267  -1.125698  1.766535
H    -5.685088  0.588516  1.384982
H    -5.656295  -0.662244  4.040374
H    -7.399135  1.480871  2.236389
H    -7.401465  2.794826  3.305530
H    -6.655950  2.276804  5.485962
N    -2.934880  0.594112  4.761010
C    -3.105529  0.610934  6.216208
H    -3.822175  0.485303  4.202366
H    -4.169289  0.799078  6.400662
H    -2.496390  1.406528  6.658204
H    -2.801623  -0.352975  6.645592
Ca    1.354466  1.242338  4.579496
