36
Energy: -39735.3308597 eV PBE+vdW (tier 2 basis)
C    -0.884570  0.547990  -0.826102
C    -0.401181  0.281337  0.552401
O    0.851156  0.238946  0.818930
H    -0.415002  1.448221  -1.243066
H    -1.976152  0.599913  -0.884491
H    -0.539308  -0.293674  -1.448669
N    -1.275941  0.071023  1.556871
C    -2.443943  0.920365  1.802476
C    -1.916728  2.302953  2.212989
O    -0.654932  2.480681  2.423472
H    -0.855217  -0.321723  2.402181
H    -3.042030  0.993364  0.853419
C    -3.340192  0.230259  2.851906
C    -4.050460  -0.994062  2.243691
C    -5.527840  -0.782419  1.885213
N    -5.877446  0.478031  1.203300
C    -5.557136  0.731824  -0.125941
N    -6.571073  1.307452  -0.848974
N    -4.341696  0.525777  -0.549989
H    -4.072308  0.946273  3.244464
H    -2.715507  -0.061421  3.711822
H    -4.019028  -1.829130  2.956533
H    -3.503248  -1.332243  1.354177
H    -6.118449  -0.776551  2.810688
H    -5.864601  -1.649294  1.295053
H    -6.806294  0.801998  1.455129
H    -6.385556  1.572663  -1.809251
H    -7.533933  1.050607  -0.658735
H    -4.289977  0.656586  -1.563098
N    -2.727511  3.336346  2.336702
C    -4.168050  3.418644  2.090140
H    -2.270976  4.198209  2.637153
H    -4.546265  2.490872  1.652546
H    -4.359401  4.250451  1.402249
H    -4.691852  3.612622  3.034682
Ca    1.358000  1.837445  2.161528
