36
Energy: -39737.3519098 eV PBE+vdW (tier 2 basis)
C    -1.650163  0.722187  0.238432
C    -1.738518  0.702193  1.727937
O    -1.249848  1.631958  2.426945
H    -2.107006  1.649585  -0.132309
H    -2.135521  -0.135633  -0.238189
H    -0.592536  0.748828  -0.057214
N    -2.360600  -0.336505  2.328434
C    -2.544792  -0.373068  3.776967
C    -1.234744  -0.782486  4.493471
O    -0.560424  0.144220  5.036752
H    -2.784126  -1.054060  1.746609
H    -2.679636  0.678186  4.066375
C    -3.838345  -1.052150  4.231486
C    -4.045037  -0.958092  5.754980
C    -3.776908  0.409003  6.407088
N    -4.486067  1.516456  5.755835
C    -4.015176  2.792459  5.644612
N    -4.951284  3.768778  5.663509
N    -2.717305  3.055476  5.477672
H    -3.892456  -2.103591  3.921892
H    -4.655470  -0.532499  3.709850
H    -3.405912  -1.686759  6.276614
H    -5.075572  -1.273290  5.971956
H    -2.710684  0.655922  6.409562
H    -4.076253  0.350416  7.465127
H    -5.499373  1.437171  5.762316
H    -4.724121  4.714339  5.382370
H    -5.880405  3.616823  6.037816
H    -2.585345  4.057926  5.649098
N    -0.797358  -2.033955  4.537896
C    -1.388635  -3.253770  3.986011
H    0.082450  -2.142105  5.043599
H    -0.584699  -3.978997  3.827876
H    -1.860629  -3.063488  3.017734
H    -2.119584  -3.691217  4.678008
Ca    -0.774309  2.283097  4.488965
