36
Energy: -39735.5207848 eV PBE+vdW (tier 2 basis)
C    -1.163379  2.848972  1.730962
C    -0.971884  1.594109  2.515216
O    0.150018  0.990001  2.484264
H    -1.000101  2.627230  0.666686
H    -0.397928  3.580224  2.023587
H    -2.155547  3.294158  1.855634
N    -1.992880  1.125187  3.239308
C    -2.076268  -0.138998  4.008531
C    -1.081822  -0.113670  5.179739
O    0.121698  -0.524932  5.006150
H    -2.849447  1.674627  3.218753
H    -3.092868  -0.116808  4.427984
C    -1.949145  -1.399144  3.128969
C    -2.351060  -2.708237  3.841307
C    -3.816586  -3.145493  3.607240
N    -4.818208  -2.104014  3.806533
C    -4.944577  -1.343656  4.952959
N    -4.504717  -1.958686  6.117701
N    -5.335998  -0.106337  5.017886
H    -0.922953  -1.495527  2.735877
H    -2.575331  -1.235180  2.239859
H    -2.161592  -2.623996  4.921588
H    -1.710580  -3.527459  3.486681
H    -4.025193  -4.023611  4.237665
H    -3.937178  -3.493475  2.573378
H    -5.205489  -1.681242  2.972072
H    -4.873785  -1.493501  6.942805
H    -4.637189  -2.965490  6.164406
H    -5.629783  0.250976  4.104315
N    -1.439919  0.339072  6.364946
C    -2.706101  0.912425  6.830295
H    -0.688401  0.308164  7.057303
H    -2.961563  0.445623  7.787981
H    -3.531273  0.737998  6.126651
H    -2.574678  1.990324  6.992271
Ca    1.493523  -0.346783  3.411590
