36
Energy: -39736.6108115 eV PBE+vdW (tier 2 basis)
C    0.352417  -0.282045  0.283804
C    0.101905  -0.160946  1.761446
O    0.978733  0.574960  2.413865
H    -0.533159  -0.618681  -0.261724
H    1.183277  -0.976610  0.093320
H    0.655378  0.695099  -0.110957
N    -0.927315  -0.758500  2.301990
C    -1.211558  -0.483026  3.720801
C    -0.343960  -1.382861  4.612362
O    0.861526  -1.049866  4.865772
H    -1.809424  -1.993913  1.127847
H    -0.845615  0.530440  3.963651
C    -2.743281  -0.476470  4.031954
C    -3.673229  -1.020383  2.944218
C    -3.645665  -2.549268  2.800127
N    -4.177326  -3.029781  1.526903
C    -3.436269  -3.117950  0.411462
N    -3.953825  -3.705671  -0.680525
N    -2.186212  -2.647248  0.401486
H    -3.024663  0.570141  4.202604
H    -2.945012  -0.969486  4.996312
H    -3.409164  -0.554867  1.985699
H    -4.699558  -0.700562  3.171160
H    -4.231778  -3.027437  3.596669
H    -2.619451  -2.938844  2.875491
H    -5.175000  -3.196032  1.450012
H    -3.509760  -3.617855  -1.585662
H    -4.809538  -4.245078  -0.636868
H    -1.577164  -2.892058  -0.369357
N    -0.822719  -2.514466  5.106461
C    -0.052546  -3.439532  5.939913
H    -1.800243  -2.725459  4.939594
H    -0.702577  -4.268645  6.230819
H    0.308195  -2.931064  6.841920
H    0.806966  -3.831698  5.383848
Ca    2.148648  0.490003  4.080681
