36
Energy: -39735.8945623 eV PBE+vdW (tier 2 basis)
C    1.474962  -1.470677  1.027240
C    0.945433  -0.956737  2.318035
O    1.766701  -0.589928  3.240352
H    1.987951  -0.641511  0.515972
H    0.692779  -1.873822  0.364385
H    2.238212  -2.234554  1.224589
N    -0.368808  -0.873238  2.499555
C    -1.031314  -0.228134  3.642516
C    -1.006462  -1.125322  4.902209
O    0.094640  -1.301276  5.522934
H    -1.014323  -1.136512  1.689623
H    -0.409416  0.634471  3.936475
C    -2.406994  0.345150  3.240384
C    -3.491226  -0.563007  2.603725
C    -3.468443  -0.653071  1.072084
N    -2.333987  -1.456751  0.599447
C    -1.876211  -1.411922  -0.760843
N    -2.428128  -0.432161  -1.547099
N    -0.929056  -2.232596  -1.036065
H    -2.204915  1.176853  2.549500
H    -2.818267  0.824655  4.140708
H    -4.470180  -0.150862  2.884652
H    -3.480595  -1.591975  3.003724
H    -3.368313  0.361067  0.662328
H    -4.433088  -1.059913  0.726736
H    -2.430667  -2.444406  0.841678
H    -3.403001  -0.177110  -1.429488
H    -2.116024  -0.404988  -2.512037
H    -0.668915  -2.227358  -2.024677
N    -2.116342  -1.667852  5.363307
C    -2.194731  -2.490693  6.574172
H    -2.975314  -1.496024  4.848833
H    -3.245442  -2.720815  6.767128
H    -1.779854  -1.945036  7.429236
H    -1.638107  -3.425644  6.438020
Ca    2.169591  -0.868717  5.253352
