36
Energy: -39737.6164591 eV PBE+vdW (tier 2 basis)
C    -1.278118  1.466706  -0.197436
C    -1.827079  0.432464  0.734994
O    -2.479083  -0.549778  0.292709
H    -0.638074  0.975813  -0.942092
H    -0.708154  2.256144  0.303113
H    -2.114277  1.921916  -0.745931
N    -1.598672  0.603518  2.055737
C    -2.113062  -0.211300  3.177101
C    -1.400964  -1.577610  3.209002
O    -1.654834  -2.473823  2.360405
H    -1.058290  1.424591  2.310599
H    -1.807288  0.333333  4.080612
C    -3.661756  -0.251529  3.166994
C    -4.381043  -1.232787  4.108421
C    -4.552482  -2.685663  3.641278
N    -5.055519  -2.754938  2.224909
C    -5.306451  -4.093403  1.745816
N    -6.470986  -4.671139  2.079174
N    -4.354735  -4.579652  1.001448
H    -4.014315  -0.394190  2.138594
H    -3.976774  0.766627  3.431804
H    -5.381739  -0.814411  4.293294
H    -3.901673  -1.259952  5.098692
H    -5.251190  -3.188524  4.327646
H    -3.612867  -3.249206  3.675912
H    -5.911628  -2.196040  2.150245
H    -6.727215  -5.588307  1.726663
H    -7.114695  -4.240933  2.733109
H    -4.493855  -5.549250  0.709196
N    -0.507559  -1.759005  4.177509
C    0.296443  -2.966653  4.361705
H    -0.343635  -0.991680  4.823370
H    0.235912  -3.289000  5.407176
H    1.344847  -2.762564  4.110237
H    -0.087302  -3.753509  3.708401
Ca    -3.004890  -2.686266  0.620594
