36
Energy: -39735.3205345 eV PBE+vdW (tier 2 basis)
C    -3.326197  1.624865  1.089864
C    -2.337825  0.509766  1.099549
O    -1.412067  0.459141  0.221722
H    -2.787228  2.561134  1.300538
H    -4.121941  1.503831  1.831869
H    -3.766123  1.727340  0.089913
N    -2.422954  -0.424529  2.049913
C    -1.409060  -1.450165  2.364436
C    -1.500376  -2.621541  1.363945
O    -1.014907  -2.468404  0.191061
H    -3.167467  -0.311651  2.735546
H    -0.423351  -0.992947  2.177059
C    -1.490717  -1.815800  3.853192
C    -1.239645  -0.608308  4.763804
C    -1.245535  -0.951871  6.269476
N    -1.252044  0.244490  7.100586
C    -2.388725  1.076994  7.062287
N    -3.551137  0.421735  7.459593
N    -2.256059  2.286151  6.644686
H    -0.741687  -2.597564  4.052425
H    -2.480477  -2.248641  4.089011
H    -2.004824  0.168301  4.604831
H    -0.275230  -0.143080  4.502811
H    -2.131780  -1.555129  6.510278
H    -0.365037  -1.556582  6.529467
H    -0.428017  0.828430  6.961738
H    -4.361292  1.022856  7.572163
H    -3.437178  -0.220781  8.240464
H    -3.089877  2.852734  6.830259
N    -2.055895  -3.752990  1.744596
C    -2.206367  -4.959855  0.930181
H    -2.396938  -3.796472  2.703484
H    -1.761954  -5.809863  1.460881
H    -1.701410  -4.817929  -0.027210
H    -3.271876  -5.160433  0.763092
Ca    -0.371682  -0.859800  -1.046765
