36
Energy: -39735.1742115 eV PBE+vdW (tier 2 basis)
C    -0.954957  1.752586  0.622441
C    -0.414034  0.537842  1.234403
O    0.689847  0.029016  0.805121
H    -1.195306  2.498700  1.391333
H    -0.229296  2.156901  -0.088363
H    -1.942103  1.617802  0.082537
N    -0.987971  -0.092190  2.308191
C    -2.348772  -0.638157  2.412325
C    -2.375460  -1.977823  1.620992
O    -1.441330  -2.282455  0.803720
H    -0.308362  -0.695037  2.772982
H    -2.486071  -0.885253  3.478025
C    -3.493281  0.281125  1.963554
C    -3.653193  1.553156  2.806405
C    -4.607943  2.574339  2.154316
N    -3.996265  3.518625  1.219811
C    -3.896410  3.314542  -0.138134
N    -3.934005  4.461665  -0.888049
N    -3.694329  2.107224  -0.601867
H    -4.424546  -0.300851  2.040188
H    -3.409089  0.541610  0.897003
H    -2.685920  2.039905  2.992313
H    -4.052700  1.284727  3.796128
H    -5.060414  3.178977  2.949555
H    -5.431714  2.047785  1.648647
H    -3.993235  4.486538  1.518988
H    -3.802557  4.387021  -1.888911
H    -4.497068  5.248939  -0.585713
H    -3.773018  2.089014  -1.620818
N    -3.389297  -2.797620  1.817116
C    -3.572917  -4.082709  1.135248
H    -4.102721  -2.514886  2.484665
H    -4.516026  -4.519487  1.472779
H    -2.752976  -4.767342  1.382682
H    -3.612787  -3.935197  0.049920
Ca    0.497195  -1.908578  -0.027805
