36
Energy: -39736.4059762 eV PBE+vdW (tier 2 basis)
C    0.919064  1.079054  -0.035770
C    0.795421  0.672226  1.397267
O    1.819722  0.720537  2.154462
H    -0.026686  1.038066  -0.585510
H    1.645826  0.414145  -0.524098
H    1.328890  2.095576  -0.096055
N    -0.395587  0.260838  1.840138
C    -0.780586  -0.349556  3.129247
C    -0.706202  0.565195  4.354001
O    0.381856  1.185509  4.669121
H    -1.139764  0.282163  1.148466
H    -1.844846  -0.569685  2.993994
C    -0.059204  -1.692829  3.420002
C    -0.766855  -2.913464  2.818236
C    -2.184400  -3.175828  3.360183
N    -3.250919  -2.447302  2.658040
C    -4.202369  -1.681412  3.300995
N    -5.442738  -1.714676  2.734639
N    -3.872808  -0.928386  4.322379
H    -0.010477  -1.822880  4.511955
H    0.980446  -1.644723  3.064429
H    -0.150703  -3.795423  3.043231
H    -0.797781  -2.845815  1.719620
H    -2.253353  -2.916137  4.424795
H    -2.394060  -4.252240  3.283027
H    -3.580581  -2.896473  1.809344
H    -6.163346  -1.096112  3.085998
H    -5.772554  -2.548225  2.261557
H    -4.702592  -0.539467  4.773076
N    -1.778147  0.562770  5.096625
C    -1.895467  1.232972  6.384164
H    -2.626022  -0.066199  4.755129
H    -2.385974  0.553856  7.091206
H    -2.516463  2.132964  6.281448
H    -0.912504  1.519350  6.768514
Ca    2.366392  1.380405  4.084438
