36
Energy: -39736.5632945 eV PBE+vdW (tier 2 basis)
C    -0.409113  0.503157  0.321696
C    -0.436902  0.085081  1.772240
O    0.289255  -0.930512  2.103241
H    -0.199299  1.572773  0.204291
H    -1.380341  0.304366  -0.155289
H    0.354876  -0.077801  -0.202508
N    -1.188378  0.606806  2.746605
C    -2.468693  1.279064  2.519722
C    -3.467792  0.150487  2.134806
O    -3.229508  -1.020252  2.555954
H    2.576756  4.909056  -1.143180
H    -2.817582  1.567765  3.529431
C    -2.520769  2.589614  1.704888
C    -1.781223  3.762357  2.380778
C    -0.257564  3.829382  2.241614
N    0.133023  4.257852  0.887237
C    1.393968  4.298316  0.428165
N    2.408660  3.901997  1.205945
N    1.637015  4.698267  -0.828683
H    -3.573961  2.905193  1.644210
H    -2.187183  2.443685  0.669278
H    -2.002010  3.751918  3.458068
H    -2.203873  4.712459  2.016806
H    0.192366  2.848576  2.450146
H    0.127014  4.552176  2.979490
H    -0.555353  4.796462  0.369259
H    3.351087  3.827707  0.841478
H    2.290767  3.786647  2.204348
H    0.884908  4.884582  -1.480388
N    -4.559406  0.415933  1.428484
C    -5.592292  -0.575207  1.116302
H    -4.716498  1.371719  1.128046
H    -6.153877  -0.233274  0.242479
H    -6.279566  -0.698526  1.963080
H    -5.122167  -1.538256  0.896686
Ca    -1.262446  -1.549323  3.516628
