36
Energy: -39736.656699 eV PBE+vdW (tier 2 basis)
C    0.078734  0.693547  0.650446
C    0.222466  0.812575  2.140840
O    1.283570  0.550639  2.730911
H    -0.885795  1.043999  0.267792
H    0.212361  -0.358119  0.363319
H    0.886716  1.258679  0.168851
N    -0.872761  1.257025  2.831016
C    -0.930647  1.377350  4.286606
C    0.243233  2.211983  4.833169
O    0.780523  1.935511  5.947514
H    -1.734204  1.405562  2.314447
H    -1.800007  2.027359  4.483953
C    -1.256065  0.060856  5.040252
C    -0.551396  -1.262615  4.687301
C    0.739114  -1.640532  5.411562
N    1.885676  -0.741085  5.082972
C    3.184409  -1.240579  5.378521
N    3.896514  -1.782995  4.384750
N    3.539722  -1.052871  6.627268
H    -2.326551  -0.103797  4.856971
H    -1.194188  0.264926  6.121240
H    -0.399363  -1.345862  3.602223
H    -1.256926  -2.069073  4.933060
H    0.994327  -2.683048  5.168048
H    0.563091  -1.639348  6.508950
H    1.771172  -0.336528  4.130972
H    4.859088  -2.078141  4.517183
H    3.494377  -1.912976  3.462919
H    4.432465  -1.465045  6.902862
N    0.579023  3.302706  4.163259
C    1.604740  4.253337  4.585264
H    0.118780  3.460021  3.270720
H    2.609628  3.848454  4.404805
H    1.486858  4.486205  5.648839
H    1.487173  5.172645  4.005291
Ca    1.970169  0.564902  7.102219
