36
Energy: -39733.9486402 eV PBE+vdW (tier 2 basis)
C    0.091440  -0.299076  0.158231
C    -0.018056  -0.207827  1.631048
O    1.032732  0.189538  2.324932
H    -0.866700  -0.086626  -0.329914
H    0.388432  -1.328174  -0.166133
H    0.851352  0.395788  -0.212885
N    -1.097729  -0.512908  2.298546
C    -2.383830  -1.026369  1.820687
C    -3.290699  -0.808537  3.068545
O    -2.736007  -0.570663  4.152164
H    -1.181179  -0.407581  3.341180
H    -2.734361  -0.420553  0.970755
C    -2.258569  -2.513676  1.415859
C    -3.358619  -3.047375  0.491024
C    -2.898183  -4.289330  -0.308359
N    -1.824141  -4.000422  -1.255257
C    -0.485427  -3.877632  -0.929142
N    -0.038765  -4.690475  0.099368
N    0.356849  -3.044927  -1.471590
H    -2.184046  -3.127940  2.324943
H    -1.294070  -2.617678  0.907141
H    -3.659364  -2.270646  -0.232683
H    -4.261449  -3.318406  1.058579
H    -3.748329  -4.691313  -0.874356
H    -2.582517  -5.085245  0.377668
H    -2.099828  -3.434197  -2.051927
H    0.975621  -4.735793  0.122911
H    -0.468356  -5.608538  0.165127
H    -0.090519  -2.485697  -2.203870
N    -4.610092  -0.927376  2.886453
C    -5.591517  -0.805713  3.963794
H    -4.956472  -1.090214  1.946564
H    -6.266949  0.035445  3.767283
H    -5.056603  -0.630443  4.900507
H    -6.178230  -1.728296  4.046944
Ca    2.659390  0.802976  3.270637
