36
Energy: -39736.2251246 eV PBE+vdW (tier 2 basis)
C    -0.972231  0.936612  0.492644
C    -0.327568  0.507004  1.774090
O    0.906411  0.199006  1.778556
H    -2.026720  1.210353  0.600434
H    -0.889147  0.113499  -0.230847
H    -0.420075  1.786742  0.071761
N    -1.089376  0.460103  2.872137
C    -0.798712  -0.041255  4.241647
C    0.193941  0.843167  5.022224
O    1.431453  0.900831  4.570247
H    -2.048087  0.764003  2.730516
H    -1.757212  0.085098  4.755103
C    -0.437387  -1.542342  4.247767
C    -0.478473  -2.167937  5.652099
C    -1.901166  -2.454528  6.204335
N    -2.030277  -2.139546  7.635702
C    -1.934394  -0.879300  8.097465
N    -1.401217  -0.630311  9.299504
N    -2.360977  0.164849  7.359482
H    0.566610  -1.687739  3.825361
H    -1.124822  -2.070152  3.569945
H    0.049838  -1.507322  6.355038
H    0.091075  -3.105915  5.636524
H    -2.160998  -3.512565  6.092074
H    -2.670502  -1.907968  5.641612
H    -1.923943  -2.904021  8.296392
H    -1.613205  0.247070  9.762458
H    -0.906126  -1.339076  9.828439
H    -3.031286  -0.077378  6.636654
N    -0.242006  1.441108  6.078009
C    0.696410  2.276993  6.824404
H    -1.636293  0.864364  7.018704
H    0.213329  2.633630  7.739924
H    0.992815  3.158786  6.237126
H    1.615094  1.733592  7.092283
Ca    2.634473  0.619225  2.951675
