36
Energy: -39736.5464254 eV PBE+vdW (tier 2 basis)
C    -2.039730  -0.360115  0.740438
C    -1.300838  0.004200  1.994887
O    0.009786  -0.108696  1.933892
H    -3.116000  -0.193997  0.833420
H    -1.846477  -1.410595  0.482881
H    -1.662542  0.244454  -0.095236
N    -1.973201  0.392196  3.044465
C    -1.258117  0.714893  4.293855
C    -0.186496  1.798849  4.102605
O    1.063305  1.534481  4.050997
H    -3.528617  -0.421165  3.294646
H    -2.012690  1.190784  4.938556
C    -0.749950  -0.549935  5.033076
C    -1.591370  -0.916065  6.265900
C    -3.096871  -1.098137  6.051992
N    -3.466029  -2.239831  5.200791
C    -4.287993  -2.179023  4.133628
N    -5.024507  -3.261055  3.823527
N    -4.357980  -1.070676  3.395035
H    0.284415  -0.401113  5.376129
H    -0.739252  -1.389232  4.323193
H    -1.478945  -0.132107  7.030990
H    -1.176267  -1.827744  6.721242
H    -3.558815  -0.204702  5.615308
H    -3.574514  -1.243008  7.032175
H    -3.339045  -3.161953  5.607928
H    -5.473422  -3.346651  2.919737
H    -5.240617  -3.970050  4.514259
H    -5.113929  -0.980534  2.725949
N    -0.579207  3.060891  3.992018
C    -1.946785  3.585015  4.020800
H    0.176686  3.738836  3.901431
H    -1.955977  4.542856  3.491846
H    -2.281562  3.755440  5.052751
H    -2.627836  2.899952  3.506899
Ca    1.902612  0.190616  2.619760
