36
Energy: -39734.9979685 eV PBE+vdW (tier 2 basis)
C    -2.064741  0.867308  0.840856
C    -2.588333  0.133574  2.022750
O    -2.733646  0.704846  3.140383
H    -2.885970  0.985584  0.116956
H    -1.243583  0.333035  0.343981
H    -1.727654  1.859954  1.152086
N    -2.811489  -1.254361  2.077549
C    -2.169778  -2.244348  1.185207
C    -0.671843  -2.252854  1.590693
O    -0.352601  -1.797459  2.738647
H    -3.814671  -1.464311  2.354302
H    -2.530803  -3.217001  1.565895
C    -2.530455  -2.172668  -0.318702
C    -3.669993  -3.101227  -0.767096
C    -5.032737  -2.876982  -0.084208
N    -5.443921  -1.480177  -0.065414
C    -5.515527  -0.646352  1.015738
N    -5.653952  -1.304971  2.276266
N    -5.340099  0.621388  0.865877
H    -1.651369  -2.398840  -0.938789
H    -2.786281  -1.137857  -0.571050
H    -3.387785  -4.157009  -0.630756
H    -3.790191  -2.964873  -1.851815
H    -5.008593  -3.249666  0.948379
H    -5.787851  -3.484738  -0.603154
H    -5.455739  -0.976881  -0.948773
H    -5.987273  -0.651210  2.984259
H    -6.273459  -2.118220  2.260090
H    -5.604276  1.169231  1.688259
N    0.220190  -2.793312  0.784407
C    1.643461  -2.972457  1.083129
H    -0.109199  -3.141433  -0.112867
H    1.875267  -4.043098  1.138874
H    1.874839  -2.494508  2.036946
H    2.240614  -2.517359  0.284709
Ca    -1.606132  -0.849493  4.243749
