36
Energy: -39737.2608818 eV PBE+vdW (tier 2 basis)
C    -1.123488  -1.988323  -0.619551
C    -0.827053  -1.396999  0.719612
O    0.304023  -0.898202  0.974219
H    -0.422204  -2.811550  -0.812128
H    -0.939711  -1.228579  -1.391134
H    -2.148793  -2.359909  -0.716238
N    -1.801180  -1.402306  1.652787
C    -1.652363  -0.798277  2.980772
C    -0.866248  -1.746269  3.913389
O    0.395790  -1.654028  3.912537
H    -2.689471  -1.834579  1.411658
H    -0.954634  0.029564  2.836031
C    -2.971455  -0.199666  3.502079
C    -3.300434  1.158408  2.845314
C    -2.666460  2.401426  3.517147
N    -1.240023  2.289890  3.853314
C    -0.211053  2.140409  2.983657
N    -0.450532  2.374972  1.665993
N    0.987465  1.668682  3.335422
H    -2.899958  -0.081495  4.593815
H    -3.802899  -0.901429  3.329771
H    -4.386605  1.319551  2.871926
H    -3.038050  1.117018  1.777501
H    -3.175339  2.608562  4.466286
H    -2.841106  3.291233  2.893439
H    -1.025811  2.066211  4.818345
H    0.364798  2.568324  1.095083
H    -1.284906  2.883544  1.395659
H    1.107832  1.732195  4.351230
N    -1.522933  -2.623550  4.659181
C    -0.904266  -3.602093  5.555777
H    -2.538557  -2.620363  4.609193
H    -1.131035  -4.618015  5.210290
H    -1.298069  -3.472048  6.570434
H    0.176924  -3.448268  5.557948
Ca    1.705086  -0.403482  2.590576
