36
Energy: -39736.3852284 eV PBE+vdW (tier 2 basis)
C    -1.153531  1.269556  -2.462015
C    -1.297360  0.259256  -1.366171
O    -1.602067  -0.940758  -1.658761
H    -0.421035  0.912403  -3.197223
H    -0.854396  2.261851  -2.109190
H    -2.115746  1.352282  -2.986767
N    -1.106520  0.668933  -0.107134
C    -1.301736  -0.038265  1.184736
C    -0.293148  -1.158096  1.477183
O    -0.206752  -2.152190  0.614713
H    -0.823888  1.640358  -0.020793
H    -1.054147  0.731311  1.920105
C    -2.772297  -0.485096  1.396570
C    -3.688297  0.618590  1.963815
C    -3.777145  0.660756  3.498331
N    -2.454926  0.770826  4.123697
C    -1.948627  0.002708  5.108577
N    -2.764607  -0.528675  6.032179
N    -0.630661  -0.209428  5.112388
H    -2.771049  -1.351180  2.074897
H    -3.181061  -0.844960  0.443324
H    -4.714826  0.476103  1.599525
H    -3.381174  1.604853  1.579573
H    -4.238116  -0.265312  3.867820
H    -4.419969  1.497291  3.808461
H    -1.795239  1.427941  3.722314
H    -2.429454  -1.241497  6.669445
H    -3.656388  -0.098202  6.248929
H    -0.176345  -0.564465  5.946787
N    0.349003  -1.070504  2.590484
C    1.273008  -2.155544  2.921231
H    -0.153983  -0.330337  4.180037
H    1.796768  -1.913705  3.852522
H    2.028073  -2.298149  2.135100
H    0.747860  -3.114232  3.053715
Ca    -0.836271  -2.875963  -1.176558
