36
Energy: -39736.2640319 eV PBE+vdW (tier 2 basis)
C    0.625275  -0.348844  0.033576
C    0.275038  -0.080198  1.467105
O    1.115590  -0.407809  2.388690
H    1.568402  0.153840  -0.221120
H    -0.148638  -0.013226  -0.663565
H    0.774497  -1.428888  -0.102625
N    -0.887355  0.482091  1.715087
C    -1.608492  0.802126  2.948316
C    -3.052043  1.076761  2.398892
O    -3.194582  1.214747  1.180061
H    -1.540300  0.711108  0.926735
H    -1.628461  -0.083463  3.602788
C    -1.035031  2.025574  3.714142
C    -0.067165  1.604764  4.824758
C    0.872144  2.706174  5.350196
N    2.067963  2.085885  5.949228
C    2.967794  1.434471  5.198598
N    3.648578  0.318433  5.745936
N    3.197337  1.600230  3.913485
H    -1.864268  2.613235  4.130546
H    -0.539570  2.681778  2.983517
H    0.557270  0.793599  4.426141
H    -0.624945  1.172824  5.668947
H    0.403260  3.327919  6.120630
H    1.179071  3.395872  4.551354
H    2.090840  1.969974  6.958273
H    4.665262  0.430660  5.732162
H    3.343595  0.027294  6.675231
H    2.814237  2.464292  3.527707
N    -4.034896  1.157973  3.305660
C    -5.429309  1.433550  2.957808
H    -3.819147  0.974635  4.279956
H    -6.061344  0.573255  3.208982
H    -5.485017  1.620228  1.882338
H    -5.786349  2.316976  3.499974
Ca    3.029225  -0.563934  3.264931
