36
Energy: -39735.6632019 eV PBE+vdW (tier 2 basis)
C    -0.019863  0.691313  -0.300442
C    0.032644  0.723076  1.187384
O    1.167947  0.797329  1.783242
H    0.179375  1.707438  -0.674195
H    -0.993591  0.375220  -0.690833
H    0.773575  0.039061  -0.683337
N    -1.104168  0.687927  1.877375
C    -1.247334  0.872369  3.334117
C    -0.687563  -0.356020  4.089996
O    0.560733  -0.421265  4.347050
H    -2.009405  0.827989  1.349342
H    -0.613734  1.718461  3.651695
C    -2.720276  1.176743  3.665481
C    -3.275256  2.553036  3.241342
C    -3.141136  2.958060  1.765793
N    -3.439604  1.838380  0.856112
C    -3.209152  1.933266  -0.557965
N    -2.449140  3.023353  -0.951049
N    -3.516886  1.021293  -1.399730
H    -2.842901  1.106828  4.755416
H    -3.350605  0.384909  3.225887
H    -2.808390  3.342325  3.847874
H    -4.337425  2.554528  3.526602
H    -2.111554  3.280005  1.555882
H    -3.791502  3.830931  1.590460
H    -4.354696  1.421046  1.026311
H    -2.368579  3.061346  -1.965336
H    -2.692501  3.927519  -0.556062
H    -3.983813  0.214891  -0.977004
N    -1.512107  -1.316121  4.460195
C    -1.137151  -2.535936  5.177791
H    -2.496583  -1.196367  4.232453
H    -1.905154  -2.755324  5.926650
H    -0.174934  -2.386243  5.672846
H    -1.067653  -3.379702  4.479060
Ca    2.350359  0.244665  3.403312
