36
Energy: -39733.8009547 eV PBE+vdW (tier 2 basis)
C    -0.043929  0.983302  0.620755
C    -0.286122  0.740507  2.071287
O    0.535550  1.276826  2.934998
H    -0.823688  0.565261  -0.021039
H    0.921759  0.542084  0.335895
H    0.027361  2.064052  0.439706
N    -1.276087  0.021162  2.525663
C    -2.371791  -0.671254  1.836701
C    -3.421301  -0.788992  2.987050
O    -3.006108  -0.715727  4.152634
H    -1.446679  -0.096215  3.554413
H    -2.756747  -0.047228  1.017380
C    -1.908395  -2.049272  1.306732
C    -2.960570  -2.804942  0.489594
C    -2.367231  -4.057973  -0.192864
N    -3.287966  -4.727203  -1.084426
C    -3.601183  -4.251979  -2.342120
N    -4.607864  -4.914752  -2.993085
N    -3.060087  -3.224939  -2.939281
H    -1.571612  -2.654699  2.162240
H    -1.020446  -1.878019  0.676732
H    -3.377583  -2.149305  -0.292116
H    -3.797504  -3.120643  1.128290
H    -2.048589  -4.786109  0.565369
H    -1.459102  -3.787163  -0.755073
H    -3.883911  -5.443012  -0.683776
H    -4.731071  -4.648804  -3.964115
H    -4.822312  -5.878787  -2.767459
H    -2.301621  -2.814741  -2.390461
N    -4.697706  -0.971354  2.631280
C    -5.788225  -1.143176  3.590006
H    -4.929074  -0.979777  1.643110
H    -6.540145  -0.357637  3.449997
H    -5.374962  -1.076149  4.599509
H    -6.261867  -2.123227  3.455754
Ca    1.776808  2.163386  4.253593
