36
Energy: -39737.3545848 eV PBE+vdW (tier 2 basis)
C    1.076519  2.134905  1.851275
C    0.598065  1.026664  2.737158
O    1.411946  0.174664  3.186778
H    0.289776  2.836185  1.554829
H    1.517547  1.691151  0.947694
H    1.878526  2.685334  2.359672
N    -0.719710  0.983854  3.018029
C    -1.492466  -0.062067  3.723261
C    -1.188626  -0.042976  5.232406
O    -0.041734  -0.331332  5.675526
H    -1.275872  1.723878  2.600279
H    -2.535630  0.247733  3.592857
C    -1.350122  -1.445585  3.046498
C    -2.240907  -2.570537  3.613714
C    -1.554197  -3.546150  4.586637
N    -0.426246  -4.255327  3.981162
C    0.875566  -3.897632  4.102692
N    1.737337  -4.303319  3.137207
N    1.342587  -3.127578  5.085123
H    -0.299628  -1.760355  3.034265
H    -1.613336  -1.273387  1.994288
H    -2.635490  -3.153316  2.769886
H    -3.131662  -2.161895  4.115852
H    -2.280939  -4.293331  4.930023
H    -1.202529  -3.027675  5.486626
H    -0.654284  -4.999987  3.328863
H    2.707465  -4.439341  3.397355
H    1.413101  -4.818738  2.326932
H    0.710234  -3.187971  5.888705
N    -2.163941  0.274341  6.081126
C    -3.546195  0.683127  5.803405
H    -1.878012  0.264243  7.060004
H    -3.580040  1.604372  5.209148
H    -4.032931  0.883680  6.761861
H    -4.109522  -0.110840  5.299100
Ca    1.962349  -0.945793  4.979764
