36
Energy: -39735.4506659 eV PBE+vdW (tier 2 basis)
C    0.638672  -1.016734  0.781047
C    -0.048673  0.071971  1.530522
O    0.615983  0.806196  2.356418
H    -0.021114  -1.486231  0.044022
H    0.997664  -1.775806  1.490789
H    1.526723  -0.606666  0.281821
N    -1.345889  0.276357  1.333993
C    -2.023618  1.421872  1.957432
C    -2.032597  1.302712  3.497614
O    -1.324503  2.156414  4.146158
H    -1.824649  -0.287122  0.533593
H    -1.356538  2.286840  1.808314
C    -3.329529  1.872331  1.258989
C    -4.613884  1.006341  1.221026
C    -5.292340  0.952776  -0.170668
N    -4.780540  -0.136273  -1.036365
C    -3.394108  -0.188613  -1.198869
N    -2.863174  0.862739  -1.889972
N    -2.593560  -1.085353  -0.676982
H    -3.012407  2.098105  0.230671
H    -3.573399  2.848100  1.702823
H    -4.416471  -0.030656  1.515820
H    -5.334190  1.397315  1.952307
H    -5.198365  1.915408  -0.691418
H    -6.366716  0.770221  -0.056423
H    -5.137782  -1.037844  -0.724173
H    -3.474568  1.332016  -2.549744
H    -1.904612  0.749372  -2.200490
H    -3.133328  -1.805424  -0.189755
N    -2.678213  0.377504  4.188939
C    -3.429957  -0.801223  3.758750
H    -2.590441  0.498345  5.199072
H    -4.508520  -0.608071  3.785359
H    -3.202485  -1.617624  4.453174
H    -3.124567  -1.104207  2.755006
Ca    0.794056  2.254046  3.860264
