36
Energy: -39737.3510718 eV PBE+vdW (tier 2 basis)
C    -0.374788  0.536590  0.428309
C    -0.691513  0.123442  1.831612
O    0.044415  -0.693893  2.444876
H    -1.095170  1.242089  0.001870
H    -0.328770  -0.358859  -0.205541
H    0.625582  0.990099  0.409956
N    -1.788685  0.656680  2.407275
C    -2.295748  0.430532  3.774385
C    -1.165153  0.602751  4.814381
O    -0.539532  -0.388019  5.285859
H    -2.337678  1.284932  1.827831
H    -2.981785  1.270045  3.938810
C    -3.130441  -0.870050  3.995090
C    -2.941727  -2.050719  3.013685
C    -2.753082  -3.419001  3.675080
N    -1.502325  -3.456300  4.482252
C    -0.624930  -4.587227  4.458665
N    -1.129477  -5.799804  4.187388
N    0.625166  -4.265396  4.663538
H    -4.185136  -0.572145  3.976723
H    -2.939943  -1.187598  5.029041
H    -2.092903  -1.885263  2.339528
H    -3.820320  -2.122533  2.358852
H    -2.673454  -4.175947  2.885196
H    -3.620258  -3.681517  4.298858
H    -1.677857  -3.192461  5.454240
H    -0.520128  -6.604023  4.078084
H    -2.124658  -5.986597  4.232995
H    1.258182  -5.058978  4.779425
N    -0.883920  1.833652  5.234118
C    -1.504159  3.102003  4.839404
H    -0.152828  1.877334  5.943189
H    -2.558833  3.143337  5.140910
H    -0.975539  3.909232  5.353629
H    -1.413350  3.271809  3.760123
Ca    0.566683  -1.964714  4.188564
