36
Energy: -39736.9494514 eV PBE+vdW (tier 2 basis)
C    0.811191  0.732381  1.721215
C    -0.285169  -0.217774  1.370473
O    -0.211470  -1.449231  1.621608
H    0.677229  1.091676  2.753981
H    0.851243  1.599434  1.053356
H    1.764114  0.192532  1.692093
N    -1.426922  0.245981  0.780420
C    -2.129913  1.462970  1.150141
C    -2.417778  1.445808  2.678626
O    -2.382143  0.363293  3.327025
H    -2.027423  -0.498142  0.429748
H    -1.493251  2.336549  0.942569
C    -3.415816  1.610991  0.294209
C    -4.274930  0.366662  -0.009191
C    -4.976692  -0.384741  1.139236
N    -4.225224  -1.597909  1.567327
C    -4.781893  -2.439849  2.593601
N    -6.099577  -2.392685  2.831787
N    -3.884298  -3.144252  3.229933
H    -3.107022  2.025081  -0.675259
H    -4.048198  2.380183  0.759245
H    -3.721802  -0.353117  -0.637823
H    -5.061641  0.729706  -0.684399
H    -5.981782  -0.659829  0.782489
H    -5.107916  0.255463  2.021475
H    -4.042912  -2.194225  0.752938
H    -6.507774  -2.934374  3.586938
H    -6.748358  -1.953020  2.189428
H    -4.266752  -3.849666  3.863173
N    -2.692325  2.613025  3.246201
C    -3.014358  2.818019  4.659184
H    -2.663835  3.442224  2.656871
H    -4.014320  3.258066  4.753419
H    -2.281833  3.498102  5.109801
H    -2.985168  1.855778  5.174699
Ca    -1.988756  -1.818953  2.999927
