36
Energy: -39736.8904727 eV PBE+vdW (tier 2 basis)
C    -0.476999  -0.407817  1.070727
C    -0.981852  -0.144848  2.455698
O    -0.284222  -0.537201  3.481094
H    0.264712  0.355624  0.791269
H    -1.272038  -0.405441  0.317223
H    0.046427  -1.370453  1.053692
N    -2.094067  0.509725  2.782777
C    -2.896258  1.337965  1.900411
C    -2.904270  2.733086  2.583450
O    -2.159239  2.929536  3.592972
H    -1.429711  -2.361677  3.993346
H    -2.409786  1.482860  0.919209
C    -4.296836  0.732899  1.637579
C    -5.146091  0.376111  2.881506
C    -5.157351  -1.105722  3.281116
N    -3.819020  -1.546040  3.683556
C    -3.450338  -2.793692  3.987282
N    -4.361519  -3.766319  4.122761
N    -2.145427  -3.065756  4.167399
H    -4.149356  -0.159317  1.010531
H    -4.864272  1.424941  0.999068
H    -6.192021  0.641114  2.681726
H    -4.852038  0.986819  3.749974
H    -5.516014  -1.713045  2.433163
H    -5.863011  -1.239209  4.115846
H    -3.071921  -0.853851  3.508866
H    -4.094532  -4.717205  4.346119
H    -5.352153  -3.573093  4.053504
H    -1.833816  -3.990527  4.436129
N    -3.663163  3.692252  2.074533
C    -3.733273  5.068707  2.567379
H    -4.217881  3.467540  1.252868
H    -4.770051  5.318488  2.820889
H    -3.376887  5.758562  1.792966
H    -3.105027  5.160714  3.455709
Ca    -0.904419  1.359857  4.542087
