36
Energy: -39736.6603114 eV PBE+vdW (tier 2 basis)
C    1.071235  -0.496504  -0.052439
C    0.979411  -0.532409  1.440480
O    2.042910  -0.559168  2.138268
H    0.095837  -0.511816  -0.549677
H    1.671369  -1.344190  -0.406747
H    1.606585  0.417576  -0.345441
N    -0.232730  -0.521761  2.003251
C    -0.565011  -0.376617  3.434561
C    -0.424429  -1.712857  4.202982
O    0.824898  -2.123648  4.328548
H    -1.018909  -0.500408  1.359925
H    0.228058  0.260390  3.859025
C    -1.883817  0.414268  3.597010
C    -3.077437  0.151743  2.657566
C    -3.716197  -1.245834  2.696750
N    -4.018742  -1.688459  4.049784
C    -5.185800  -1.612337  4.677471
N    -6.257185  -1.003776  4.137288
N    -5.312070  -2.162885  5.900037
H    -1.630600  1.477799  3.486870
H    -2.200706  0.290707  4.640767
H    -2.824660  0.382902  1.608609
H    -3.836764  0.903686  2.919823
H    -3.031527  -2.000258  2.281902
H    -4.613423  -1.277538  2.063579
H    -3.122113  -1.970053  4.542330
H    -7.185578  -1.150314  4.513665
H    -6.194455  -0.516218  3.254618
H    -6.117414  -1.979039  6.484103
N    -1.445899  -2.311350  4.704799
C    -1.211770  -3.543833  5.454520
H    -4.573204  -2.733848  6.287587
H    -2.167422  -4.057528  5.616394
H    -0.769244  -3.327841  6.438651
H    -0.536645  -4.233566  4.929327
Ca    2.752493  -1.714675  3.792828
