36
Energy: -39736.8010881 eV PBE+vdW (tier 2 basis)
C    -1.143419  1.734864  -1.209821
C    -0.772540  0.425514  -0.601783
O    0.432651  0.097900  -0.414351
H    -2.156444  1.746098  -1.623726
H    -0.416507  1.970697  -1.996654
H    -1.053623  2.531395  -0.454799
N    -1.740319  -0.452518  -0.208995
C    -2.934690  -0.075794  0.543600
C    -2.479995  0.760058  1.766708
O    -1.333175  0.546586  2.263325
H    -1.349852  -1.347405  0.100836
H    -3.618173  0.500111  -0.096671
C    -3.644010  -1.343703  1.094311
C    -3.750093  -2.564695  0.144779
C    -3.016564  -3.845597  0.613225
N    -1.673588  -4.077825  0.062480
C    -0.516294  -3.498596  0.451499
N    0.573232  -3.686957  -0.336283
N    -0.404402  -2.681898  1.506083
H    -4.647433  -1.030769  1.408493
H    -3.134590  -1.644327  2.022411
H    -3.428053  -2.312926  -0.875384
H    -4.811446  -2.827300  0.055898
H    -3.600725  -4.719567  0.304589
H    -2.983443  -3.894654  1.713332
H    -1.607973  -4.808125  -0.639409
H    1.487128  -3.665822  0.099538
H    0.509338  -4.224952  -1.193388
H    -1.182102  -2.843404  2.151911
N    -3.334710  1.634491  2.272791
C    -3.120029  2.441311  3.475633
H    -4.223692  1.751646  1.791414
H    -3.901418  2.219443  4.212093
H    -3.162095  3.506351  3.218483
H    -2.140937  2.202300  3.895915
Ca    0.533931  -0.574554  1.728038
