36
Energy: -39736.9643459 eV PBE+vdW (tier 2 basis)
C    -0.304981  -0.591555  0.962809
C    -0.335629  -0.198303  2.413428
O    0.619850  -0.609230  3.181034
H    0.426402  0.025833  0.421667
H    -1.276964  -0.496893  0.466393
H    0.044959  -1.627556  0.889726
N    -1.246491  0.584094  2.993407
C    -2.046099  1.555849  2.284551
C    -1.486150  2.942519  2.715065
O    -0.574178  3.010357  3.587151
H    -5.191704  -2.264998  3.808585
H    -1.923611  1.488264  1.186798
C    -3.547012  1.406887  2.620439
C    -4.142103  0.111226  2.053834
C    -5.631583  -0.032177  2.399416
N    -6.289200  -1.166912  1.738269
C    -6.559429  -2.364269  2.274438
N    -7.411970  -3.192527  1.653613
N    -5.993195  -2.748328  3.426777
H    -4.108829  2.268213  2.227087
H    -3.658448  1.434267  3.715841
H    -3.574367  -0.753928  2.429958
H    -4.030656  0.103021  0.957874
H    -6.181793  0.867668  2.090598
H    -5.790184  -0.123940  3.483186
H    -6.593942  -1.024379  0.780373
H    -7.469432  -4.173129  1.901782
H    -8.045464  -2.860570  0.936202
H    -6.348660  -3.543672  3.943517
N    -1.969888  4.041347  2.144892
C    -1.501780  5.393145  2.460269
H    -2.663163  3.939271  1.411197
H    -0.482983  5.548414  2.083775
H    -1.506679  5.548687  3.544302
H    -2.174334  6.113718  1.987637
Ca    0.384127  1.160767  4.459670
