36
Energy: -39737.1541357 eV PBE+vdW (tier 2 basis)
C    0.113544  -0.090898  0.691643
C    -0.547475  0.058976  2.021779
O    -0.017673  0.739826  2.943577
H    0.313557  0.906363  0.277691
H    -0.477471  -0.669266  -0.025934
H    1.088702  -0.577936  0.829136
N    -1.738602  -0.545816  2.226097
C    -2.447583  -0.407117  3.495418
C    -1.846701  -1.315169  4.590715
O    -1.031129  -0.788903  5.403365
H    -2.141282  -1.099233  1.474343
H    -2.191715  0.599406  3.841189
C    -3.977426  -0.423748  3.416443
C    -4.642610  0.828426  2.788796
C    -3.932634  2.194446  2.891566
N    -3.274205  2.451620  4.181874
C    -2.273346  3.361860  4.371753
N    -2.295255  4.466788  3.597312
N    -1.306261  3.079637  5.244971
H    -4.327142  -0.529872  4.454284
H    -4.350250  -1.320408  2.896933
H    -5.645809  0.907382  3.228203
H    -4.809534  0.667786  1.715327
H    -4.685609  2.964291  2.662151
H    -3.152834  2.274476  2.119451
H    -3.559978  1.940208  5.008835
H    -1.512003  5.109271  3.598315
H    -3.161251  4.808755  3.195241
H    -0.847272  3.941195  5.558099
N    -2.196032  -2.591650  4.648902
C    -1.697792  -3.561164  5.626992
H    -2.876615  -2.927537  3.972194
H    -2.543568  -4.013414  6.157604
H    -1.050834  -3.045925  6.340151
H    -1.131470  -4.348833  5.115505
Ca    0.002070  1.166974  5.124897
