36
Energy: -39735.6806317 eV PBE+vdW (tier 2 basis)
C    1.118618  1.772736  1.161921
C    0.687428  0.830150  2.235984
O    1.551979  0.391924  3.079139
H    1.560686  2.667352  1.621623
H    1.910961  1.300618  0.564612
H    0.293721  2.077141  0.510411
N    -0.587206  0.469655  2.285529
C    -1.206229  -0.537506  3.172797
C    -1.133451  -0.094308  4.639279
O    -0.105759  -0.335951  5.360044
H    -1.211548  0.715326  1.460703
H    -2.262926  -0.496987  2.885403
C    -0.731962  -2.004774  2.950829
C    -1.901042  -2.964641  2.632245
C    -2.206836  -3.182151  1.125483
N    -2.050320  -2.013529  0.262621
C    -2.670799  -0.801004  0.408349
N    -3.836335  -0.798698  1.163020
N    -2.201140  0.349083  -0.003704
H    -0.220972  -2.366613  3.855369
H    0.009595  -2.018680  2.139947
H    -2.802770  -2.611691  3.153508
H    -1.689426  -3.955401  3.056357
H    -3.213013  -3.617281  1.025243
H    -1.522553  -3.937862  0.721550
H    -1.226648  -1.998928  -0.325937
H    -4.387079  0.037851  0.984051
H    -4.399860  -1.643522  1.112518
H    -1.378423  0.214517  -0.600072
N    -2.162126  0.544286  5.170892
C    -3.416110  0.953576  4.524726
H    -2.043055  0.802454  6.150956
H    -4.065141  1.378054  5.295186
H    -3.927178  0.095488  4.073385
H    -3.231118  1.718548  3.760741
Ca    1.981812  -0.378565  4.964529
