36
Energy: -39735.6750475 eV PBE+vdW (tier 2 basis)
C    0.439419  1.129074  0.565305
C    0.025182  0.731960  1.944281
O    0.534286  1.297847  2.964452
H    1.471903  1.493036  0.593876
H    -0.197054  1.955935  0.210216
H    0.350216  0.304561  -0.149119
N    -0.927879  -0.211604  2.114320
C    -2.197918  -0.172382  1.355702
C    -2.761411  1.275561  1.443361
O    -2.432829  1.955808  2.536208
H    -1.054403  -0.473581  3.093661
H    -1.989387  -0.388850  0.301230
C    -3.104065  -1.263177  1.976632
C    -4.520268  -1.452754  1.408877
C    -4.707885  -2.462435  0.260918
N    -3.876389  -2.274218  -0.944150
C    -3.703064  -1.114603  -1.589100
N    -2.647781  -0.947588  -2.411024
N    -4.515011  -0.060358  -1.394855
H    -3.211792  -1.017065  3.045579
H    -2.547694  -2.212476  1.936015
H    -4.957516  -0.475775  1.167898
H    -5.150191  -1.849584  2.217687
H    -5.771981  -2.494290  -0.020517
H    -4.461770  -3.469624  0.619581
H    -3.438685  -3.106174  -1.329024
H    -2.715908  -0.241583  -3.136614
H    -1.967386  -1.686039  -2.549866
H    -5.407079  -0.277268  -0.961016
N    -3.451288  1.731438  0.459363
C    -3.990156  3.087399  0.550236
H    -4.060429  0.784532  -0.947059
H    -4.412338  3.308751  1.540239
H    -4.771563  3.218106  -0.205933
H    -3.204874  3.830591  0.340384
Ca    -0.987363  2.610453  3.843414
