36
Energy: -39735.9742279 eV PBE+vdW (tier 2 basis)
C    0.302092  -3.198294  -0.108463
C    0.690404  -1.956852  0.614681
O    1.870090  -1.737475  0.993623
H    -0.772875  -3.278126  -0.295205
H    0.677619  -4.087188  0.412532
H    0.813867  -3.168817  -1.084229
N    -0.236076  -0.986707  0.923661
C    -1.592201  -1.184711  1.463716
C    -1.547650  -2.478949  2.299513
O    -0.538874  -2.605774  3.060178
H    0.128343  -0.023509  0.938230
H    -1.630352  -0.475910  2.302404
C    -2.744427  -0.745245  0.535242
C    -3.445645  0.542827  1.032207
C    -2.597303  1.819911  1.261573
N    -1.763398  1.776251  2.487191
C    -0.428913  1.541512  2.560513
N    0.336892  1.868190  1.457260
N    0.184277  0.898726  3.548655
H    -3.515012  -1.522468  0.420168
H    -2.334513  -0.595883  -0.472553
H    -4.213570  0.815318  0.294393
H    -4.003457  0.324928  1.958166
H    -3.276256  2.677475  1.348318
H    -1.955134  2.016985  0.394477
H    -2.280432  1.578062  3.340543
H    -0.030010  2.583815  0.834846
H    1.316437  2.029404  1.680985
H    -0.436482  0.800856  4.358753
N    -2.551171  -3.336819  2.270378
C    -2.665732  -4.530799  3.111246
H    -3.305229  -3.153239  1.612955
H    -2.696815  -5.425407  2.477989
H    -3.587977  -4.477475  3.701507
H    -1.801827  -4.580928  3.777536
Ca    1.262083  -1.202054  3.136541
