36
Energy: -39736.4271229 eV PBE+vdW (tier 2 basis)
C    0.423773  -0.811061  -0.034646
C    0.115426  -0.619782  1.418257
O    0.919130  -1.078908  2.290406
H    0.465917  -1.889683  -0.241355
H    1.420064  -0.406003  -0.253719
H    -0.308250  -0.349021  -0.704832
N    -1.009494  0.029586  1.737360
C    -1.672442  0.264843  3.050308
C    -0.902326  1.223475  3.971725
O    0.267828  0.812399  4.423346
H    -1.538057  0.365627  0.937832
H    -2.570096  0.820026  2.760798
C    -2.071344  -1.068855  3.721254
C    -2.863005  -0.961699  5.038094
C    -4.348421  -0.570704  4.936605
N    -4.569026  0.834927  4.577634
C    -4.717139  1.876806  5.422859
N    -5.440987  1.745303  6.543458
N    -4.127494  3.024277  5.084419
H    -1.159225  -1.650022  3.919256
H    -2.641547  -1.660854  2.989034
H    -2.357254  -0.280930  5.740163
H    -2.841821  -1.955393  5.509085
H    -4.832038  -0.762911  5.901226
H    -4.869717  -1.193891  4.196791
H    -4.265000  1.118580  3.653534
H    -6.150626  1.026126  6.621719
H    -5.434252  2.467919  7.253280
H    -4.394585  3.901239  5.517234
N    -1.464280  2.344774  4.267387
C    -0.714814  3.242375  5.148340
H    -3.227622  2.944996  4.560310
H    -1.308414  4.141966  5.345015
H    0.229404  3.561445  4.683347
H    -0.466117  2.768135  6.109926
Ca    1.830704  -0.451813  4.110592
