36
Energy: -39735.6955459 eV PBE+vdW (tier 2 basis)
C    -1.478338  -0.242920  -0.079022
C    -1.051865  -0.372014  1.346496
O    0.135166  -0.749414  1.619444
H    -1.383526  -1.225588  -0.562850
H    -0.795062  0.435968  -0.606112
H    -2.505767  0.115978  -0.196830
N    -1.936530  -0.090870  2.306492
C    -1.843947  -0.278571  3.770499
C    -0.888394  0.729545  4.413023
O    0.377322  0.639512  4.202230
H    -2.849222  0.220316  1.982231
H    -2.870338  -0.068227  4.124524
C    -1.511701  -1.716257  4.229473
C    -2.289128  -2.864682  3.564537
C    -3.833568  -2.830513  3.642896
N    -4.371961  -2.565470  4.961370
C    -4.683127  -1.300956  5.415608
N    -4.723034  -1.157430  6.779733
N    -4.843827  -0.236732  4.672512
H    -1.691066  -1.727680  5.315012
H    -0.437537  -1.934331  4.108217
H    -1.933884  -3.789444  4.042598
H    -2.009020  -2.956191  2.503237
H    -4.214733  -3.798965  3.294101
H    -4.238238  -2.092286  2.936586
H    -4.514446  -3.356002  5.579727
H    -5.326720  -0.418113  7.121916
H    -4.654384  -1.972758  7.376905
H    -5.043254  -0.497969  3.704084
N    -1.329240  1.677174  5.215755
C    -2.687506  2.037548  5.637062
H    -0.581137  2.257379  5.602692
H    -2.903012  3.056864  5.292962
H    -2.722685  2.022882  6.733084
H    -3.446457  1.344473  5.245584
Ca    1.727991  -0.369382  2.945475
