36
Energy: -39736.0143097 eV PBE+vdW (tier 2 basis)
C    0.794534  -0.738062  1.150894
C    0.174511  0.126585  2.201641
O    0.829048  1.139401  2.643640
H    1.871096  -0.836636  1.329100
H    0.681374  -0.227681  0.181621
H    0.338381  -1.728542  1.065982
N    -1.030910  -0.105583  2.691912
C    -2.034476  -1.132961  2.401823
C    -3.342376  -0.291001  2.269042
O    -3.396620  0.759502  2.920326
H    -1.497769  0.658894  3.214169
H    -1.781563  -1.676646  1.485080
C    -2.246167  -2.085993  3.604147
C    -1.131265  -3.049009  4.050920
C    0.213615  -2.473579  4.529342
N    0.040067  -1.301622  5.406618
C    0.894480  -0.280769  5.547113
N    2.216788  -0.389703  5.015889
N    0.667918  0.914880  6.046558
H    -3.117855  -2.711930  3.364970
H    -2.588216  -1.464066  4.448041
H    -0.895193  -3.760931  3.246922
H    -1.554382  -3.658492  4.862841
H    0.810258  -2.173123  3.656560
H    0.769474  -3.262214  5.056465
H    -0.901858  -1.138078  5.752983
H    2.896662  -0.390883  5.781952
H    2.382312  -1.217529  4.443424
H    -0.231444  1.028808  6.518517
N    -4.345535  -0.767085  1.517289
C    -4.350772  -1.960020  0.672780
H    -5.179217  -0.182944  1.521435
H    -3.608737  -1.892952  -0.134198
H    -5.337481  -2.042350  0.208756
H    -4.183378  -2.877259  1.253039
Ca    1.768740  2.006068  4.336126
