36
Energy: -39736.0285026 eV PBE+vdW (tier 2 basis)
C    0.036262  1.798277  0.441039
C    -0.353586  1.345582  1.810767
O    0.252062  1.808478  2.833665
H    -0.246058  2.848822  0.279896
H    -0.388707  1.183092  -0.356723
H    1.132686  1.758318  0.382478
N    -1.339240  0.436173  1.974455
C    -2.651872  0.627639  1.326473
C    -3.480939  1.574874  2.243456
O    -2.779289  2.477716  2.917730
H    -1.399576  0.091912  2.934105
H    -2.463110  1.193239  0.401922
C    -3.350925  -0.672838  0.940268
C    -3.719233  -1.615756  2.096494
C    -4.821224  -2.625076  1.699072
N    -6.134867  -2.423351  2.334600
C    -7.075889  -1.537354  1.959328
N    -8.368014  -1.844738  2.171018
N    -6.739790  -0.380543  1.379719
H    -2.709235  -1.201823  0.220966
H    -4.252046  -0.389404  0.380596
H    -4.068615  -1.048495  2.970355
H    -2.830440  -2.175564  2.418531
H    -4.525614  -3.642247  1.975810
H    -4.964091  -2.624236  0.608917
H    -6.443967  -3.153481  2.967208
H    -9.086525  -1.131029  2.157444
H    -8.670230  -2.803660  2.296309
H    -7.478883  0.153059  0.934404
N    -4.757665  1.443782  2.276023
C    -5.519033  2.394237  3.084724
H    -5.879570  0.169783  1.648330
H    -5.386321  3.426292  2.728837
H    -5.219225  2.363574  4.143439
H    -6.584949  2.147880  3.027677
Ca    -1.100949  3.162221  3.881335
