36
Energy: -39735.0002052 eV PBE+vdW (tier 2 basis)
C    0.281055  1.245860  0.052179
C    -0.208077  0.220336  0.996393
O    0.507063  -0.806560  1.295032
H    0.405880  2.223957  0.541735
H    -0.470547  1.433847  -0.762972
H    1.240313  0.933753  -0.369226
N    -1.410718  0.329517  1.608042
C    -1.936249  1.576471  2.138789
C    -0.969449  2.035371  3.271206
O    0.003169  1.292741  3.641029
H    -1.708773  -0.516493  2.095402
H    -1.943992  2.332300  1.339487
C    -3.383526  1.392949  2.659573
C    -4.387322  0.825051  1.641525
C    -4.885115  1.794589  0.557177
N    -3.818672  2.400339  -0.240275
C    -3.017065  1.727219  -1.161033
N    -3.283400  0.379116  -1.329467
N    -1.989823  2.240512  -1.761096
H    -3.742046  2.365591  3.029349
H    -3.353587  0.731461  3.540982
H    -5.269403  0.488565  2.204789
H    -3.970232  -0.077503  1.172068
H    -5.426574  2.624793  1.030257
H    -5.633437  1.274035  -0.065938
H    -3.917713  3.390599  -0.432654
H    -2.776621  -0.001559  -2.124756
H    -4.262306  0.105969  -1.336242
H    -1.852886  3.226287  -1.521176
N    -1.178532  3.206478  3.839359
C    -0.372511  3.766192  4.930372
H    -1.964009  3.759595  3.505630
H    -0.774762  4.749673  5.185636
H    0.671430  3.876097  4.614678
H    -0.421985  3.116903  5.812266
Ca    1.244120  -0.442402  3.261879
