36
Energy: -39736.4168335 eV PBE+vdW (tier 2 basis)
C    0.536412  -3.858182  0.380282
C    0.453105  -2.794015  1.431058
O    1.602284  -2.457473  2.012155
H    1.224582  -3.542076  -0.415667
H    -0.448323  -4.064073  -0.046711
H    0.949566  -4.781703  0.808717
N    -0.697561  -2.260782  1.713458
C    -0.719416  -1.183941  2.698345
C    -0.405316  -1.734336  4.093500
O    0.709088  -1.431699  4.650696
H    -3.560020  4.372473  -0.370079
H    0.099867  -0.460792  2.512405
C    -2.047188  -0.400986  2.594921
C    -2.203554  0.207584  1.195436
C    -3.618132  0.693421  0.865877
N    -4.073109  1.871183  1.623758
C    -4.070575  3.137460  1.190097
N    -4.759564  4.073885  1.862088
N    -3.380663  3.492036  0.097449
H    -2.073929  0.374679  3.376029
H    -2.889996  -1.081564  2.777335
H    -1.475691  1.022568  1.048915
H    -1.956627  -0.573735  0.460570
H    -4.347920  -0.104596  1.060871
H    -3.711208  0.926183  -0.203594
H    -4.470715  1.709998  2.542990
H    -4.627585  5.060234  1.673552
H    -5.492098  3.823705  2.514875
H    -2.725717  2.858994  -0.341810
N    -1.219850  -2.571898  4.725702
C    -2.449165  -3.203953  4.243779
H    -0.886104  -2.859109  5.644845
H    -2.478152  -4.229290  4.627872
H    -2.440054  -3.243894  3.150639
H    -3.337167  -2.672112  4.608816
Ca    2.588104  -1.801988  3.650939
