36
Energy: -39736.309466 eV PBE+vdW (tier 2 basis)
C    -1.443225  2.576410  0.170460
C    -0.570424  2.042647  1.267487
O    0.537000  2.536660  1.533707
H    -1.826871  3.557806  0.484263
H    -2.294271  1.930280  -0.072038
H    -0.835788  2.741210  -0.726458
N    -1.046020  0.966494  1.973010
C    -0.546146  0.536436  3.283151
C    0.855943  -0.122838  3.248202
O    1.136049  -1.112835  4.027204
H    -1.957370  0.613287  1.703355
H    -0.389500  1.445085  3.895898
C    -1.596780  -0.332093  3.987749
C    -2.133466  -1.526713  3.175004
C    -2.625773  -2.678774  4.061789
N    -1.480644  -3.346307  4.684285
C    -1.230438  -3.566325  5.995805
N    -2.267661  -3.633521  6.850243
N    0.052751  -3.666986  6.378884
H    -2.431641  0.318438  4.283061
H    -1.149675  -0.688501  4.925650
H    -1.365050  -1.920300  2.489272
H    -2.974441  -1.221849  2.535773
H    -3.202608  -3.401353  3.468064
H    -3.284094  -2.298204  4.853803
H    -0.755128  -3.660750  4.049429
H    -2.111085  -3.658154  7.850649
H    -3.204346  -3.850913  6.529188
H    0.130120  -4.166444  7.269012
N    1.756046  0.425252  2.474250
C    3.141047  -0.012251  2.367986
H    1.433965  1.334324  2.011763
H    3.194560  -1.088079  2.159244
H    3.697934  0.212636  3.289166
H    3.611525  0.528466  1.542278
Ca    1.733603  -2.435782  5.532613
