36
Energy: -39737.585861 eV PBE+vdW (tier 2 basis)
C    -1.530666  -0.314786  -0.201516
C    -1.000036  -0.141704  1.187030
O    0.234158  -0.238181  1.419363
H    -1.263002  -1.319424  -0.556662
H    -1.032096  0.401756  -0.867434
H    -2.614950  -0.185421  -0.280345
N    -1.894680  0.115251  2.167071
C    -1.634914  0.240572  3.617310
C    -0.846459  1.535919  3.908045
O    0.397791  1.601643  3.714508
H    -2.866047  0.177407  1.877760
H    -2.627219  0.346420  4.075904
C    -0.965951  -1.033583  4.176187
C    -0.332961  -0.941028  5.575476
C    0.869540  -1.885147  5.691886
N    2.000478  -1.445891  4.829693
C    3.025078  -0.570025  5.310544
N    3.228478  -0.464047  6.632576
N    3.632488  0.091670  4.360263
H    -0.202795  -1.356134  3.455967
H    -1.722643  -1.829539  4.158468
H    -1.063204  -1.205623  6.351449
H    0.001592  0.080904  5.808438
H    0.593992  -2.893500  5.356777
H    1.167271  -1.992445  6.744144
H    2.450223  -2.243261  4.376462
H    3.912918  0.191975  6.993713
H    2.889051  -1.163038  7.283090
H    4.465860  0.597727  4.667004
N    -1.543420  2.566512  4.374791
C    -0.989776  3.884581  4.682744
H    -2.542972  2.441713  4.510163
H    -1.327472  4.618308  3.939967
H    0.100824  3.825524  4.666561
H    -1.329832  4.198515  5.675789
Ca    1.918352  0.303381  2.773812
