36
Energy: -39735.7644317 eV PBE+vdW (tier 2 basis)
C    -1.759359  1.617282  0.644044
C    -1.434781  1.415692  2.082897
O    -0.389060  1.971470  2.582510
H    -2.291826  2.578404  0.553696
H    -2.421409  0.843998  0.239809
H    -0.840108  1.684816  0.053492
N    -2.253119  0.689935  2.839567
C    -2.210257  0.627704  4.306814
C    -1.131931  -0.367985  4.793073
O    0.097102  -0.039204  4.680560
H    -3.122530  0.280891  2.389340
H    -1.834006  1.601675  4.661767
C    -3.624079  0.460594  4.898163
C    -4.545018  -0.678505  4.393085
C    -5.475673  -0.318251  3.225366
N    -4.778765  -0.183782  1.930955
C    -5.050264  0.953485  1.100817
N    -4.980901  0.654144  -0.246921
N    -5.165993  2.165354  1.495703
H    -4.140048  1.420166  4.747287
H    -3.502326  0.383278  5.988680
H    -5.191592  -0.975781  5.230851
H    -3.983603  -1.587190  4.115025
H    -5.994705  0.625418  3.440356
H    -6.254900  -1.088465  3.142047
H    -4.796956  -1.055248  1.401579
H    -5.207164  1.452636  -0.835208
H    -5.427014  -0.202279  -0.563994
H    -5.103949  2.273365  2.510077
N    -1.487443  -1.512433  5.342337
C    -0.580813  -2.528837  5.877849
H    -2.484919  -1.703545  5.404411
H    -0.865268  -2.757867  6.911353
H    0.443159  -2.151472  5.852239
H    -0.652674  -3.443099  5.275805
Ca    1.246098  1.528669  3.793837
