36
Energy: -39737.5726302 eV PBE+vdW (tier 2 basis)
C    -0.965086  -0.026172  -0.292665
C    -0.506751  0.009337  1.131251
O    0.683459  -0.278613  1.427732
H    -2.022306  0.226459  -0.423060
H    -0.781571  -1.030375  -0.698095
H    -0.353789  0.670177  -0.882324
N    -1.408043  0.345587  2.072424
C    -1.241017  0.416564  3.539470
C    -0.328581  1.606191  3.919476
O    0.922909  1.513214  3.785670
H    -2.339984  0.560471  1.731047
H    -2.255585  0.624525  3.902481
C    -0.738252  -0.865170  4.253532
C    -1.109670  -2.226499  3.637847
C    0.114223  -3.068668  3.246250
N    0.991701  -3.369491  4.375288
C    2.299302  -3.027445  4.504681
N    3.025367  -3.785793  5.358902
N    2.828664  -1.988731  3.853258
H    -1.116075  -0.793824  5.282209
H    0.352939  -0.814405  4.378198
H    -1.734824  -2.108801  2.741703
H    -1.724513  -2.796338  4.347174
H    0.714712  -2.567554  2.478561
H    -0.224462  -4.018145  2.806581
H    0.654408  -4.076312  5.021121
H    3.942479  -3.490001  5.667001
H    2.711628  -4.697043  5.670267
H    3.847779  -2.060182  3.935890
N    -0.914979  2.698759  4.391744
C    -0.216136  3.915967  4.805187
H    -1.928312  2.696991  4.471147
H    0.851783  3.703046  4.891802
H    -0.607256  4.244372  5.774248
H    -0.373013  4.711541  4.065842
Ca    2.292851  0.017360  2.863159
