36
Energy: -39735.7705934 eV PBE+vdW (tier 2 basis)
C    2.320454  -0.915862  0.910181
C    1.146905  -1.342321  1.728595
O    1.257398  -2.354592  2.512636
H    2.104665  -0.045203  0.283182
H    2.644036  -1.757017  0.281436
H    3.161037  -0.677837  1.576250
N    0.019378  -0.656490  1.616899
C    -1.308583  -0.953898  2.192583
C    -1.333958  -0.856739  3.722253
O    -0.823322  -1.754756  4.470288
H    -0.050180  0.050693  0.830493
H    -1.918032  -0.118121  1.824917
C    -1.981825  -2.261129  1.671981
C    -3.405477  -2.007342  1.128311
C    -3.505658  -1.732110  -0.399010
N    -2.394912  -0.994993  -0.997183
C    -1.931670  0.238420  -0.619392
N    -2.829600  1.039207  0.079350
N    -0.705970  0.668971  -0.761923
H    -2.034901  -3.001029  2.484453
H    -1.342322  -2.697086  0.892283
H    -3.859043  -1.177347  1.689964
H    -4.040908  -2.878890  1.334777
H    -4.467109  -1.239633  -0.609528
H    -3.544737  -2.686868  -0.936644
H    -1.739307  -1.542023  -1.541477
H    -2.537347  2.014032  0.061487
H    -3.807686  0.933355  -0.178575
H    -0.152903  0.018170  -1.328434
N    -1.955352  0.189960  4.238517
C    -2.132472  0.462155  5.664707
H    -2.329378  0.873218  3.583342
H    -1.969544  -0.456481  6.232967
H    -1.421370  1.231059  5.993324
H    -3.152225  0.823809  5.833773
Ca    0.683693  -3.244978  4.297006
