36
Energy: -39737.407719 eV PBE+vdW (tier 2 basis)
C    0.137757  0.405529  0.898175
C    -0.643867  0.674193  2.140764
O    -0.560952  1.782792  2.738277
H    -0.103505  1.176238  0.153745
H    -0.050660  -0.584117  0.469584
H    1.208909  0.504632  1.120706
N    -1.456729  -0.292066  2.617669
C    -2.304456  -0.099664  3.794363
C    -1.515279  -0.340054  5.096020
O    -0.951748  0.663477  5.622205
H    -1.504411  -1.174661  2.115236
H    -2.506258  0.977414  3.825436
C    -3.684714  -0.741380  3.661953
C    -4.567293  0.028353  2.660321
C    -4.595397  1.555510  2.839546
N    -4.948484  1.970734  4.204547
C    -4.453217  3.063008  4.855923
N    -5.323190  3.705645  5.668359
N    -3.179181  3.446630  4.735554
H    -4.152322  -0.722369  4.656601
H    -3.623395  -1.800305  3.366314
H    -5.589362  -0.370515  2.729169
H    -4.247327  -0.168551  1.626679
H    -5.324900  1.973952  2.129021
H    -3.634994  2.022779  2.590156
H    -5.879161  1.689917  4.502128
H    -4.998187  4.372022  6.357818
H    -6.326728  3.607240  5.567540
H    -3.127172  4.418401  5.061271
N    -1.440512  -1.561267  5.603115
C    -0.698916  -1.929196  6.810942
H    -1.947938  -2.302527  5.126630
H    0.071579  -2.668209  6.560928
H    -1.385522  -2.361063  7.548470
H    -0.229449  -1.034299  7.225141
Ca    -0.983504  2.696777  4.694005
