36
Energy: -39737.392974 eV PBE+vdW (tier 2 basis)
C    -1.171233  1.479949  -0.191399
C    -0.877068  0.875041  1.146649
O    0.223774  1.086598  1.715866
H    -2.146543  1.197122  -0.600488
H    -0.383873  1.184410  -0.897130
H    -1.124235  2.573977  -0.103178
N    -1.832912  0.103856  1.703374
C    -1.835682  -0.591197  3.008308
C    -1.539210  0.402667  4.161463
O    -0.355824  0.678167  4.499357
H    -2.679643  -0.007637  1.154245
H    -2.877647  -0.915997  3.116191
C    -0.928620  -1.851746  3.145320
C    -0.234344  -2.383193  1.887788
C    0.872064  -3.413201  2.207383
N    1.785726  -3.000412  3.287319
C    2.396699  -1.803512  3.354135
N    2.752643  -1.302117  4.626809
N    2.569418  -0.937816  2.384817
H    -1.544692  -2.646273  3.588517
H    -0.168288  -1.622513  3.901991
H    0.189146  -1.554770  1.306948
H    -0.948298  -2.884332  1.219935
H    1.437807  -3.646179  1.293519
H    0.427315  -4.357175  2.544289
H    1.907693  -3.645988  4.060606
H    2.454867  -1.856752  5.428349
H    3.745387  -1.072710  4.696898
H    2.459756  -1.328167  1.448515
N    -2.589852  0.926133  4.782397
C    -2.516763  1.880921  5.888515
H    -3.515751  0.653720  4.464236
H    -3.322296  1.665374  6.597591
H    -2.630457  2.908083  5.518254
H    -1.550602  1.778438  6.389187
Ca    1.591671  0.890465  3.417938
