36
Energy: -39735.0196184 eV PBE+vdW (tier 2 basis)
C    0.353980  -1.052277  0.544619
C    0.365509  -0.448142  1.900291
O    1.461918  -0.123681  2.477570
H    1.004239  -1.940638  0.588209
H    0.824417  -0.376399  -0.184303
H    -0.649529  -1.359955  0.215534
N    -0.788675  -0.218338  2.566567
C    -1.955545  0.421607  1.949221
C    -1.510613  1.841279  1.552903
O    -0.437168  2.337455  2.071177
H    -0.659918  0.000961  3.556633
H    -2.228805  -0.183308  1.053511
C    -3.117497  0.378060  2.982979
C    -4.585809  0.411843  2.524329
C    -5.160708  -0.845072  1.827408
N    -5.027625  -0.889613  0.376998
C    -3.924156  -1.375255  -0.289558
N    -3.914985  -1.148509  -1.646937
N    -2.861076  -1.891893  0.265499
H    -2.965674  1.190319  3.712012
H    -2.966930  -0.560955  3.538336
H    -4.809536  1.300604  1.920491
H    -5.164820  0.545694  3.450141
H    -6.236811  -0.875904  2.035170
H    -4.750405  -1.760034  2.285943
H    -5.888748  -0.790856  -0.149532
H    -3.315071  -1.773794  -2.174482
H    -4.780701  -0.904139  -2.114378
H    -3.056247  -2.165682  1.231791
N    -2.176212  2.574303  0.679768
C    -3.311526  2.228528  -0.175448
H    -1.790465  3.510204  0.546855
H    -3.046319  2.459577  -1.214041
H    -4.187357  2.824393  0.107514
H    -3.552004  1.167413  -0.100183
Ca    1.540694  1.997284  2.805885
