36
Energy: -39736.0900838 eV PBE+vdW (tier 2 basis)
C    -0.371024  1.638040  0.454694
C    -0.316570  0.850400  1.719726
O    0.728587  0.876915  2.458941
H    -1.325988  1.537241  -0.071087
H    0.438770  1.307590  -0.210645
H    -0.194666  2.699016  0.677086
N    -1.357648  0.107089  2.085131
C    -1.322750  -0.783985  3.253533
C    -2.431201  -1.858429  3.276268
O    -2.138701  -2.949913  3.745846
H    -2.134672  0.023621  1.432439
H    -0.402045  -1.379533  3.163702
C    -1.286320  -0.001168  4.595055
C    -0.278854  -0.601900  5.578785
C    0.047301  0.335959  6.749576
N    1.161709  -0.106203  7.572635
C    2.458728  0.200701  7.342988
N    3.326568  -0.013415  8.352312
N    2.846230  0.694634  6.156514
H    -2.286369  0.010409  5.050490
H    -1.042272  1.052971  4.392418
H    0.659109  -0.879000  5.043412
H    -0.630933  -1.576522  5.946682
H    -0.830736  0.432497  7.401384
H    0.268378  1.355137  6.390655
H    0.942152  -0.615433  8.421642
H    4.326372  0.011490  8.197032
H    3.017784  -0.220180  9.295063
H    3.792028  1.074418  6.267614
N    -3.654742  -1.517206  2.795255
C    -4.773068  -2.463930  2.826048
H    -3.888979  -0.537440  2.667843
H    -4.385786  -3.468920  2.634887
H    -5.491555  -2.193801  2.046196
H    -5.274071  -2.461977  3.803236
Ca    2.214081  0.705454  3.977221
