36
Energy: -39735.3109904 eV PBE+vdW (tier 2 basis)
C    -1.460574  -2.544925  0.708673
C    -1.036600  -1.777452  1.912140
O    0.184692  -1.836192  2.308669
H    -0.848866  -2.241411  -0.151705
H    -2.518167  -2.403705  0.473774
H    -1.269337  -3.613593  0.877882
N    -1.920195  -1.037557  2.575437
C    -1.487751  -0.211626  3.705729
C    -0.893015  -1.070038  4.845565
O    0.354063  -0.883690  5.106919
H    -2.879032  -0.898446  2.162448
H    -0.597480  0.331103  3.348489
C    -2.437151  0.939201  4.123686
C    -3.741718  0.774486  4.926299
C    -5.057757  0.509100  4.166809
N    -5.347024  -0.871912  3.827074
C    -5.040517  -1.577690  2.694473
N    -4.626076  -0.785216  1.583719
N    -5.030871  -2.863559  2.738935
H    -2.640976  1.504189  3.199416
H    -1.784932  1.599905  4.713747
H    -3.628951  0.052025  5.745849
H    -3.882401  1.742725  5.429514
H    -5.099793  1.143590  3.269082
H    -5.883846  0.859801  4.799637
H    -5.741204  -1.461012  4.553284
H    -4.771688  -1.287971  0.708909
H    -5.092703  0.121121  1.514227
H    -4.938886  -3.303577  1.821112
N    -1.548015  -1.985120  5.536283
C    -2.887881  -2.555228  5.377422
H    -0.982129  -2.399579  6.279301
H    -2.802769  -3.643526  5.475598
H    -3.311725  -2.339450  4.395177
H    -3.553314  -2.189663  6.168029
Ca    1.785135  -1.433126  3.625826
