36
Energy: -39736.2144158 eV PBE+vdW (tier 2 basis)
C    0.104321  0.477826  1.187771
C    -0.430389  0.258977  2.563437
O    0.391796  0.267110  3.554434
H    0.649342  1.432335  1.184621
H    -0.664700  0.506652  0.412250
H    0.834521  -0.305079  0.942637
N    -1.709008  0.049235  2.825217
C    -2.876858  -0.101818  1.957331
C    -3.996881  0.565901  2.811685
O    -3.786632  0.659668  4.031433
H    -2.078403  0.184669  3.797995
H    -2.716619  0.410163  1.001742
C    -3.240871  -1.594580  1.744134
C    -2.125707  -2.519961  1.198700
C    -1.564646  -3.547441  2.190537
N    -0.801717  -2.924160  3.277058
C    0.034192  -3.549197  4.134139
N    0.148964  -4.887479  4.056832
N    0.744219  -2.813532  5.010721
H    -4.095674  -1.615326  1.056009
H    -3.626446  -1.986745  2.698385
H    -1.297259  -1.944616  0.761881
H    -2.536448  -3.105051  0.365740
H    -0.893700  -4.226301  1.644321
H    -2.394781  -4.149398  2.599340
H    -1.082009  -1.987993  3.545638
H    0.857574  -5.381099  4.584897
H    -0.494874  -5.452731  3.517225
H    1.143531  -3.432591  5.721998
N    -5.133201  0.960272  2.224383
C    -5.516491  0.896854  0.817867
H    -5.823837  1.325486  2.878481
H    -6.097784  1.790479  0.566713
H    -6.130572  0.010570  0.606846
H    -4.634360  0.884945  0.169450
Ca    1.428840  -0.680435  5.106796
