36
Energy: -39736.2722201 eV PBE+vdW (tier 2 basis)
C    2.651843  2.285274  2.938883
C    1.227614  2.148258  3.377216
O    0.737233  2.983199  4.202669
H    2.766809  3.253715  2.431890
H    3.309655  2.306224  3.816969
H    2.978785  1.489141  2.261971
N    0.502245  1.147106  2.869358
C    -0.947861  0.903895  3.023619
C    -1.267476  0.200504  4.367896
O    -1.035407  0.967830  5.419464
H    0.998070  0.513661  2.248908
H    -1.407756  1.900572  3.118090
C    -1.511772  0.271928  1.735443
C    -0.727535  -0.915686  1.152558
C    -1.467556  -1.724426  0.065171
N    -2.850150  -2.127593  0.385810
C    -3.289900  -2.475150  1.602758
N    -4.582700  -2.319694  1.925134
N    -2.457668  -2.947517  2.554638
H    -1.587821  1.062609  0.974615
H    -2.542047  -0.021022  1.972854
H    -0.387096  -1.576086  1.959821
H    0.183441  -0.563068  0.642216
H    -0.867908  -2.608005  -0.199695
H    -1.550064  -1.122479  -0.848702
H    -3.532670  -2.037299  -0.361157
H    -4.958796  -2.850034  2.703123
H    -5.234177  -1.821500  1.330047
H    -1.588470  -3.335873  2.201049
N    -1.748723  -0.990845  4.429915
C    -2.038265  -1.519889  5.765855
H    -2.288706  -2.283892  3.366162
H    -2.416626  -2.544091  5.675813
H    -2.796311  -0.913790  6.283676
H    -1.139266  -1.539062  6.398473
Ca    -0.330436  2.774819  6.047738
