36
Energy: -39736.8132294 eV PBE+vdW (tier 2 basis)
C    -0.023498  0.349738  -0.336049
C    -0.385476  -0.086622  1.044383
O    0.481882  -0.475306  1.871894
H    0.140082  1.439121  -0.356373
H    -0.799412  0.107394  -1.071229
H    0.924295  -0.121889  -0.615836
N    -1.675843  -0.008536  1.497231
C    -2.655844  0.980817  1.065846
C    -2.065574  2.369981  1.399453
O    -1.232996  2.450081  2.354197
H    -1.953108  -0.697268  2.236052
H    -2.862081  0.873647  -0.008197
C    -3.976594  0.858784  1.872382
C    -4.496570  -0.556857  2.192200
C    -4.026868  -1.147152  3.528670
N    -2.684055  -1.810477  3.471422
C    -1.889003  -1.790089  4.630873
N    -1.714594  -2.960679  5.266717
N    -1.333667  -0.646429  4.985254
H    -4.740913  1.401579  1.301647
H    -3.864281  1.409975  2.819276
H    -4.308054  -1.259021  1.365330
H    -5.590952  -0.486395  2.261011
H    -4.763460  -1.884529  3.877780
H    -3.967454  -0.362324  4.293290
H    -2.762519  -2.752154  3.085169
H    -1.031366  -3.062520  6.010360
H    -2.317037  -3.758257  5.094821
H    -0.982887  -0.704352  5.946771
N    -2.456632  3.455113  0.748061
C    -3.424641  3.581017  -0.342881
H    -2.059514  4.324351  1.107061
H    -3.058237  4.328700  -1.054058
H    -4.399270  3.906975  0.042456
H    -3.544003  2.632164  -0.872972
Ca    -0.214465  0.862865  3.570062
