36
Energy: -39734.3424238 eV PBE+vdW (tier 2 basis)
C    -0.402137  0.417797  -0.115336
C    0.021791  0.250507  1.304680
O    1.213334  0.540808  1.655799
H    -1.397652  0.867178  -0.195006
H    -0.440198  -0.558683  -0.624934
H    0.331969  1.041493  -0.634308
N    -0.822245  -0.224405  2.252938
C    -1.672746  -1.414616  2.089640
C    -0.727591  -2.611157  1.771525
O    0.542608  -2.474919  1.846333
H    -0.449846  -0.110982  3.196017
H    -2.071523  -1.604973  3.098261
C    -2.881850  -1.257650  1.131780
C    -4.145507  -2.033547  1.535940
C    -4.863934  -1.478328  2.783272
N    -6.169428  -2.076315  2.941418
C    -7.247559  -1.634940  2.148125
N    -8.418687  -2.290047  2.436825
N    -7.224695  -0.723018  1.235078
H    -2.590740  -1.520640  0.105919
H    -3.137917  -0.188526  1.121794
H    -3.970741  -3.113254  1.691310
H    -4.843232  -1.981297  0.688648
H    -4.916928  -0.373813  2.705168
H    -4.295152  -1.695012  3.699582
H    -6.423832  -2.331254  3.890812
H    -9.204758  -2.029843  1.851273
H    -8.386799  -3.259981  2.727630
H    -6.356936  -0.183007  1.231090
N    -1.267587  -3.767091  1.448699
C    -0.518696  -4.996997  1.170361
H    -2.285179  -3.803816  1.390391
H    0.084916  -4.880904  0.262105
H    -1.235463  -5.808480  1.021825
H    0.134477  -5.242939  2.015268
Ca    2.317391  -1.266266  2.069605
