36
Energy: -39736.667994 eV PBE+vdW (tier 2 basis)
C    0.244225  1.126763  0.503892
C    0.582181  1.096087  1.956360
O    1.668911  1.635867  2.367258
H    0.945637  0.487530  -0.051072
H    -0.777737  0.805127  0.284550
H    0.390631  2.149846  0.134374
N    -0.208554  0.530036  2.858362
C    -1.435067  -0.257369  2.749643
C    -1.947481  -0.328149  4.212221
O    -1.128631  -0.150745  5.142177
H    0.045488  0.632389  3.847907
H    -2.157165  0.278845  2.118835
C    -1.221625  -1.676075  2.153253
C    -0.585811  -2.781896  3.017041
C    0.910023  -2.694597  3.353117
N    1.174206  -1.771371  4.461372
C    2.202762  -0.931069  4.546534
N    2.083867  0.165013  5.464581
N    3.298497  -0.869538  3.820125
H    -0.654610  -1.565170  1.216879
H    -2.212798  -2.038010  1.846092
H    -0.716784  -3.719502  2.458926
H    -1.158545  -2.929854  3.947135
H    1.488184  -2.360705  2.477920
H    1.277407  -3.694525  3.624680
H    0.400542  -1.614839  5.110033
H    2.704846  0.039575  6.269574
H    1.127491  0.302474  5.809386
H    3.479022  -1.689657  3.240260
N    -3.229511  -0.622137  4.438032
C    -4.315712  -0.840828  3.483781
H    -3.463447  -0.696476  5.427373
H    -4.143392  -0.287212  2.555312
H    -5.246846  -0.469776  3.923987
H    -4.438582  -1.907579  3.254436
Ca    3.363358  1.402775  3.637280
