36
Energy: -39735.3587053 eV PBE+vdW (tier 2 basis)
C    -0.261725  0.232583  0.672535
C    -0.883356  0.551399  1.993184
O    -0.230322  1.258495  2.839609
H    -0.980446  0.307514  -0.149614
H    0.571691  0.920414  0.499900
H    0.134368  -0.794898  0.670791
N    -2.105995  0.100454  2.337139
C    -2.576977  -1.279865  2.144815
C    -1.642659  -2.197567  2.933402
O    -0.582593  -1.725549  3.507301
H    -2.475155  0.543043  3.180317
H    -3.592892  -1.329394  2.667894
C    -2.878408  -1.699672  0.688899
C    -3.735304  -0.685953  -0.082120
C    -5.064189  -0.274531  0.572943
N    -5.966330  -1.370930  0.891782
C    -6.218372  -1.781838  2.176098
N    -7.385181  -2.482210  2.337559
N    -5.335432  -1.555876  3.118328
H    -3.432172  -2.645015  0.736390
H    -1.960516  -1.916123  0.126166
H    -3.933925  -1.120826  -1.072505
H    -3.172289  0.241251  -0.270716
H    -5.579611  0.414660  -0.110581
H    -4.887820  0.280554  1.503862
H    -6.629083  -1.651586  0.178957
H    -7.623871  -2.806005  3.266367
H    -8.179822  -2.283587  1.739588
H    -5.709003  -1.776709  4.042305
N    -1.918070  -3.478477  3.109688
C    -3.109087  -4.240685  2.716863
H    -1.210226  -3.987549  3.637791
H    -2.962581  -4.717397  1.739791
H    -3.987741  -3.586139  2.705091
H    -3.263956  -5.022710  3.467108
Ca    0.551277  -0.110424  4.291113
