36
Energy: -39736.895665 eV PBE+vdW (tier 2 basis)
C    -0.579192  -0.525501  0.571795
C    -0.923231  -0.122927  1.968476
O    -0.165432  0.619314  2.645682
H    -0.361508  0.373016  -0.019901
H    -1.366527  -1.104391  0.077897
H    0.343589  -1.122155  0.591686
N    -2.084286  -0.575442  2.503606
C    -2.466825  -0.216591  3.865780
C    -1.596083  -0.958262  4.912838
O    -0.671228  -0.291702  5.462144
H    -2.681355  -1.177002  1.943406
H    -2.118669  0.812657  3.981818
C    -3.971268  -0.173876  4.163535
C    -4.755990  1.007124  3.546181
C    -4.099808  2.407004  3.525600
N    -3.367044  2.749362  4.756075
C    -2.046602  3.031081  4.852704
N    -1.321111  3.391689  3.689701
N    -1.262740  2.900655  5.894663
H    -4.059150  -0.134207  5.259830
H    -4.470058  -1.107554  3.871216
H    -5.712757  1.066668  4.083183
H    -5.024514  0.785501  2.503470
H    -4.876339  3.158814  3.330392
H    -3.400709  2.458539  2.682151
H    -3.823091  2.507043  5.632151
H    -1.855306  3.477099  2.827869
H    -0.815894  4.264518  3.856014
H    -1.741649  2.682681  6.770754
N    -1.777109  -2.236344  5.223067
C    -2.770344  -3.188518  4.725018
H    -1.128277  -2.582674  5.930401
H    -2.355461  -4.196389  4.822881
H    -2.984790  -3.019345  3.665565
H    -3.699963  -3.136596  5.305751
Ca    0.282626  1.562712  4.652974
