36
Energy: -39736.725962 eV PBE+vdW (tier 2 basis)
C    1.470322  -2.615275  3.259745
C    0.523158  -1.496426  2.944614
O    0.966064  -0.584509  2.103896
H    1.694103  -3.183369  2.346038
H    1.071526  -3.287604  4.024894
H    2.424380  -2.205516  3.616629
N    -0.666716  -1.474262  3.487373
C    -1.549808  -0.370775  3.091109
C    -0.985831  0.981381  3.560840
O    -0.580241  1.838946  2.705446
H    -1.377357  -3.063711  3.884215
H    -1.548854  -0.277326  1.988749
C    -3.031327  -0.627513  3.457979
C    -3.475710  -0.760270  4.923002
C    -3.034690  -2.010676  5.699111
N    -3.634560  -3.250456  5.198616
C    -2.998333  -4.229882  4.535580
N    -3.609748  -5.421053  4.398761
N    -1.787658  -4.025822  4.017807
H    -3.324021  -1.534521  2.906360
H    -3.618264  0.184946  3.004883
H    -4.576083  -0.728547  4.928299
H    -3.187964  0.123690  5.512805
H    -3.340445  -1.905904  6.749406
H    -1.945928  -2.137967  5.694672
H    -4.609998  -3.413178  5.427186
H    -3.250729  -6.125015  3.766636
H    -4.394913  -5.683960  4.981384
H    -1.267719  -4.818188  3.661191
N    -0.884975  1.231255  4.858307
C    -0.341770  2.459211  5.437484
H    -1.152918  0.487419  5.494500
H    -0.835403  2.647027  6.395873
H    -0.534518  3.296959  4.762008
H    0.739348  2.366807  5.608500
Ca    0.917342  1.279979  1.265315
