36
Energy: -39736.3127653 eV PBE+vdW (tier 2 basis)
C    -0.063171  0.861330  -0.525517
C    -0.040817  0.562361  0.939951
O    1.084203  0.320509  1.521470
H    0.561483  1.741441  -0.730189
H    -1.073328  1.049175  -0.902098
H    0.369514  0.014633  -1.075594
N    -1.178435  0.555835  1.596198
C    -1.469500  0.261518  2.996610
C    -3.006772  -0.036785  2.933193
O    -3.614513  0.295174  1.911346
H    -2.091802  0.686801  1.103850
H    -0.917779  -0.638537  3.305829
C    -1.170655  1.468653  3.944141
C    -0.197927  1.224089  5.106374
C    1.234764  0.921988  4.667320
N    2.152910  0.847000  5.782824
C    3.456201  0.506000  5.631586
N    4.233376  0.505038  6.731549
N    3.906034  0.185766  4.413572
H    -2.117304  1.823844  4.371928
H    -0.806441  2.301304  3.325746
H    -0.552783  0.407072  5.750658
H    -0.192191  2.133805  5.726352
H    1.556181  1.712520  3.956182
H    1.232435  -0.054753  4.144796
H    1.833356  1.183802  6.684331
H    5.217161  0.274464  6.676375
H    3.870407  0.716905  7.653126
H    4.893176  -0.077379  4.478685
N    -3.608314  -0.612140  3.988133
C    -3.029718  -1.062598  5.245392
H    -4.614354  -0.715518  3.870591
H    -2.029613  -1.486127  5.091257
H    -3.658903  -1.860139  5.653232
H    -2.976529  -0.255202  5.990106
Ca    3.007177  0.100209  2.324317
