36
Energy: -39737.6108267 eV PBE+vdW (tier 2 basis)
C    1.413850  -0.739222  1.381724
C    0.695507  0.411312  2.018473
O    1.350928  1.357597  2.529121
H    0.749511  -1.500458  0.960223
H    2.062036  -1.206499  2.135547
H    2.070824  -0.356918  0.589427
N    -0.650838  0.372247  2.010462
C    -1.677299  1.273381  2.590371
C    -1.593927  2.716535  2.064032
O    -0.624813  3.483934  2.314970
H    -1.041077  -0.453502  1.565882
H    -2.609774  0.862755  2.179948
C    -1.855661  1.140427  4.125776
C    -0.762471  1.590771  5.113141
C    -0.888361  3.046851  5.601952
N    0.061642  3.387032  6.647695
C    1.284072  3.942608  6.463151
N    1.947718  4.312409  7.582212
N    1.790592  4.108007  5.240884
H    -2.047240  0.070924  4.291291
H    -2.804730  1.642704  4.374180
H    0.244005  1.388810  4.721013
H    -0.847410  0.947604  6.000669
H    -1.895591  3.202561  6.013903
H    -0.788280  3.781565  4.790732
H    -0.208160  3.167919  7.599781
H    1.502820  4.338513  8.491306
H    2.906027  4.632118  7.536716
H    2.644599  4.667138  5.323277
N    -2.636002  3.144796  1.358727
C    -2.761446  4.502382  0.825758
H    -3.385254  2.490321  1.154896
H    -3.812666  4.688297  0.589553
H    -2.162003  4.616035  -0.086617
H    -2.420801  5.226932  1.572246
Ca    1.439725  3.464123  3.070264
