36
Energy: -39735.3521815 eV PBE+vdW (tier 2 basis)
C    -0.861436  0.383032  -0.498691
C    -0.962590  -0.109873  0.903502
O    -0.132351  -0.970305  1.350869
H    0.120430  0.858272  -0.636127
H    -1.645798  1.099619  -0.762334
H    -0.901070  -0.469959  -1.189514
N    -1.926198  0.361732  1.701124
C    -2.029114  0.043022  3.135986
C    -2.420329  -1.439324  3.325847
O    -1.479726  -2.250828  3.672186
H    -2.553610  1.070017  1.325795
H    -1.004973  0.097342  3.539333
C    -2.874632  1.075478  3.892933
C    -2.679909  0.989831  5.417201
C    -3.746491  1.765794  6.227410
N    -4.993429  1.035001  6.440022
C    -5.869188  0.687289  5.418902
N    -6.056217  1.669592  4.444514
N    -6.481403  -0.442543  5.279741
H    -3.938867  0.995304  3.637996
H    -2.551970  2.071433  3.550320
H    -1.682383  1.377839  5.677065
H    -2.702550  -0.060396  5.753457
H    -3.951368  2.737462  5.756629
H    -3.340981  1.995828  7.220248
H    -4.931493  0.320116  7.158861
H    -6.887579  1.468135  3.893491
H    -6.076419  2.622443  4.800991
H    -6.222314  -1.111800  6.009813
N    -3.632597  -1.912733  3.122777
C    -4.865464  -1.275528  2.649406
H    -3.716066  -2.909248  3.333531
H    -5.354946  -1.973500  1.960968
H    -4.647496  -0.350277  2.112961
H    -5.544589  -1.068936  3.503688
Ca    0.397187  -2.499937  2.724604
