36
Energy: -39735.0633864 eV PBE+vdW (tier 2 basis)
C    0.527905  -0.647670  -1.238795
C    0.862039  -0.683095  0.211389
O    2.025885  -1.066724  0.576065
H    -0.425738  -0.166701  -1.457954
H    0.565778  -1.650764  -1.685436
H    1.334255  -0.073266  -1.722523
N    0.013838  -0.229826  1.173268
C    -1.325855  -0.768916  1.501884
C    -1.085933  -1.958529  2.463933
O    -0.035467  -2.694781  2.316184
H    0.531054  -0.006298  2.026129
H    -1.863789  0.014631  2.054072
C    -2.199730  -1.209343  0.311067
C    -2.917633  -0.042995  -0.405937
C    -4.337314  0.244943  0.119846
N    -4.387738  0.437530  1.565845
C    -4.629122  -0.597228  2.451451
N    -4.262707  -0.295382  3.785372
N    -4.952041  -1.818986  2.216143
H    -2.945449  -1.907201  0.714735
H    -1.601676  -1.803993  -0.390389
H    -3.005386  -0.275715  -1.476988
H    -2.310711  0.873543  -0.338119
H    -5.019339  -0.567099  -0.173223
H    -4.727187  1.149130  -0.362943
H    -4.543199  1.384565  1.894572
H    -4.861702  -0.784378  4.450093
H    -4.190118  0.693108  4.018170
H    -5.251726  -1.979329  1.252771
N    -1.985785  -2.176555  3.386994
C    -2.043922  -3.333295  4.275685
H    -2.760607  -1.484060  3.502072
H    -3.060306  -3.742408  4.230125
H    -1.829098  -3.025496  5.307018
H    -1.325449  -4.092078  3.958025
Ca    2.011730  -2.831889  1.820397
