36
Energy: -39736.2986913 eV PBE+vdW (tier 2 basis)
C    -1.812416  1.268644  -0.666017
C    -1.336794  -0.101607  -0.321521
O    -1.100402  -0.947291  -1.221320
H    -2.116135  1.862113  0.198999
H    -2.586951  1.246980  -1.440815
H    -0.940602  1.778050  -1.112930
N    -1.006797  -0.412127  0.988355
C    -2.002243  -0.661218  2.061289
C    -2.075879  -2.200099  2.164747
O    -2.213301  -2.891259  1.116084
H    -0.304437  -1.153675  0.981096
H    -1.622920  -0.249977  3.008863
C    -3.389531  -0.054789  1.744761
C    -4.621060  -0.623808  2.491144
C    -5.764395  -1.082508  1.560549
N    -5.491952  -2.346460  0.861146
C    -4.915522  -2.559626  -0.337029
N    -4.559463  -1.462533  -1.155577
N    -4.500117  -3.702125  -0.834312
H    -3.544385  -0.174584  0.667301
H    -3.327811  1.026226  1.916502
H    -5.034318  0.143782  3.158250
H    -4.353972  -1.465106  3.146742
H    -6.021702  -0.303202  0.828684
H    -6.675807  -1.238192  2.151556
H    -5.607589  -3.183991  1.425425
H    -4.858312  -0.545409  -0.829850
H    -4.901022  -1.609105  -2.108059
H    -4.817167  -4.527833  -0.322343
N    -1.964252  -2.736606  3.373226
C    -1.993741  -4.167416  3.676642
H    -1.809507  -2.100879  4.152627
H    -2.768845  -4.371282  4.424659
H    -1.022637  -4.481574  4.078331
H    -2.206161  -4.723293  2.760822
Ca    -2.306623  -2.879849  -1.125442
