36
Energy: -39735.5033174 eV PBE+vdW (tier 2 basis)
C    -1.877211  -0.086706  -0.177956
C    -1.264716  -0.106989  1.162771
O    -0.064035  -0.519161  1.314544
H    -2.782076  0.526652  -0.244189
H    -2.156544  -1.165444  -0.345620
H    -1.150930  0.201646  -0.944052
N    -2.014864  0.236781  2.225968
C    -1.841993  -0.112981  3.653324
C    -0.712356  0.653727  4.346015
O    0.501303  0.534601  3.966432
H    -2.945129  0.568192  1.986829
H    -2.784187  0.203957  4.115178
C    -1.700201  -1.636748  3.895616
C    -2.944300  -2.404399  3.428822
C    -2.684129  -3.896274  3.088496
N    -3.483397  -4.352502  1.972707
C    -3.344038  -3.806939  0.711092
N    -4.408261  -3.975044  -0.132082
N    -2.315745  -3.106598  0.313888
H    -1.504104  -1.798974  4.966167
H    -0.812331  -2.008975  3.360015
H    -3.323342  -1.942039  2.507878
H    -3.741946  -2.322828  4.180328
H    -2.906250  -4.543138  3.944817
H    -1.611636  -4.050533  2.871286
H    -4.274556  -4.953374  2.167830
H    -4.207453  -3.891465  -1.121432
H    -5.161114  -4.605983  0.110969
H    -1.552440  -3.184188  0.988653
N    -0.984208  1.400034  5.404081
C    -2.283446  1.682747  6.029215
H    -0.163914  1.816458  5.846042
H    -2.984601  2.114943  5.306110
H    -2.118434  2.418055  6.821357
H    -2.710844  0.779702  6.481796
Ca    1.691650  -0.251451  2.395664
