36
Energy: -39737.4302068 eV PBE+vdW (tier 2 basis)
C    -1.747511  -2.140103  0.925492
C    -1.750547  -1.674380  2.350104
O    -1.598135  -2.497573  3.290740
H    -1.926198  -1.341280  0.198373
H    -2.513690  -2.916360  0.800827
H    -0.779204  -2.610362  0.707057
N    -1.927152  -0.357830  2.568779
C    -1.982022  0.374894  3.851156
C    -0.597739  0.333985  4.548484
O    -0.202850  -0.715351  5.127315
H    -2.040810  0.213659  1.737221
H    -2.198755  1.409690  3.555775
C    -3.050508  -0.094889  4.860415
C    -4.422183  -0.555363  4.338925
C    -5.117214  -1.524099  5.317752
N    -4.616377  -2.908980  5.229366
C    -3.482237  -3.389289  5.773108
N    -2.929826  -4.559729  5.216763
N    -2.707230  -2.836801  6.682007
H    -3.186590  0.731479  5.574017
H    -2.608206  -0.902542  5.446085
H    -4.332750  -1.057385  3.365097
H    -5.082608  0.308223  4.179291
H    -6.189179  -1.575139  5.095950
H    -5.043030  -1.169621  6.355894
H    -5.169564  -3.547271  4.666042
H    -2.783283  -5.295648  5.908815
H    -3.376920  -4.921941  4.376344
H    -3.155591  -2.091609  7.217154
N    0.128712  1.444400  4.517967
C    1.448999  1.599014  5.129737
H    -0.253231  2.249162  4.028775
H    1.509994  2.584477  5.602939
H    2.234573  1.516862  4.367695
H    1.589166  0.819969  5.882963
Ca    -0.809577  -2.866398  5.319967
