36
Energy: -39736.1651986 eV PBE+vdW (tier 2 basis)
C    0.187164  -1.112454  0.666705
C    -0.036426  0.032266  1.601548
O    0.866510  0.921623  1.748963
H    0.174679  -0.773321  -0.379376
H    -0.536270  -1.922648  0.792128
H    1.197949  -1.498133  0.857670
N    -1.186358  0.127176  2.302527
C    -2.493094  0.011186  1.628637
C    -2.823803  1.427485  1.062787
O    -1.776442  2.114077  0.619521
H    -1.155391  0.845690  3.028272
H    -2.332731  -0.639210  0.754873
C    -3.569680  -0.614847  2.519931
C    -4.721644  -1.260832  1.712279
C    -6.114560  -0.940856  2.248862
N    -6.364802  0.496093  2.115804
C    -7.487909  1.101251  2.486846
N    -8.528645  0.400700  2.964326
N    -7.587935  2.443036  2.403687
H    -3.953253  0.149356  3.211248
H    -3.084789  -1.378794  3.140513
H    -4.606563  -2.351903  1.706612
H    -4.681857  -0.944070  0.659898
H    -6.198138  -1.243468  3.306528
H    -6.859493  -1.511068  1.670776
H    -5.565288  1.055356  1.727880
H    -9.368613  0.858004  3.294976
H    -8.508404  -0.609342  3.003075
H    -8.475434  2.913082  2.526292
N    -4.044805  1.827038  1.047884
C    -4.346155  3.119717  0.440716
H    -6.824920  2.989524  2.028804
H    -5.347701  3.082297  -0.008795
H    -3.633828  3.409899  -0.343078
H    -4.345711  3.912468  1.206398
Ca    0.178423  2.735797  0.756236
