36
Energy: -39737.2005543 eV PBE+vdW (tier 2 basis)
C    0.236430  0.708901  0.650011
C    -0.601899  0.690137  1.884174
O    -0.468034  1.566306  2.782279
H    0.111321  1.679039  0.150585
H    -0.006148  -0.094202  -0.053421
H    1.294691  0.632408  0.934488
N    -1.524791  -0.287610  2.027664
C    -2.414708  -0.318850  3.184026
C    -1.717620  -0.899601  4.433216
O    -1.313803  -0.061138  5.294968
H    -1.630005  -0.972980  1.284774
H    -2.516348  0.739374  3.455003
C    -3.860447  -0.764377  2.883031
C    -4.736487  0.491104  2.731748
C    -4.895655  1.257402  4.066685
N    -4.959080  2.704661  3.902674
C    -4.173109  3.622972  4.518215
N    -4.678901  4.877200  4.584139
N    -2.967341  3.324866  5.017074
H    -4.239245  -1.398475  3.697093
H    -3.906190  -1.377073  1.971837
H    -5.722001  0.212366  2.337571
H    -4.280895  1.157496  1.983270
H    -4.067017  1.059498  4.758306
H    -5.803359  0.915236  4.585642
H    -5.787029  3.067767  3.441053
H    -4.087214  5.666759  4.807735
H    -5.659329  5.073198  4.421948
H    -2.714700  4.100548  5.640173
N    -1.530533  -2.198868  4.612782
C    -1.903460  -3.318895  3.752162
H    -1.055115  -2.434901  5.485172
H    -2.296621  -2.964694  2.796916
H    -2.668302  -3.934369  4.242065
H    -1.020043  -3.938867  3.559355
Ca    -1.013367  2.108363  4.864181
