36
Energy: -39736.1937443 eV PBE+vdW (tier 2 basis)
C    0.718369  0.469738  0.244826
C    0.157520  -0.518107  1.210753
O    0.795095  -1.587883  1.490471
H    0.078941  1.347962  0.108889
H    0.859872  -0.022456  -0.727549
H    1.709511  0.794137  0.588593
N    -1.024259  -0.286874  1.781275
C    -1.676795  -1.250383  2.677179
C    -3.226419  -1.265369  2.637395
O    -3.751843  -2.376907  2.604338
H    -1.506061  0.573430  1.536055
H    -1.448921  -2.238271  2.254594
C    -1.116645  -1.169167  4.115757
C    -1.649052  -2.229427  5.092518
C    -1.612945  -3.695401  4.660706
N    -0.252395  -4.226882  4.272561
C    0.818672  -4.099623  5.248205
N    0.563441  -4.380666  6.528447
N    1.946209  -3.705222  4.720899
H    -1.333103  -0.178203  4.538356
H    -0.015722  -1.212172  4.062823
H    -2.706976  -2.025500  5.313015
H    -1.123449  -2.094311  6.049075
H    -2.255238  -3.850101  3.783547
H    -2.043973  -4.310298  5.466786
H    -0.384047  -5.230390  4.092065
H    1.280374  -4.299357  7.243479
H    -0.339610  -4.733197  6.826639
H    2.736008  -3.648062  5.367500
N    -3.942291  -0.117679  2.703461
C    -3.503884  1.269314  2.804582
H    -4.946343  -0.281604  2.653071
H    -4.289807  1.850683  3.297875
H    -3.333866  1.731035  1.817726
H    -2.604200  1.368300  3.423732
Ca    1.351339  -3.365767  2.519821
