36
Energy: -39737.3475823 eV PBE+vdW (tier 2 basis)
C    -0.065859  0.149626  0.193569
C    -0.077861  -0.006541  1.684971
O    0.915932  -0.507465  2.272772
H    0.801517  0.756153  -0.097822
H    -0.974113  0.604395  -0.214939
H    0.072614  -0.841793  -0.258883
N    -1.186181  0.407720  2.329776
C    -1.610339  0.334743  3.745286
C    -0.714906  1.135639  4.703648
O    0.540640  1.035924  4.705770
H    -1.900314  0.789393  1.716905
H    -2.571035  0.863361  3.726596
C    -1.985741  -1.090161  4.241379
C    -0.921926  -2.170596  4.504564
C    -0.177193  -2.074923  5.853600
N    1.280583  -1.842917  5.700307
C    2.125875  -2.845691  5.110747
N    1.774726  -4.135877  5.214722
N    3.141619  -2.331714  4.474586
H    -2.684245  -1.476490  3.485357
H    -2.593058  -0.958081  5.150971
H    -0.205852  -2.219893  3.673789
H    -1.454400  -3.130008  4.474605
H    -0.382278  -2.964944  6.469708
H    -0.542643  -1.225026  6.444248
H    1.692676  -1.554784  6.592169
H    2.321803  -4.861370  4.762851
H    1.074929  -4.443944  5.879928
H    3.829428  -3.009109  4.138802
N    -1.317349  1.940765  5.580753
C    -2.743692  2.246721  5.733665
H    -0.672759  2.431062  6.199472
H    -3.146653  2.737522  4.838475
H    -2.849010  2.940890  6.571995
H    -3.328849  1.348679  5.965248
Ca    2.233911  -0.218266  3.988409
