36
Energy: -39736.5713218 eV PBE+vdW (tier 2 basis)
C    0.171888  0.700091  1.295204
C    1.112472  -0.139285  2.122192
O    2.354483  0.215788  2.151397
H    -0.707973  1.011656  1.870107
H    -0.179334  0.137603  0.417532
H    0.702954  1.588749  0.943070
N    0.816453  -1.255594  2.795349
C    -0.261495  -2.176770  2.455747
C    0.275328  -2.997331  1.247939
O    1.524470  -3.165607  1.156347
H    -7.212355  0.317053  3.278920
H    -0.263948  -2.920538  3.274611
C    -1.711724  -1.630130  2.388141
C    -2.767454  -2.630978  2.887874
C    -4.202724  -2.094956  2.929040
N    -4.378447  -1.096433  3.994413
C    -5.440604  -0.285273  4.125111
N    -5.452738  0.645789  5.089955
N    -6.475924  -0.379197  3.282266
H    -1.968105  -1.275248  1.377940
H    -1.733104  -0.738088  3.029549
H    -2.490784  -2.997682  3.890682
H    -2.794454  -3.535174  2.260883
H    -4.894042  -2.937662  3.091138
H    -4.457622  -1.620624  1.969100
H    -3.767188  -1.176040  4.801675
H    -6.304207  1.134287  5.340910
H    -4.618257  0.877417  5.614345
H    -6.618044  -1.199937  2.707366
N    -0.566450  -3.525760  0.363040
C    -0.170776  -4.361472  -0.771313
H    -1.554057  -3.324387  0.471436
H    -0.400620  -3.852906  -1.715509
H    -0.708403  -5.316090  -0.734815
H    0.903933  -4.546738  -0.711020
Ca    2.957525  -1.870067  2.354462
