36
Energy: -39737.3591037 eV PBE+vdW (tier 2 basis)
C    1.063582  -0.819833  1.476035
C    0.100222  -0.857405  2.621705
O    0.354118  -1.541267  3.648299
H    0.748845  -0.169230  0.653673
H    1.192922  -1.841675  1.093518
H    2.044731  -0.489856  1.841629
N    -1.034356  -0.135178  2.499876
C    -2.188251  -0.070944  3.422815
C    -1.779382  0.592409  4.757466
O    -1.133010  -0.043482  5.632611
H    -1.135138  0.382425  1.631916
H    -2.908918  0.591854  2.923963
C    -2.844183  -1.448371  3.622986
C    -4.117967  -1.453969  4.492834
C    -4.291944  -2.723441  5.351751
N    -3.424288  -2.727797  6.538825
C    -2.124531  -3.078262  6.619185
N    -1.531067  -3.827437  5.574367
N    -1.249477  -2.714904  7.527122
H    -2.080988  -2.111914  4.039743
H    -3.070004  -1.850527  2.625954
H    -5.004724  -1.349403  3.852874
H    -4.138339  -0.587376  5.172705
H    -4.130800  -3.639497  4.765265
H    -5.324184  -2.788676  5.716425
H    -3.734491  -2.113517  7.287798
H    -1.039907  -4.637379  5.958769
H    -2.153999  -4.131568  4.828325
H    -1.652917  -2.234622  8.334264
N    -2.152710  1.856211  4.933562
C    -1.841630  2.667887  6.110008
H    -2.669918  2.307364  4.183955
H    -2.732679  3.232413  6.404550
H    -1.031208  3.372324  5.882848
H    -1.533986  2.011386  6.927314
Ca    0.164473  -1.843000  5.830554
