36
Energy: -39736.0489168 eV PBE+vdW (tier 2 basis)
C    0.138750  1.603875  0.590912
C    -0.068946  0.749270  1.795474
O    0.949329  0.198517  2.359412
H    0.833031  1.116872  -0.104199
H    0.625370  2.535250  0.919465
H    -0.787362  1.862001  0.071098
N    -1.264522  0.514041  2.314517
C    -2.622995  0.905898  1.929654
C    -3.280622  1.153475  3.325548
O    -2.765616  0.589076  4.302174
H    -1.339239  0.174702  3.304545
H    -2.613644  1.817975  1.318949
C    -3.383314  -0.246092  1.226598
C    -2.966767  -0.641276  -0.199657
C    -1.740294  -1.546865  -0.398961
N    -1.832203  -2.882399  0.209023
C    -1.008418  -3.355140  1.173133
N    -0.846244  -4.689184  1.280779
N    -0.343972  -2.538485  2.003039
H    -4.437632  0.062283  1.186293
H    -3.369366  -1.123944  1.893014
H    -2.805646  0.257454  -0.815616
H    -3.828439  -1.146650  -0.660685
H    -0.815695  -1.087637  -0.031944
H    -1.597740  -1.689766  -1.480056
H    -2.413232  -3.558920  -0.278416
H    -0.552574  -5.084428  2.164904
H    -1.222272  -5.331744  0.593498
H    -0.836730  -1.637703  1.988253
N    -4.374397  1.920974  3.359321
C    -5.137353  2.192660  4.577749
H    -4.687532  2.359005  2.498593
H    -5.168439  3.271763  4.768307
H    -4.644067  1.690004  5.413449
H    -6.161344  1.813549  4.476552
Ca    1.546791  -1.765409  2.877159
