36
Energy: -39734.9895225 eV PBE+vdW (tier 2 basis)
C    -0.436049  0.497645  2.592439
C    -1.143977  -0.257899  3.667743
O    -0.621476  -0.357918  4.828713
H    -1.107678  1.205244  2.093058
H    -0.053978  -0.187280  1.819542
H    0.409033  1.037207  3.029107
N    -2.332935  -0.864253  3.447324
C    -2.633582  -1.693411  2.268165
C    -1.567548  -2.842043  2.227944
O    -0.736012  -2.952025  3.211103
H    -2.769263  -1.193522  4.308448
H    -3.593190  -2.174034  2.512258
C    -2.823312  -0.918373  0.940177
C    -3.992425  -1.454930  0.093947
C    -3.808748  -1.243244  -1.423374
N    -2.518174  -1.685920  -1.942559
C    -1.986378  -2.956670  -1.889096
N    -2.844653  -3.935180  -1.310974
N    -0.798555  -3.340537  -2.188704
H    -1.897277  -0.949822  0.349339
H    -3.011524  0.132746  1.190976
H    -4.929804  -0.967087  0.396306
H    -4.142061  -2.525087  0.293492
H    -3.882707  -0.174261  -1.659957
H    -4.650634  -1.721039  -1.952292
H    -1.976637  -1.012310  -2.469168
H    -2.493924  -4.853930  -1.585982
H    -3.821115  -3.854676  -1.596153
H    -0.205064  -2.586714  -2.542950
N    -1.541404  -3.667237  1.215682
C    -0.573324  -4.750946  1.033767
H    -2.235361  -3.610474  0.426098
H    0.280906  -4.614333  1.699796
H    -0.244739  -4.724812  -0.013902
H    -1.050830  -5.717136  1.243147
Ca    0.137430  -2.364033  5.047003
