36
Energy: -39734.2796693 eV PBE+vdW (tier 2 basis)
C    0.096865  -0.382352  0.096665
C    0.123771  -0.045662  1.549129
O    1.232149  0.194833  2.133168
H    -0.702792  0.150545  -0.429303
H    -0.078883  -1.460817  -0.048093
H    1.065674  -0.133483  -0.346433
N    -1.010082  -0.004997  2.291328
C    -2.050768  -1.047496  2.271554
C    -1.357701  -2.393138  2.642186
O    -0.155150  -2.404348  3.079155
H    -0.858611  0.408469  3.211548
H    -2.699727  -0.798184  3.126072
C    -2.944423  -1.098408  1.008329
C    -4.413032  -1.472656  1.280500
C    -5.269795  -0.290339  1.790561
N    -6.669680  -0.621834  1.980547
C    -7.461890  -1.148278  0.946023
N    -7.171630  -0.614971  -0.307956
N    -8.359259  -2.057933  1.061935
H    -2.506683  -1.774984  0.261586
H    -2.928609  -0.093643  0.561707
H    -4.515929  -2.308317  1.996335
H    -4.858304  -1.823327  0.339529
H    -5.169632  0.539066  1.073400
H    -4.896498  0.095768  2.751839
H    -6.912535  -0.992646  2.893045
H    -7.825469  -0.966568  -1.004228
H    -7.100967  0.399688  -0.340499
H    -8.419724  -2.451209  2.004860
N    -2.043262  -3.510026  2.517170
C    -1.548989  -4.844138  2.873876
H    -2.991277  -3.435622  2.149725
H    -2.366701  -5.557901  2.746678
H    -1.215985  -4.858864  3.917825
H    -0.717032  -5.131953  2.219827
Ca    1.742703  -1.442127  3.444411
