36
Energy: -39735.2977343 eV PBE+vdW (tier 2 basis)
C    0.095575  -0.089717  0.214893
C    -0.205954  0.082033  1.665876
O    0.755124  0.312639  2.477308
H    0.368285  -1.133941  -0.003996
H    0.975516  0.522765  -0.017053
H    -0.737526  0.197216  -0.430737
N    -1.464761  0.046307  2.167050
C    -2.452877  -1.036525  1.995399
C    -1.958361  -2.252692  2.836825
O    -0.733671  -2.283735  3.255806
H    -1.488152  0.424592  3.115579
H    -3.366919  -0.678876  2.498228
C    -2.821585  -1.419907  0.549310
C    -3.664835  -0.396284  -0.230723
C    -5.084087  -0.109508  0.322155
N    -5.814667  -1.315594  0.732196
C    -5.620104  -1.876535  1.975495
N    -5.559160  -0.979591  3.032894
N    -5.406260  -3.137244  2.242632
H    -3.375991  -2.363956  0.614838
H    -1.920863  -1.670576  -0.023959
H    -3.757879  -0.785184  -1.255586
H    -3.140033  0.567484  -0.323345
H    -5.666001  0.411256  -0.448513
H    -5.035694  0.574186  1.177204
H    -5.938392  -2.002833  -0.007521
H    -5.698791  -1.442322  3.927611
H    -6.145600  -0.154132  2.939142
H    -5.431562  -3.718545  1.400636
N    -2.812076  -3.195323  3.135332
C    -2.467661  -4.378663  3.923442
H    -3.847600  -3.146253  2.806846
H    -3.364220  -5.000351  3.998646
H    -2.145733  -4.094788  4.933507
H    -1.668052  -4.952896  3.439741
Ca    1.092855  -1.375088  3.776688
