36
Energy: -39735.9369309 eV PBE+vdW (tier 2 basis)
C    0.229639  -0.141914  0.443537
C    0.111092  -0.060815  1.930863
O    1.148039  -0.123520  2.667610
H    0.391143  0.864252  0.024540
H    -0.663025  -0.567620  -0.026198
H    1.107269  -0.747303  0.192389
N    -1.101268  0.106282  2.504098
C    -2.054370  1.111933  2.010629
C    -1.386290  2.521952  2.050545
O    -0.236584  2.618742  2.703854
H    -1.074971  0.039126  3.522931
H    -2.250812  0.898595  0.951148
C    -3.368249  1.015403  2.811880
C    -4.366699  -0.025494  2.258335
C    -5.550833  0.593562  1.496207
N    -5.095034  1.594120  0.522022
C    -5.465257  2.889810  0.479126
N    -6.730386  3.231663  0.763274
N    -4.537569  3.794395  0.157492
H    -3.823266  2.013451  2.832907
H    -3.122176  0.787185  3.859714
H    -4.791106  -0.627513  3.072176
H    -3.842006  -0.744286  1.609835
H    -6.221027  1.105350  2.199468
H    -6.132193  -0.193297  0.996435
H    -4.258745  1.381370  -0.011003
H    -6.986334  4.199202  0.920460
H    -7.484305  2.560618  0.670228
H    -4.814323  4.728561  -0.123728
N    -1.981020  3.469629  1.422391
C    -1.373960  4.800268  1.450701
H    -3.555379  3.627074  0.494896
H    -2.036672  5.515858  0.951644
H    -0.409679  4.812428  0.920214
H    -1.198931  5.151589  2.477792
Ca    1.529955  1.883439  3.450985
