36
Energy: -39737.3841035 eV PBE+vdW (tier 2 basis)
C    -0.320297  0.129030  -0.044440
C    -0.379553  -0.152117  1.425222
O    0.568139  -0.763294  1.992496
H    -1.218442  0.614890  -0.439285
H    -0.151039  -0.812095  -0.584554
H    0.549733  0.768773  -0.247427
N    -1.473564  0.256174  2.092384
C    -1.812698  0.160040  3.532643
C    -0.767585  0.896430  4.404812
O    0.342254  0.356781  4.670649
H    -2.163140  0.742991  1.527427
H    -2.762254  0.707185  3.602899
C    -2.048941  -1.244356  4.126511
C    -2.908641  -2.263861  3.365059
C    -2.198984  -3.096073  2.268126
N    -0.788828  -3.399410  2.531616
C    -0.253338  -3.953821  3.653899
N    -0.974431  -4.905953  4.284215
N    0.921610  -3.490966  4.083800
H    -2.527207  -1.055218  5.099133
H    -1.086355  -1.704215  4.381083
H    -3.794611  -1.790458  2.916878
H    -3.301390  -2.954226  4.123017
H    -2.202976  -2.570435  1.306222
H    -2.772214  -4.017906  2.093730
H    -0.119705  -2.866043  1.990695
H    -0.637777  -5.310636  5.149481
H    -1.672595  -5.440872  3.779608
H    1.360673  -4.147368  4.734392
N    -1.105801  2.088977  4.878463
C    -0.265252  2.917916  5.743455
H    -2.016417  2.461264  4.623086
H    0.510358  2.294586  6.194742
H    -0.887317  3.358545  6.529554
H    0.202464  3.722710  5.161987
Ca    1.597469  -1.288327  3.862699
