36
Energy: -39734.5109087 eV PBE+vdW (tier 2 basis)
C    0.453624  0.829739  0.785582
C    0.121166  -0.072356  1.924714
O    0.953602  -0.255148  2.872155
H    -0.199514  0.692587  -0.081095
H    1.494006  0.631126  0.494076
H    0.417986  1.883197  1.103054
N    -1.072184  -0.707104  1.977276
C    -2.339751  -0.022320  1.733216
C    -2.544949  0.995694  2.896578
O    -1.680821  1.095632  3.832636
H    -1.123039  -1.434506  2.693729
H    -2.253496  0.556268  0.801323
C    -3.495412  -1.037177  1.616393
C    -3.351296  -2.040299  0.466566
C    -3.350599  -1.404281  -0.944380
N    -3.702892  -2.312651  -2.006973
C    -5.021226  -2.744251  -2.178966
N    -5.151160  -3.761571  -3.097940
N    -6.072318  -2.308167  -1.563904
H    -4.435598  -0.479305  1.484621
H    -3.597604  -1.568432  2.577124
H    -4.205082  -2.729209  0.534911
H    -2.450370  -2.658737  0.598531
H    -2.361652  -0.984641  -1.185779
H    -4.059696  -0.558422  -0.972907
H    -2.980346  -2.957828  -2.310298
H    -6.116916  -3.992861  -3.308790
H    -4.535368  -3.766193  -3.904077
H    -5.859843  -1.602058  -0.857439
N    -3.624963  1.750046  2.885876
C    -3.962081  2.747177  3.908896
H    -4.283160  1.624868  2.120264
H    -4.898702  3.230897  3.620919
H    -3.172235  3.504119  3.976840
H    -4.091953  2.262738  4.883807
Ca    0.235004  0.617295  4.717044
