36
Energy: -39737.5401187 eV PBE+vdW (tier 2 basis)
C    0.392180  -0.327073  0.551038
C    -0.345148  -0.622998  1.820294
O    -0.292488  -1.768038  2.339968
H    0.085395  -1.048656  -0.217471
H    1.466335  -0.482508  0.721227
H    0.234528  0.688675  0.174252
N    -1.065919  0.375092  2.368526
C    -1.876059  0.375198  3.605649
C    -0.960181  0.184365  4.843619
O    -0.578091  -0.968908  5.180304
H    -1.046483  1.256705  1.865077
H    -2.295127  1.388411  3.636761
C    -3.048654  -0.639147  3.682768
C    -3.631600  -1.223657  2.387671
C    -4.067433  -2.680620  2.604640
N    -2.883081  -3.526452  2.879823
C    -2.924291  -4.670740  3.714485
N    -4.107487  -5.256381  3.955808
N    -1.760367  -4.987887  4.229737
H    -3.845234  -0.152134  4.261518
H    -2.721329  -1.473717  4.318676
H    -2.907544  -1.188355  1.562350
H    -4.500466  -0.645120  2.048937
H    -4.622704  -3.044841  1.727727
H    -4.736664  -2.740955  3.473502
H    -2.352363  -3.723901  2.029777
H    -4.183781  -6.010165  4.630648
H    -4.911811  -5.098221  3.359593
H    -1.744674  -5.890563  4.707796
N    -0.613723  1.275726  5.515020
C    0.246734  1.294235  6.698389
H    -0.967486  2.169525  5.184891
H    -0.199727  1.945705  7.457266
H    1.242257  1.675540  6.437862
H    0.335662  0.278662  7.091135
Ca    -0.562512  -2.974758  4.154787
