36
Energy: -39735.6619961 eV PBE+vdW (tier 2 basis)
C    -2.665233  1.211261  -1.785204
C    -1.795359  0.384539  -0.897969
O    -0.639454  0.008544  -1.281195
H    -2.439263  2.280524  -1.636346
H    -3.731034  1.057889  -1.587530
H    -2.438093  0.972330  -2.829735
N    -2.210726  0.071356  0.349854
C    -2.767021  1.100357  1.250599
C    -1.764896  2.286811  1.316818
O    -0.491274  1.920077  1.193272
H    -1.584449  -0.580770  0.824450
H    -3.732211  1.435900  0.852060
C    -2.984585  0.442360  2.633715
C    -3.743790  1.263552  3.703724
C    -2.921164  1.885639  4.841403
N    -2.117403  3.035160  4.418472
C    -1.751211  4.069596  5.177276
N    -1.906585  4.055100  6.508349
N    -1.228808  5.151965  4.574313
H    -2.004713  0.126218  3.029360
H    -3.550109  -0.480162  2.442584
H    -4.443704  0.579629  4.201587
H    -4.377990  2.032212  3.242008
H    -2.271440  1.118011  5.293530
H    -3.626602  2.220100  5.616650
H    -1.902689  3.133720  3.417486
H    -2.181486  3.214485  6.998750
H    -1.747254  4.884588  7.066660
H    -0.764896  5.881497  5.100295
N    -2.069091  3.517504  1.531561
C    -3.430649  4.030320  1.481667
H    -1.169732  5.184845  3.561330
H    -3.441275  4.895061  0.804953
H    -3.736310  4.411130  2.467921
H    -4.203067  3.323211  1.141704
Ca    0.866744  1.088590  -0.110516
