36
Energy: -39735.1825699 eV PBE+vdW (tier 2 basis)
C    0.355844  0.397706  0.407902
C    0.021879  0.391560  1.862497
O    0.945681  0.302461  2.727950
H    -0.517871  0.501700  -0.243332
H    0.876921  -0.538750  0.163144
H    1.060263  1.215363  0.203677
N    -1.271812  0.478019  2.218564
C    -1.850613  0.383212  3.577963
C    -1.458745  1.616558  4.414629
O    -0.313600  1.681332  4.965422
H    -1.937488  0.536183  1.452682
H    -2.935237  0.414618  3.424196
C    -1.507834  -0.949380  4.276543
C    -1.841683  -1.008109  5.777328
C    -0.641966  -1.500715  6.609225
N    -0.813184  -1.461575  8.027973
C    -1.410270  -2.582071  8.683740
N    -0.732532  -3.769483  8.447871
N    -2.482461  -2.353992  9.336906
H    -0.437034  -1.175252  4.125930
H    -2.023225  -1.745555  3.724469
H    -2.685527  -1.684295  5.964921
H    -2.156253  -0.026229  6.163482
H    0.261524  -0.862904  6.325651
H    -0.369141  -2.523943  6.313744
H    -1.300950  -0.629892  8.362615
H    -1.119533  -4.583407  8.915760
H    0.280543  -3.724667  8.525656
H    -2.794513  -3.149265  9.900734
N    -2.320023  2.608763  4.569415
C    -3.684154  2.737842  4.038976
H    -1.973453  3.380992  5.140216
H    -4.335796  1.943132  4.421929
H    -4.084277  3.696928  4.378670
H    -3.686098  2.738489  2.942607
Ca    1.508887  0.578974  4.770136
