36
Energy: -39734.5629946 eV PBE+vdW (tier 2 basis)
C    0.240376  1.131335  0.085865
C    0.059463  0.524282  1.433299
O    1.068235  0.237606  2.160032
H    -0.674142  1.137917  -0.513372
H    1.010087  0.546453  -0.438374
H    0.638062  2.153781  0.168708
N    -1.176399  0.267603  1.917469
C    -2.264334  1.248161  1.896493
C    -1.806852  2.461824  2.740252
O    -0.773161  2.357916  3.498593
H    -1.178612  -0.324504  2.750333
H    -2.437846  1.574474  0.860704
C    -3.554604  0.600723  2.447702
C    -4.072759  -0.522665  1.548749
C    -5.381817  -1.158586  2.070970
N    -5.888286  -2.190394  1.183440
C    -6.287707  -1.873872  -0.125502
N    -7.178066  -0.802844  -0.190083
N    -5.783337  -2.556088  -1.090203
H    -4.322731  1.379233  2.552660
H    -3.356087  0.236823  3.471176
H    -3.314943  -1.313415  1.437510
H    -4.259879  -0.128345  0.537234
H    -6.144146  -0.377475  2.198116
H    -5.222741  -1.610007  3.060950
H    -5.315241  -3.032097  1.151523
H    -7.565600  -0.641105  -1.114545
H    -7.900666  -0.799659  0.526936
H    -6.240289  -2.369164  -1.987546
N    -2.476805  3.599762  2.707549
C    -3.648066  3.962988  1.904546
H    -2.130618  4.317143  3.346099
H    -3.516061  4.989133  1.544918
H    -4.558904  3.916336  2.514890
H    -3.754301  3.301824  1.040565
Ca    1.116332  1.446522  3.950733
