36
Energy: -39735.4646887 eV PBE+vdW (tier 2 basis)
C    -2.467561  2.070632  0.848167
C    -1.800455  1.423175  2.015550
O    -0.618118  1.801173  2.352962
H    -3.492855  1.723903  0.694389
H    -1.878388  1.903507  -0.063706
H    -2.478827  3.156228  1.020545
N    -2.448820  0.481572  2.693926
C    -1.965078  -0.091480  3.961819
C    -0.956218  -1.223915  3.672002
O    0.214870  -0.904478  3.272040
H    -3.335798  0.093064  2.241364
H    -1.347894  0.687832  4.435461
C    -3.101147  -0.420376  4.954766
C    -4.362126  -1.115768  4.403730
C    -5.433549  -0.087579  3.963406
N    -6.334214  -0.541267  2.902563
C    -5.999821  -0.308748  1.570970
N    -4.637791  -0.684383  1.269456
N    -6.698334  0.152675  0.612595
H    -3.400841  0.529877  5.419989
H    -2.653333  -0.999754  5.775367
H    -4.786694  -1.769022  5.176816
H    -4.124207  -1.779325  3.559304
H    -4.943457  0.856944  3.669379
H    -6.052039  0.161495  4.834357
H    -7.316117  -0.365238  3.093160
H    -4.533524  -0.534927  0.261777
H    -4.520781  -1.688140  1.435968
H    -7.620358  0.493473  0.899575
N    -1.308948  -2.481533  3.849969
C    -0.458775  -3.654233  3.639049
H    -2.254197  -2.649036  4.189434
H    -0.911331  -4.304392  2.880712
H    -0.367348  -4.211845  4.578850
H    0.528719  -3.330322  3.305020
Ca    1.232657  0.901314  2.730398
