36
Energy: -39736.4934028 eV PBE+vdW (tier 2 basis)
C    -0.310904  -3.355861  0.052041
C    -0.442202  -1.874320  0.155287
O    0.384805  -1.115732  -0.470952
H    0.614514  -3.680683  0.548763
H    -0.210432  -3.626246  -1.007086
H    -1.157313  -3.896476  0.484585
N    -1.395004  -1.299176  0.872619
C    -2.330164  -1.793549  1.879129
C    -3.182439  -0.529405  2.195938
O    -2.697637  0.595856  1.971175
H    -1.442044  -0.268456  0.867224
H    -2.978219  -2.570844  1.449886
C    -1.632525  -2.364155  3.158385
C    -0.258517  -1.780405  3.519224
C    -0.211655  -0.296002  3.957566
N    1.051936  0.335852  3.547791
C    1.229939  0.964208  2.377875
N    2.565684  1.091324  1.870063
N    0.328482  1.410175  1.537259
H    -1.499340  -3.445328  3.018056
H    -2.331936  -2.260629  4.000418
H    0.420012  -1.903406  2.662563
H    0.167007  -2.405657  4.315967
H    -0.293626  -0.199168  5.046291
H    -1.035920  0.285713  3.532134
H    1.864745  0.182211  4.138286
H    2.889374  2.062417  1.908608
H    3.256199  0.499599  2.335708
H    -0.635305  1.429558  1.889949
N    -4.388146  -0.745894  2.725882
C    -5.308198  0.315564  3.133411
H    -4.707507  -1.705634  2.821349
H    -4.834950  1.280896  2.938131
H    -5.537444  0.226732  4.202029
H    -6.239323  0.244446  2.558934
Ca    1.357294  0.780550  -0.400075
