36
Energy: -39736.997669 eV PBE+vdW (tier 2 basis)
C    0.029342  -0.032273  1.154742
C    -0.575967  0.071638  2.513494
O    -0.339429  1.052069  3.270219
H    -0.125036  0.893180  0.586909
H    -0.315011  -0.897341  0.580793
H    1.117148  -0.131489  1.298476
N    -1.396529  -0.919398  2.972412
C    -2.501402  -1.491781  2.201478
C    -3.235743  -0.350372  1.456504
O    -3.208280  0.827355  1.921186
H    -1.541900  -0.882124  3.978576
H    -2.117383  -2.221805  1.473240
C    -3.492599  -2.220908  3.146082
C    -4.380261  -1.341016  4.050978
C    -3.730129  -0.817511  5.346159
N    -4.597074  0.077112  6.092719
C    -4.398133  1.408838  6.257786
N    -5.140861  2.007466  7.214792
N    -3.520132  2.083002  5.509056
H    -2.914372  -2.946123  3.739771
H    -4.149653  -2.827173  2.508782
H    -5.247302  -1.949948  4.343828
H    -4.797629  -0.493808  3.487235
H    -2.804008  -0.250880  5.174955
H    -3.450164  -1.663192  5.992852
H    -5.353255  -0.346899  6.619553
H    -5.663129  1.479981  7.903952
H    -5.174138  3.015468  7.294215
H    -3.389014  3.001715  5.944655
N    -3.908997  -0.676631  0.364529
C    -4.729952  0.231351  -0.437718
H    -3.851022  -1.643326  0.051045
H    -5.761736  -0.137841  -0.473234
H    -4.333272  0.282976  -1.458629
H    -4.710629  1.224979  0.014527
Ca    -2.331732  2.081063  3.545478
