36
Energy: -39735.7171956 eV PBE+vdW (tier 2 basis)
C    -2.174260  -0.322753  0.921995
C    -1.545510  0.054558  2.223342
O    -0.856507  -0.817284  2.863942
H    -1.406197  -0.730344  0.251632
H    -2.671525  0.518468  0.429738
H    -2.899658  -1.129958  1.097644
N    -1.724393  1.290639  2.672350
C    -1.316301  1.883352  3.965412
C    0.211057  1.979180  4.078943
O    0.919443  0.949935  4.349721
H    -2.374645  1.911899  2.126114
H    -1.707890  2.906566  3.906707
C    -1.917458  1.235281  5.232679
C    -3.444117  1.044018  5.300579
C    -4.362762  2.293129  5.249053
N    -4.842567  2.633653  3.904920
C    -4.069324  3.294697  2.973744
N    -3.373824  4.400979  3.456189
N    -3.886697  2.946868  1.730779
H    -1.590471  1.859907  6.079188
H    -1.460622  0.246920  5.405703
H    -3.633838  0.533561  6.255935
H    -3.770949  0.335682  4.523219
H    -3.870985  3.166091  5.696789
H    -5.248612  2.097210  5.865449
H    -5.413711  1.902125  3.489249
H    -3.078663  5.000080  2.688061
H    -3.868974  4.930401  4.170451
H    -4.457151  2.128266  1.495693
N    0.809368  3.147001  3.919890
C    0.215707  4.445006  3.574513
H    1.823131  3.121439  4.034984
H    -0.205474  4.423856  2.562186
H    1.011947  5.193339  3.606282
H    -0.559958  4.729995  4.293515
Ca    0.792664  -1.151832  4.095817
