36
Energy: -39735.6546443 eV PBE+vdW (tier 2 basis)
C    0.533643  1.440102  0.332445
C    0.261411  0.794634  1.644197
O    1.197763  0.182074  2.284307
H    -0.395512  1.568019  -0.241683
H    1.256600  0.841193  -0.232659
H    0.996112  2.423927  0.508099
N    -0.961830  0.867410  2.157947
C    -1.286091  0.343646  3.482142
C    -1.169756  -1.199357  3.502418
O    -0.166934  -1.692251  4.135066
H    -1.724375  1.432993  1.665977
H    -0.461691  0.630448  4.153636
C    -2.538747  0.980084  4.146744
C    -3.867696  1.249603  3.410058
C    -3.908263  2.482972  2.498138
N    -3.129432  2.318671  1.260061
C    -3.587242  1.531645  0.152132
N    -4.905209  1.146106  0.186583
N    -2.674222  1.197075  -0.688500
H    -2.187410  1.938806  4.557724
H    -2.752123  0.356454  5.027718
H    -4.612836  1.422021  4.200446
H    -4.233193  0.374394  2.862427
H    -3.479369  3.347829  3.022863
H    -4.959811  2.750630  2.304834
H    -2.740275  3.192658  0.909783
H    -5.588264  1.765494  0.612057
H    -5.255562  0.657532  -0.631173
H    -3.047767  0.733851  -1.520992
N    -1.993463  -2.032109  2.890102
C    -3.120952  -1.776680  1.993582
H    -1.767183  -3.014447  3.051270
H    -2.991718  -0.827667  1.468656
H    -4.069231  -1.788122  2.543561
H    -3.141873  -2.579184  1.248590
Ca    1.869968  -1.179866  3.720170
