36
Energy: -39736.701141 eV PBE+vdW (tier 2 basis)
C    -0.758434  -1.010135  -0.162658
C    -0.690188  -0.590284  1.275479
O    0.514201  -0.350668  1.746372
H    -1.788150  -1.055214  -0.529358
H    -0.286704  -1.994274  -0.290855
H    -0.192293  -0.302339  -0.781727
N    -1.789790  -0.474520  1.974238
C    -1.656694  0.045391  3.340881
C    -0.972228  -0.968281  4.270284
O    0.226827  -0.738433  4.658455
H    -3.989775  -1.899178  -0.066272
H    -0.952156  0.898237  3.335122
C    -2.985487  0.602667  3.891412
C    -3.563598  1.739052  3.017425
C    -4.745303  1.342623  2.128364
N    -4.390252  0.239901  1.231992
C    -5.227106  -0.317796  0.364195
N    -6.443145  0.201472  0.132830
N    -4.862970  -1.441060  -0.287718
H    -2.787693  0.985106  4.902212
H    -3.732298  -0.192716  4.010468
H    -2.772833  2.182732  2.393793
H    -3.922852  2.548216  3.665720
H    -5.047394  2.226498  1.543343
H    -5.601838  1.046240  2.756697
H    -3.418174  -0.151961  1.350768
H    -7.113410  -0.265419  -0.464799
H    -6.712009  1.098360  0.514879
H    -5.380708  -1.782082  -1.087218
N    -1.556939  -2.090402  4.667623
C    -2.860937  -2.640091  4.299999
H    -0.989576  -2.649951  5.304152
H    -2.769769  -3.730333  4.248935
H    -3.159312  -2.269523  3.316061
H    -3.621556  -2.388317  5.049898
Ca    1.816644  -0.195401  3.320218
