36
Energy: -39735.854562 eV PBE+vdW (tier 2 basis)
C    2.159829  0.112892  0.275942
C    1.302357  0.590216  1.400383
O    1.831565  1.273647  2.353099
H    2.580209  0.977922  -0.255871
H    1.607304  -0.511390  -0.433570
H    3.009005  -0.448223  0.688941
N    0.013347  0.292261  1.370916
C    -0.993007  0.479230  2.435409
C    -1.292227  1.962814  2.699359
O    -0.501300  2.695544  3.378337
H    -0.299204  -0.453201  0.662860
H    -1.900243  0.053911  1.986556
C    -0.707036  -0.309140  3.751160
C    -1.863852  -1.231208  4.203842
C    -1.873876  -2.667321  3.633585
N    -1.982974  -2.765226  2.177255
C    -0.938110  -2.538448  1.312861
N    0.317018  -2.891350  1.767883
N    -1.011118  -1.938310  0.150100
H    -0.504916  0.407918  4.561199
H    0.207834  -0.899293  3.607511
H    -2.830991  -0.744114  3.995300
H    -1.822403  -1.331458  5.298232
H    -2.723658  -3.209543  4.067833
H    -0.978017  -3.205058  3.969782
H    -2.896297  -2.541596  1.794115
H    0.984711  -2.980289  1.007240
H    0.363040  -3.672677  2.414804
H    -1.977082  -1.727487  -0.114693
N    -2.424778  2.449294  2.220381
C    -2.894364  3.826002  2.383935
H    -3.006993  1.823077  1.670204
H    -3.982763  3.816108  2.499621
H    -2.633293  4.424220  1.501255
H    -2.434790  4.263860  3.273469
Ca    1.585215  2.718672  3.815007
