36
Energy: -39736.7146009 eV PBE+vdW (tier 2 basis)
C    -3.185448  -2.027580  -1.676476
C    -1.997440  -1.415287  -0.990683
O    -0.818820  -1.664074  -1.453656
H    -3.469416  -1.418891  -2.547929
H    -4.062572  -2.123140  -1.026905
H    -2.901407  -3.013094  -2.061589
N    -2.037131  -0.573960  0.053067
C    -3.202182  0.239822  0.366095
C    -2.859800  1.682805  -0.092401
O    -1.713357  1.933376  -0.569451
H    -1.657445  -2.069057  1.792776
H    -4.095969  -0.069991  -0.206295
C    -3.519650  0.144703  1.872785
C    -4.093528  -1.236361  2.218793
C    -3.941504  -1.671999  3.675071
N    -2.562179  -1.693842  4.229547
C    -1.522277  -2.444979  3.824043
N    -0.673465  -2.935271  4.740223
N    -1.297984  -2.685146  2.523794
H    -4.222522  0.929447  2.186043
H    -2.583637  0.333235  2.422170
H    -3.666733  -2.005628  1.559896
H    -5.172857  -1.255411  2.006099
H    -4.389933  -2.667733  3.806637
H    -4.487871  -0.982886  4.330730
H    -2.500283  -1.383911  5.194906
H    0.249211  -3.267819  4.484027
H    -0.950708  -3.046514  5.709014
H    -0.660970  -3.422449  2.245672
N    -3.795426  2.618370  0.013195
C    -3.641542  4.016738  -0.389455
H    -4.704206  2.338632  0.371999
H    -3.883909  4.673331  0.454063
H    -4.314885  4.242001  -1.225462
H    -2.607771  4.184320  -0.699071
Ca    -0.166456  0.368207  -0.908523
