36
Energy: -39736.4593249 eV PBE+vdW (tier 2 basis)
C    -1.185404  0.637012  -0.662216
C    -1.135899  0.857001  0.820830
O    -0.310181  0.080487  1.490505
H    -1.902805  1.301996  -1.150414
H    -1.448497  -0.408637  -0.873102
H    -0.190789  0.804557  -1.097521
N    -1.903332  1.771195  1.346163
C    -1.979390  1.992709  2.800269
C    -0.638337  2.475368  3.371622
O    0.231715  1.672790  3.848355
H    -3.393865  2.503221  0.796312
H    -2.661822  2.847300  2.905617
C    -2.600026  0.847562  3.644182
C    -3.529744  -0.157888  2.937689
C    -4.578587  0.337601  1.926694
N    -5.314993  1.553043  2.296054
C    -5.346114  2.678732  1.555724
N    -6.394734  3.511912  1.689388
N    -4.341341  2.978121  0.730509
H    -3.139399  1.324799  4.474669
H    -1.809646  0.258155  4.132909
H    -4.037572  -0.722082  3.733270
H    -2.930698  -0.899860  2.389679
H    -5.313720  -0.464955  1.770956
H    -4.116070  0.529245  0.955234
H    -6.035217  1.462968  3.006320
H    -6.373790  4.445325  1.297648
H    -7.282257  3.188434  2.055104
H    -4.477353  3.699028  0.031681
N    -0.360069  3.773078  3.348607
C    -1.183386  4.866982  2.829970
H    0.544924  4.021873  3.746185
H    -1.613170  4.599228  1.859239
H    -0.537389  5.738640  2.690167
H    -1.977977  5.136860  3.537831
Ca    0.939640  -0.191294  3.072128
