36
Energy: -39734.4037896 eV PBE+vdW (tier 2 basis)
C    0.227548  0.974325  0.529863
C    -0.078267  0.204758  1.769402
O    0.673426  0.299952  2.795105
H    -0.049346  2.032909  0.654265
H    -0.272261  0.577849  -0.358870
H    1.315131  0.954350  0.379929
N    -1.162145  -0.600837  1.832888
C    -2.487185  -0.185965  1.376002
C    -2.954495  0.961321  2.328731
O    -2.216281  1.341463  3.300028
H    -1.176902  -1.215537  2.649134
H    -2.393360  0.245423  0.367200
C    -3.470137  -1.371990  1.330811
C    -3.213336  -2.407279  0.226115
C    -2.021403  -3.363794  0.445067
N    -2.026839  -4.503352  -0.460928
C    -3.105392  -5.406251  -0.486726
N    -3.596123  -5.724363  0.778680
N    -3.657916  -5.906623  -1.530011
H    -4.483216  -0.968122  1.191376
H    -3.487582  -1.859876  2.321261
H    -3.119236  -1.904019  -0.749364
H    -4.118696  -3.027922  0.165015
H    -2.038551  -3.728618  1.484349
H    -1.059088  -2.850630  0.307523
H    -1.668047  -4.305852  -1.390367
H    -4.321833  -6.434766  0.709761
H    -2.885414  -5.981907  1.459989
H    -3.295499  -5.527227  -2.408620
N    -4.117421  1.534552  2.096285
C    -4.691421  2.623024  2.896276
H    -4.666002  1.192606  1.310585
H    -4.849591  2.292744  3.929572
H    -5.652628  2.901438  2.457229
H    -4.025914  3.494049  2.886601
Ca    -0.352053  1.326484  4.397088
