36
Energy: -39736.3532983 eV PBE+vdW (tier 2 basis)
C    0.603905  -0.036218  -0.058588
C    0.049730  -0.716740  1.145844
O    0.532158  -1.840452  1.528351
H    1.678493  0.128779  0.104199
H    0.127305  0.923310  -0.275875
H    0.519094  -0.695881  -0.932410
N    -0.929852  -0.188797  1.871253
C    -1.870474  0.912511  1.667503
C    -2.702924  0.897738  2.974638
O    -2.804816  -0.173116  3.613901
H    -1.193740  -0.706532  2.717548
H    -1.327021  1.862847  1.581984
C    -2.804010  0.750268  0.418700
C    -3.085042  -0.677411  -0.069910
C    -3.916697  -1.611633  0.850665
N    -3.393831  -2.985706  0.805914
C    -2.507256  -3.544247  1.642562
N    -2.240285  -2.966167  2.918177
N    -1.750938  -4.600830  1.414090
H    -2.349328  1.297092  -0.417868
H    -3.747976  1.271768  0.631161
H    -3.592966  -0.590227  -1.039957
H    -2.130856  -1.176311  -0.292217
H    -4.964882  -1.644563  0.530517
H    -3.925867  -1.274245  1.891423
H    -3.477233  -3.447821  -0.098086
H    -2.612036  -2.015717  3.089720
H    -2.603368  -3.582571  3.651364
H    -1.960932  -5.108803  0.552603
N    -3.311729  2.022165  3.355223
C    -3.195290  3.359961  2.768600
H    -3.868246  1.926755  4.202787
H    -3.850772  4.031347  3.329833
H    -3.518972  3.376802  1.720877
H    -2.170129  3.745022  2.846008
Ca    0.117922  -3.748225  2.424975
