36
Energy: -39736.7116514 eV PBE+vdW (tier 2 basis)
C    -2.295801  -0.410952  1.165472
C    -1.406014  -0.331427  2.373140
O    -0.115312  -0.398786  2.118818
H    -2.060996  0.414684  0.480107
H    -3.355563  -0.358971  1.427147
H    -2.095956  -1.342221  0.618389
N    -1.948663  -0.208157  3.551609
C    -1.169399  -0.195325  4.799517
C    -0.146464  0.944260  4.920811
O    1.024868  0.892768  4.423758
H    -3.592817  -0.880821  3.821514
H    -1.913993  0.029896  5.579716
C    -0.551737  -1.568449  5.161799
C    -1.517551  -2.737566  4.919100
C    -2.817033  -2.659553  5.748843
N    -3.989926  -3.215005  5.074930
C    -4.861856  -2.503566  4.339685
N    -6.050148  -3.057867  4.036209
N    -4.571700  -1.265874  3.930437
H    -0.226367  -1.539210  6.213010
H    0.355102  -1.752330  4.567471
H    -0.997178  -3.679576  5.136887
H    -1.779182  -2.771262  3.853291
H    -3.067777  -1.623847  6.011242
H    -2.704774  -3.195609  6.699213
H    -4.175140  -4.206767  5.180006
H    -6.646318  -2.661380  3.320868
H    -6.411166  -3.851629  4.551102
H    -5.325122  -0.696613  3.562145
N    -0.531986  2.018583  5.596858
C    0.289446  3.207144  5.819916
H    -1.479353  2.023882  5.963224
H    -0.047195  3.700458  6.736296
H    0.193958  3.909047  4.980899
H    1.337332  2.913095  5.929682
Ca    1.791242  0.095361  2.597684
