36
Energy: -39736.3481796 eV PBE+vdW (tier 2 basis)
C    0.018686  0.363902  -0.051715
C    -0.142965  0.324480  1.435058
O    0.866251  0.513038  2.187101
H    0.388483  1.359249  -0.335092
H    -0.908822  0.160344  -0.596634
H    0.784745  -0.359710  -0.358480
N    -1.361132  0.104311  1.937332
C    -1.773652  0.149695  3.358877
C    -1.373925  -1.167928  4.067275
O    -0.087970  -1.230886  4.375208
H    -2.100546  -0.075317  1.262811
H    -1.180289  0.952173  3.825803
C    -3.260232  0.526876  3.406654
C    -3.734022  0.925666  4.810389
C    -5.255347  1.110867  4.976741
N    -6.113506  0.054272  4.399078
C    -5.814427  -1.247722  4.316966
N    -6.371877  -2.013161  3.365619
N    -4.931594  -1.831796  5.154169
H    -3.834960  -0.326637  3.019372
H    -3.426900  1.366809  2.714634
H    -3.292592  1.895011  5.086512
H    -3.347007  0.209907  5.546296
H    -5.570928  2.034317  4.474631
H    -5.490870  1.242487  6.043187
H    -6.969093  0.369736  3.951246
H    -6.399010  -3.018163  3.497813
H    -6.918761  -1.620239  2.608622
H    -4.743493  -1.316836  6.008072
N    -2.235142  -2.098723  4.282016
C    -1.739025  -3.332972  4.896168
H    -4.047270  -2.185020  4.715741
H    -2.586400  -3.950266  5.215175
H    -1.093812  -3.139463  5.765073
H    -1.154802  -3.919839  4.171421
Ca    1.732507  -0.447977  3.894276
