36
Energy: -39736.7133303 eV PBE+vdW (tier 2 basis)
C    -0.854443  0.006935  -0.376258
C    -0.611336  0.065043  1.098780
O    0.519078  0.453763  1.539112
H    -0.741213  1.020086  -0.786917
H    -1.846291  -0.374583  -0.639469
H    -0.087899  -0.617511  -0.852589
N    -1.603309  -0.282133  1.920997
C    -1.649349  -0.168732  3.399846
C    -0.890349  -1.360130  4.028246
O    0.426458  -1.254576  3.952765
H    -2.459379  -0.609470  1.479502
H    -1.087779  0.743805  3.658439
C    -3.126742  0.015714  3.783311
C    -3.439692  0.594086  5.173849
C    -3.140239  -0.309279  6.381053
N    -3.634315  -1.670464  6.201990
C    -4.749693  -2.197515  6.695925
N    -5.653148  -1.463647  7.368191
N    -4.989270  -3.511094  6.523738
H    -3.652514  -0.941052  3.642746
H    -3.557434  0.717025  3.053346
H    -4.510374  0.846612  5.173274
H    -2.908368  1.546816  5.320260
H    -3.546058  0.130585  7.301576
H    -2.057486  -0.394693  6.545193
H    -3.045872  -2.191032  5.505846
H    -6.371472  -1.904574  7.929046
H    -5.561614  -0.460373  7.446538
H    -5.897257  -3.913727  6.716671
N    -1.540535  -2.348146  4.534132
C    -0.784569  -3.479584  5.062984
H    -4.279380  -4.120767  6.140423
H    -1.295931  -3.879307  5.949279
H    0.247832  -3.227290  5.338013
H    -0.756593  -4.285832  4.314942
Ca    1.924821  -0.273179  2.972474
