36
Energy: -39734.7568235 eV PBE+vdW (tier 2 basis)
C    -0.925372  -1.200482  0.885881
C    -0.682139  -0.331752  2.070474
O    0.370874  0.387773  2.144941
H    -0.959092  -0.569897  -0.014265
H    -1.855463  -1.773280  0.956720
H    -0.080677  -1.890999  0.757925
N    -1.580704  -0.299051  3.060704
C    -1.497556  0.648600  4.182587
C    -0.310773  0.301506  5.115379
O    0.720901  1.062400  5.019376
H    -2.448173  -0.824362  2.945354
H    -1.155295  1.597421  3.742152
C    -2.867773  1.012137  4.802154
C    -3.862937  -0.020102  5.347008
C    -4.415283  -1.054274  4.339023
N    -5.728691  -1.507201  4.715269
C    -6.849675  -0.685152  4.447733
N    -8.025804  -1.270017  4.854357
N    -6.845914  0.473315  3.886744
H    -3.377348  1.591535  4.015105
H    -2.648891  1.741975  5.596005
H    -3.493213  -0.527164  6.245437
H    -4.722048  0.574314  5.688611
H    -3.773247  -1.949519  4.288310
H    -4.426461  -0.605706  3.316086
H    -5.906050  -2.501631  4.608655
H    -8.841778  -0.679299  4.731680
H    -8.019345  -1.810243  5.712600
H    -5.946725  0.715262  3.465799
N    -0.266097  -0.707528  5.964603
C    -1.190845  -1.814521  6.204267
H    0.595388  -0.731927  6.514007
H    -1.930877  -1.882308  5.406843
H    -1.695638  -1.688391  7.169273
H    -0.610518  -2.744330  6.229581
Ca    1.765152  1.563230  3.229891
