36
Energy: -39735.7595817 eV PBE+vdW (tier 2 basis)
C    0.282188  1.273184  0.115214
C    -0.218434  0.421456  1.234519
O    0.580623  -0.329702  1.886351
H    0.661999  2.229931  0.509636
H    -0.491887  1.491635  -0.627403
H    1.125784  0.763472  -0.363518
N    -1.519576  0.469358  1.594128
C    -2.205825  1.754237  1.789302
C    -1.533040  2.517605  2.969518
O    -0.758614  1.775440  3.756953
H    -1.756416  -0.229270  2.299141
H    -2.081554  2.345816  0.872726
C    -3.719881  1.561014  2.012065
C    -4.179677  0.837912  3.290090
C    -4.034858  1.557545  4.639155
N    -4.827477  2.795390  4.724568
C    -4.485064  3.899657  5.424334
N    -5.462618  4.656677  5.949907
N    -3.203936  4.242063  5.581647
H    -4.105775  1.007837  1.144412
H    -4.190374  2.551893  1.964907
H    -3.681380  -0.139146  3.401350
H    -5.239223  0.574424  3.147979
H    -2.994512  1.805326  4.864749
H    -4.377227  0.871712  5.430463
H    -5.822754  2.690650  4.544329
H    -5.283837  5.605588  6.256836
H    -6.396437  4.293308  6.099447
H    -2.982186  5.004552  6.212190
N    -1.747209  3.753894  3.236131
C    -2.466219  4.637264  2.326208
H    -2.489941  4.012539  4.844484
H    -2.020657  5.636667  2.397173
H    -3.524039  4.737349  2.616167
H    -2.437299  4.332829  1.269070
Ca    0.823732  0.466833  3.905664
