36
Energy: -39735.0758316 eV PBE+vdW (tier 2 basis)
C    -0.269903  1.406012  -0.154907
C    -0.097228  0.801644  1.195668
O    1.039242  0.796311  1.779810
H    -0.650998  2.436882  -0.070101
H    -0.988914  0.839968  -0.762103
H    0.704503  1.450616  -0.651919
N    -1.155558  0.266451  1.842095
C    -2.446604  0.948630  1.925329
C    -2.229520  2.232526  2.764510
O    -1.108788  2.407844  3.380903
H    -0.906418  -0.269121  2.675691
H    -2.775845  1.268837  0.917792
C    -3.513197  0.021866  2.543230
C    -3.669180  -1.364687  1.884458
C    -3.735828  -1.422520  0.343450
N    -4.500974  -0.324361  -0.246117
C    -3.940194  0.627272  -1.076995
N    -3.161278  0.111017  -2.098411
N    -4.113556  1.885778  -0.796212
H    -4.468097  0.559601  2.506431
H    -3.298945  -0.122882  3.614556
H    -4.587425  -1.797443  2.307250
H    -2.861254  -2.038682  2.205814
H    -4.157622  -2.398113  0.059910
H    -2.725539  -1.385606  -0.085327
H    -5.258335  0.056847  0.311210
H    -2.859541  0.777252  -2.802390
H    -3.465603  -0.773564  -2.498287
H    -3.862989  2.495664  -1.579731
N    -3.166147  3.151819  2.856415
C    -4.473879  3.217658  2.187906
H    -2.935969  3.925445  3.481626
H    -4.699099  4.274299  2.009849
H    -5.252484  2.803813  2.841613
H    -4.447084  2.699118  1.214780
Ca    0.980878  2.039524  3.543876
