36
Energy: -39735.509572 eV PBE+vdW (tier 2 basis)
C    -1.072266  -0.786292  -0.406945
C    -0.649909  -0.581360  1.001819
O    0.558677  -0.794621  1.369051
H    -0.280713  -0.491468  -1.104152
H    -2.026544  -0.298922  -0.644088
H    -1.220250  -1.872332  -0.535105
N    -1.540057  -0.176798  1.932551
C    -2.454673  0.947707  1.732676
C    -1.600640  2.213591  1.574849
O    -0.335483  2.183649  1.831329
H    -1.208849  -0.285344  2.894184
H    -3.056942  0.808258  0.790999
C    -3.426680  1.043680  2.924211
C    -4.396043  -0.137875  3.068941
C    -5.461170  -0.290919  1.964855
N    -5.092025  -1.140366  0.835283
C    -4.830729  -0.668612  -0.425264
N    -5.049221  -1.575064  -1.434442
N    -4.324305  0.530064  -0.578729
H    -4.005424  1.971841  2.830582
H    -2.841948  1.152842  3.854167
H    -4.920216  0.009691  4.024110
H    -3.847183  -1.085821  3.174222
H    -5.754175  0.690804  1.568231
H    -6.359148  -0.730144  2.419311
H    -5.371010  -2.112441  0.900043
H    -5.804580  -2.246670  -1.341952
H    -4.883604  -1.266951  -2.385082
H    -4.315197  0.802619  -1.563693
N    -2.143992  3.342532  1.163126
C    -3.525265  3.588375  0.732427
H    -1.509720  4.141574  1.145187
H    -4.006959  2.650601  0.430029
H    -3.495164  4.262518  -0.130422
H    -4.092549  4.075674  1.535855
Ca    1.453986  1.050661  2.019175
