36
Energy: -39736.7401185 eV PBE+vdW (tier 2 basis)
C    -0.451244  1.135136  -0.053939
C    -1.221413  0.106792  0.706905
O    -0.751795  -1.043030  0.912740
H    0.241380  1.659326  0.623445
H    -1.091620  1.875596  -0.544216
H    0.166142  0.622872  -0.800605
N    -2.456784  0.416236  1.205045
C    -2.717804  1.668542  1.904633
C    -1.713491  1.766704  3.092537
O    -1.098514  0.734986  3.484715
H    -2.956444  -0.383306  1.597125
H    -2.517393  2.501619  1.214999
C    -4.195174  1.789555  2.362521
C    -4.641972  1.048010  3.644293
C    -5.270988  -0.352027  3.512048
N    -4.423979  -1.387916  2.895502
C    -3.353083  -2.011002  3.448748
N    -2.871290  -1.569621  4.692983
N    -2.563692  -2.886474  2.874924
H    -4.828663  1.519442  1.504500
H    -4.381139  2.859604  2.524388
H    -5.423455  1.657386  4.120303
H    -3.818629  1.042877  4.376786
H    -6.170679  -0.292212  2.887685
H    -5.614189  -0.694424  4.500444
H    -4.756788  -1.788596  2.022574
H    -2.703934  -2.353984  5.324606
H    -3.396734  -0.834808  5.160212
H    -2.922025  -3.300194  2.011530
N    -1.550708  2.958966  3.650853
C    -0.669148  3.260537  4.779984
H    -2.063445  3.740443  3.248724
H    -1.245933  3.734979  5.582380
H    0.125908  3.944835  4.459793
H    -0.226074  2.331841  5.145412
Ca    -0.697304  -1.480057  3.119448
