36
Energy: -39735.3089468 eV PBE+vdW (tier 2 basis)
C    -0.749888  0.908822  0.103288
C    -0.657880  0.628202  1.563251
O    0.400326  0.924559  2.213324
H    -0.677148  1.996124  -0.046776
H    -1.680886  0.550326  -0.346992
H    0.106213  0.456721  -0.414294
N    -1.698422  0.074941  2.192592
C    -1.826029  -0.052759  3.656808
C    -0.902521  -1.171748  4.188587
O    0.260408  -0.821980  4.604356
H    -2.547151  -0.076658  1.650388
H    -1.390256  0.861883  4.090397
C    -3.302097  -0.059430  4.054695
C    -3.535919  -0.038480  5.571425
C    -4.961006  0.439561  5.930796
N    -5.258669  1.764568  5.393710
C    -5.830018  1.928084  4.122684
N    -7.065833  1.330881  4.000232
N    -5.153863  2.557188  3.214829
H    -3.844125  -0.893557  3.588134
H    -3.719765  0.867110  3.617184
H    -2.817126  0.653714  6.043852
H    -3.354972  -1.024383  6.031014
H    -5.064365  0.446502  7.024979
H    -5.710717  -0.262846  5.543587
H    -4.506960  2.439594  5.516055
H    -7.559044  1.467139  3.125236
H    -7.663618  1.338266  4.821237
H    -5.735382  2.803360  2.408089
N    -1.232981  -2.449046  4.232589
C    -2.447470  -3.135384  3.779064
H    -0.513874  -3.042531  4.648829
H    -2.198973  -4.192143  3.644136
H    -2.788160  -2.738783  2.818775
H    -3.246641  -3.055979  4.525904
Ca    1.666569  0.595289  3.868580
