36
Energy: -39737.2472848 eV PBE+vdW (tier 2 basis)
C    0.277330  -0.653324  -0.408465
C    -0.302782  -0.026163  0.814426
O    0.181078  1.031484  1.305031
H    0.261849  0.080850  -1.225394
H    -0.251481  -1.557956  -0.725715
H    1.331622  -0.897851  -0.221038
N    -1.375096  -0.608187  1.400063
C    -2.017632  0.029849  2.543444
C    -1.234889  -0.212113  3.854960
O    -0.560102  0.760208  4.311134
H    -1.784485  -1.431537  0.967814
H    -1.858060  1.100511  2.359706
C    -3.541101  -0.098008  2.650942
C    -4.062433  1.040082  3.550954
C    -3.943266  2.433093  2.891080
N    -3.645057  3.511013  3.830908
C    -2.620699  4.395233  3.718510
N    -2.826299  5.613200  4.269879
N    -1.467784  4.074638  3.117251
H    -3.857748  -1.070753  3.044874
H    -3.968982  -0.011877  1.640298
H    -3.510129  1.046186  4.503119
H    -5.108868  0.839260  3.811644
H    -4.878234  2.673219  2.363839
H    -3.153862  2.466177  2.129768
H    -4.402076  3.788498  4.448311
H    -2.053028  6.241126  4.448577
H    -3.753745  5.953146  4.495706
H    -1.009753  4.954187  2.854037
N    -1.238868  -1.375659  4.491095
C    -1.909610  -2.631227  4.155566
H    -0.680714  -1.376541  5.345892
H    -1.237579  -3.460562  4.401027
H    -2.136852  -2.685928  3.088507
H    -2.835405  -2.747071  4.733723
Ca    0.148914  2.431413  3.045155
