36
Energy: -39735.9227145 eV PBE+vdW (tier 2 basis)
C    -1.046464  0.772659  1.549972
C    -1.125680  0.043295  2.733990
O    -0.159815  0.144195  3.611790
H    -1.730377  0.663866  0.715104
H    -0.376990  1.635585  1.538326
H    -2.695014  2.242668  2.171280
N    -2.082126  -0.939613  3.029383
C    -2.536135  -1.962520  2.091283
C    -1.345276  -2.785677  1.520312
O    -0.159169  -2.342290  1.552067
H    -1.852223  -1.330640  3.942079
H    -3.111314  -2.668260  2.711507
C    -3.510611  -1.471964  0.993776
C    -4.856559  -0.976453  1.549612
C    -4.904628  0.433218  2.146614
N    -4.937344  1.480855  1.106346
C    -4.459283  2.732071  1.235067
N    -5.056407  3.737128  0.576887
N    -3.386899  2.976776  1.996960
H    -3.714342  -2.315443  0.321599
H    -3.037438  -0.712306  0.359412
H    -5.201802  -1.666443  2.334435
H    -5.614784  -1.051534  0.754594
H    -4.049918  0.608683  2.805651
H    -5.813800  0.532249  2.759066
H    -5.658395  1.365957  0.398035
H    -6.010004  3.659293  0.243185
H    -4.592507  4.627982  0.442163
H    -3.130361  3.928925  2.228622
N    -1.564496  -4.001038  1.023602
C    -2.805352  -4.769816  0.939484
H    -0.725338  -4.458300  0.667601
H    -2.565501  -5.828751  1.080639
H    -3.282844  -4.648132  -0.041603
H    -3.507488  -4.474457  1.725128
Ca    1.125236  -0.641279  2.090531
