36
Energy: -39736.5287673 eV PBE+vdW (tier 2 basis)
C    -0.301144  1.110594  0.471415
C    -0.795485  0.419105  1.695302
O    -0.284468  0.626238  2.829404
H    -0.144634  2.178510  0.659904
H    -0.937624  0.960661  -0.405961
H    0.687703  0.681002  0.241587
N    -1.809924  -0.492281  1.603400
C    -3.085333  -0.255787  0.929489
C    -3.532528  1.198123  1.170746
O    -3.111593  1.835837  2.180027
H    -1.882764  -1.072177  2.438422
H    -2.986965  -0.423294  -0.152211
C    -4.128607  -1.278578  1.466645
C    -4.225455  -1.473153  2.999670
C    -5.439946  -0.908524  3.737912
N    -5.586933  0.563355  3.817654
C    -5.126548  1.271947  4.899687
N    -6.002941  2.121910  5.479021
N    -3.863631  1.138437  5.304654
H    -3.866013  -2.239170  1.004816
H    -5.112152  -1.013260  1.056608
H    -3.324929  -1.132370  3.535699
H    -4.249094  -2.555017  3.193464
H    -5.429120  -1.316837  4.758338
H    -6.357674  -1.278827  3.262176
H    -6.479683  0.897360  3.467453
H    -5.692620  2.802865  6.162618
H    -7.005216  1.993911  5.392550
H    -3.789745  1.439200  6.282290
N    -4.361489  1.772679  0.307072
C    -4.894123  1.222486  -0.944726
H    -4.621028  2.729293  0.542730
H    -4.086450  0.891920  -1.609196
H    -5.446142  2.017161  -1.453470
H    -5.582329  0.388859  -0.761132
Ca    -1.960259  1.561327  4.043319
