36
Energy: -39737.5592877 eV PBE+vdW (tier 2 basis)
C    -0.703991  0.356636  0.300522
C    -0.602736  -0.059505  1.735553
O    0.425410  -0.655675  2.155626
H    -0.619151  -0.537679  -0.331764
H    0.147664  1.003885  0.053297
H    -1.634519  0.879021  0.055763
N    -1.650815  0.225811  2.536897
C    -1.846827  -0.141930  3.955244
C    -0.868538  0.646114  4.853356
O    0.368268  0.406962  4.849738
H    -2.422292  0.716597  2.095095
H    -2.862044  0.201664  4.194961
C    -1.795110  -1.673711  4.154252
C    -1.704503  -2.148085  5.608706
C    -1.335739  -3.641621  5.747646
N    -0.236003  -4.079891  4.871375
C    0.945402  -3.449245  4.740432
N    1.671283  -3.636146  3.540420
N    1.459732  -2.529736  5.520185
H    -0.944517  -2.062471  3.582234
H    -2.687247  -2.092798  3.667286
H    -2.664167  -2.013004  6.127092
H    -0.978976  -1.534643  6.160316
H    -2.192886  -4.268915  5.475462
H    -1.104453  -3.869849  6.798433
H    -0.400151  -4.908771  4.309392
H    2.614979  -3.991477  3.703048
H    1.205487  -4.175746  2.811917
H    1.039297  -2.482216  6.448498
N    -1.401711  1.583547  5.631314
C    -0.646480  2.442748  6.542877
H    -2.404457  1.737167  5.574407
H    0.336849  2.000742  6.720284
H    -1.190053  2.528607  7.489693
H    -0.522888  3.442952  6.108169
Ca    1.813884  -0.943337  3.853276
