36
Energy: -39735.9911624 eV PBE+vdW (tier 2 basis)
C    -1.151344  0.734153  0.918044
C    -1.344965  0.342285  2.239798
O    -0.498145  0.747502  3.152697
H    -1.748403  0.380247  0.084244
H    -0.593402  1.659717  0.762237
H    -4.621611  3.501306  -0.268656
N    -2.265724  -0.617802  2.689696
C    -2.532459  -1.887143  2.027546
C    -1.242870  -2.744357  1.891103
O    -0.096244  -2.209495  1.904166
H    -2.138463  -0.728105  3.694584
H    -3.204258  -2.425113  2.713548
C    -3.270627  -1.760971  0.671300
C    -4.479813  -0.820484  0.766996
C    -4.959513  -0.349996  -0.611967
N    -6.065757  0.611843  -0.549622
C    -5.942597  1.941833  -0.443586
N    -7.014444  2.725268  -0.632742
N    -4.755915  2.502452  -0.169320
H    -3.592355  -2.760525  0.348862
H    -2.567868  -1.413714  -0.098501
H    -4.206721  0.045531  1.387786
H    -5.307172  -1.317079  1.295314
H    -5.312899  -1.194263  -1.218119
H    -4.138817  0.112894  -1.180287
H    -7.009952  0.240190  -0.563918
H    -7.012443  3.699094  -0.354042
H    -7.856229  2.373553  -1.073008
H    -3.987658  1.967940  0.219827
N    -1.338868  -4.068053  1.779036
C    -2.525297  -4.921342  1.778923
H    -0.440608  -4.540384  1.679158
H    -2.858312  -5.137827  0.755352
H    -3.343975  -4.458197  2.338076
H    -2.273516  -5.866708  2.270467
Ca    0.992555  -0.283954  2.017615
