36
Energy: -39736.6742923 eV PBE+vdW (tier 2 basis)
C    -0.088520  -0.129793  0.112114
C    -0.139286  -0.010999  1.597857
O    0.938577  -0.077280  2.284839
H    0.114056  -1.173543  -0.169550
H    0.753745  0.467496  -0.258452
H    -1.009706  0.195718  -0.379932
N    -1.282504  0.169404  2.249349
C    -2.678393  0.054288  1.843883
C    -3.464529  0.505967  3.106417
O    -2.918134  0.446502  4.229417
H    -1.228227  0.325911  3.262447
H    -2.891543  0.766804  1.033317
C    -3.085202  -1.375644  1.351987
C    -2.334291  -2.609627  1.883957
C    -2.574716  -3.082745  3.327513
N    -2.005900  -2.221478  4.371410
C    -0.707032  -2.071199  4.628382
N    -0.319772  -0.925433  5.408612
N    0.325369  -2.766645  4.205575
H    -2.961793  -1.383691  0.260637
H    -4.165517  -1.494327  1.522387
H    -1.253129  -2.506052  1.707254
H    -2.642407  -3.448745  1.242828
H    -2.172311  -4.098059  3.450253
H    -3.647922  -3.159065  3.542726
H    -2.614891  -1.485049  4.733210
H    -1.055221  -0.210297  5.447423
H    -0.097042  -1.203154  6.369875
H    0.093597  -3.634673  3.721178
N    -4.714184  0.923288  2.902558
C    -5.624781  1.355099  3.963076
H    -5.054809  0.973688  1.946344
H    -6.016404  2.351043  3.727297
H    -5.072901  1.395488  4.905222
H    -6.462637  0.653117  4.056508
Ca    1.786596  -1.019862  4.004464
