36
Energy: -39736.027409 eV PBE+vdW (tier 2 basis)
C    -0.454463  -0.180821  0.386839
C    -0.302419  -0.094895  1.870833
O    0.847495  0.063892  2.396557
H    -0.571054  0.830370  -0.034905
H    -1.323570  -0.776291  0.089841
H    0.458490  -0.612107  -0.037680
N    -1.393081  -0.153653  2.663366
C    -2.607038  0.628290  2.371776
C    -2.210446  2.122268  2.198552
O    -1.030787  2.484249  2.684377
H    -1.165358  -0.196316  3.658431
H    -3.046451  0.278873  1.429175
C    -3.598127  0.396902  3.534141
C    -4.950469  1.113766  3.441385
C    -6.049940  0.430511  2.626570
N    -5.773547  0.106199  1.202772
C    -5.887568  0.988858  0.180990
N    -6.440942  0.571811  -0.971917
N    -5.434605  2.232331  0.320672
H    -3.102302  0.725677  4.462285
H    -3.747497  -0.689658  3.631827
H    -4.810456  2.150109  3.110045
H    -5.360562  1.189163  4.459157
H    -6.956939  1.050315  2.673137
H    -6.298387  -0.534490  3.086174
H    -5.970090  -0.856191  0.946926
H    -6.351735  1.115591  -1.822443
H    -7.079188  -0.215132  -0.995775
H    -5.679052  2.911751  -0.392410
N    -3.051961  2.893315  1.609606
C    -2.754112  4.317528  1.484063
H    -4.568200  2.444693  0.907500
H    -3.693236  4.875457  1.390614
H    -2.165113  4.507806  0.573750
H    -2.195478  4.712887  2.342725
Ca    0.942492  2.120796  3.133946
