36
Energy: -39736.6937662 eV PBE+vdW (tier 2 basis)
C    -0.043675  -0.123910  1.334861
C    -1.227727  -1.029902  1.434160
O    -1.126485  -2.171496  1.975220
H    0.064216  0.463175  2.260398
H    -0.102113  0.568128  0.488073
H    0.856004  -0.743182  1.244991
N    -2.440079  -0.641859  0.962608
C    -2.957834  0.702435  1.152386
C    -3.166862  0.924852  2.684265
O    -2.964973  -0.017293  3.502477
H    -3.124541  -1.409941  0.917150
H    -2.163270  1.403328  0.853561
C    -4.184867  1.024848  0.249049
C    -5.641758  0.772401  0.693856
C    -6.230787  -0.650797  0.700581
N    -5.929279  -1.404346  1.922945
C    -5.031401  -2.390034  2.105808
N    -4.419187  -2.927587  0.991016
N    -4.605109  -2.806166  3.293452
H    -3.992215  0.534844  -0.717098
H    -4.124909  2.098919  0.022775
H    -6.259506  1.343162  -0.014829
H    -5.839071  1.239455  1.672082
H    -5.904429  -1.214931  -0.181937
H    -7.323511  -0.578770  0.620658
H    -6.326487  -1.019382  2.774928
H    -4.020380  -3.848884  1.156415
H    -4.930639  -2.888164  0.113444
H    -5.224408  -2.470884  4.038259
N    -3.523665  2.142920  3.071047
C    -3.720278  2.578277  4.454904
H    -3.636492  2.850993  2.349326
H    -4.719557  3.014688  4.567476
H    -2.970140  3.334093  4.717810
H    -3.617931  1.717783  5.119129
Ca    -2.430640  -2.196976  3.771984
