36
Energy: -39736.6438822 eV PBE+vdW (tier 2 basis)
C    3.610445  0.407299  1.349336
C    2.516332  1.132540  2.067660
O    2.610337  2.387677  2.259915
H    3.698917  0.826775  0.337353
H    3.441155  -0.671769  1.273307
H    4.567969  0.588549  1.853911
N    1.454451  0.435114  2.478473
C    0.197208  0.953566  3.060285
C    0.347596  1.253311  4.569688
O    1.143005  2.277925  4.830478
H    1.486476  -0.566186  2.308308
H    0.023771  1.930714  2.581510
C    -0.968703  0.033152  2.673413
C    -0.799924  -1.447402  3.041590
C    -2.097483  -2.261058  2.966448
N    -3.267760  -1.707434  3.679916
C    -3.418487  -1.606059  5.017081
N    -4.644367  -1.780241  5.540581
N    -2.377264  -1.325248  5.801680
H    -1.144597  0.132120  1.591685
H    -1.862041  0.439765  3.166263
H    -0.354581  -1.548341  4.038680
H    -0.111666  -1.955285  2.345852
H    -1.904334  -3.281454  3.328229
H    -2.423781  -2.344687  1.922521
H    -4.132178  -1.702710  3.149084
H    -4.865179  -1.465645  6.477924
H    -5.366566  -2.285084  5.040493
H    -2.497611  -1.421961  6.803979
N    -0.293525  0.557054  5.440181
C    -0.140102  0.893815  6.853249
H    -1.579399  -0.710629  5.485235
H    0.026748  -0.028822  7.426273
H    -1.069271  1.350802  7.226073
H    0.687070  1.584928  7.053236
Ca    2.389227  3.646508  3.974937
