36
Energy: -39736.7951567 eV PBE+vdW (tier 2 basis)
C    -0.278735  0.506951  0.137965
C    -0.979509  -0.447353  1.045060
O    -0.382152  -1.433993  1.555918
H    0.242542  1.271518  0.735694
H    -0.955933  1.008145  -0.561182
H    0.492213  -0.040492  -0.416090
N    -2.296454  -0.260187  1.350513
C    -2.863609  1.035275  1.714340
C    -2.116085  1.531581  2.984418
O    -1.441228  0.706938  3.674767
H    -2.671280  -1.024924  1.913222
H    -2.689468  1.744247  0.893096
C    -4.388778  0.917762  1.951125
C    -4.812625  0.056814  3.160618
C    -5.109055  -1.436761  2.871071
N    -4.918826  -2.269453  4.060905
C    -3.698298  -2.557384  4.571895
N    -3.591842  -2.756986  5.905527
N    -2.587289  -2.602678  3.825307
H    -4.839370  0.546479  1.019101
H    -4.782799  1.932850  2.081558
H    -5.713454  0.498552  3.605264
H    -4.044586  0.112962  3.947176
H    -4.506307  -1.837034  2.043448
H    -6.147079  -1.568880  2.544509
H    -5.733668  -2.439383  4.642938
H    -4.383411  -2.613771  6.523307
H    -2.866828  -3.380967  6.241265
H    -2.829077  -2.906434  2.876762
N    -2.188913  2.805112  3.347054
C    -2.879549  3.918852  2.693407
H    -1.694383  3.023727  4.212411
H    -3.013235  3.727495  1.624868
H    -2.268005  4.820186  2.805071
H    -3.857872  4.098142  3.157461
Ca    -0.654348  -1.393301  3.781983
