36
Energy: -39734.9199661 eV PBE+vdW (tier 2 basis)
C    -0.693780  0.879021  -0.199933
C    -0.827027  0.259762  1.149245
O    0.009606  -0.619285  1.546144
H    0.128082  1.611886  -0.207973
H    -1.611108  1.367615  -0.540508
H    -0.412447  0.089181  -0.909021
N    -1.823053  0.632800  1.981799
C    -2.148326  2.039928  2.244499
C    -0.890037  2.712545  2.850881
O    0.111241  1.983353  3.215899
H    -1.926997  0.031207  2.801048
H    -2.393918  2.539671  1.295293
C    -3.340642  2.159488  3.202600
C    -4.690545  1.690043  2.633358
C    -5.881778  2.414416  3.302330
N    -6.027882  3.796459  2.879198
C    -5.307548  4.865816  3.374018
N    -5.317934  5.989812  2.569730
N    -4.560265  4.884442  4.439153
H    -3.424504  3.215568  3.489225
H    -3.104414  1.624593  4.138538
H    -4.811816  0.603191  2.754682
H    -4.736194  1.891909  1.551889
H    -5.806741  2.353936  4.399495
H    -6.809449  1.891370  3.040487
H    -6.711018  3.976668  2.153123
H    -5.167113  6.855913  3.077299
H    -6.015643  6.060120  1.837458
H    -4.722751  4.068511  5.032515
N    -0.842456  4.017933  3.011855
C    -1.843679  5.036856  2.670002
H    -0.001567  4.355979  3.481723
H    -2.379915  4.764727  1.754769
H    -1.313465  5.977986  2.497666
H    -2.580299  5.162773  3.489749
Ca    1.228171  0.177655  3.139129
