36
Energy: -39736.6569609 eV PBE+vdW (tier 2 basis)
C    0.232035  -0.814542  0.599283
C    -0.079313  -0.193654  1.924736
O    0.856603  0.238306  2.661082
H    -0.646115  -1.227865  0.092691
H    0.982315  -1.604064  0.732128
H    0.685100  -0.048483  -0.045774
N    -1.367695  -0.117675  2.298975
C    -1.890296  0.591920  3.481056
C    -0.924218  0.427954  4.665218
O    -0.413691  1.535161  5.109377
H    -2.056064  -0.478603  1.643097
H    -1.868587  1.669847  3.260429
C    -3.350913  0.196813  3.767670
C    -4.069982  1.153611  4.731663
C    -3.707615  1.069490  6.218292
N    -4.137619  -0.197030  6.837234
C    -3.451524  -0.936482  7.723398
N    -4.125694  -1.708426  8.590782
N    -2.112299  -0.931317  7.749610
H    -3.420320  -0.839187  4.127972
H    -3.894475  0.226042  2.810691
H    -5.153854  0.995415  4.625942
H    -3.900059  2.194440  4.418219
H    -4.208423  1.892979  6.749046
H    -2.635149  1.200517  6.394959
H    -5.135127  -0.389690  6.790556
H    -3.669666  -2.461296  9.092431
H    -5.101638  -1.538293  8.803645
H    -1.627404  -1.333331  8.542452
N    -0.441868  -0.700127  5.159519
C    -0.792895  -2.027085  4.652858
H    -1.544566  -0.652954  6.942077
H    -0.077014  -2.355322  3.882225
H    -1.798480  -2.101356  4.221138
H    -0.721037  -2.749469  5.474881
Ca    1.508678  0.631787  4.724816
