36
Energy: -39735.3383915 eV PBE+vdW (tier 2 basis)
C    -1.928391  -2.215102  2.435143
C    -1.241269  -1.340662  3.418163
O    0.011629  -1.453847  3.649658
H    -1.255838  -2.483912  1.614000
H    -2.880391  -1.810764  2.058440
H    -2.166844  -3.152696  2.968204
N    -1.932606  -0.406203  4.114512
C    -2.849953  0.537550  3.475482
C    -2.004542  1.433475  2.535357
O    -0.720642  1.444082  2.636913
H    -1.426033  -0.028020  4.917560
H    -3.540965  -0.031367  2.834154
C    -3.616302  1.318822  4.574075
C    -4.793661  2.202242  4.135687
C    -6.095036  1.452977  3.780951
N    -5.948793  0.326359  2.864376
C    -5.438017  0.354973  1.595175
N    -5.515561  1.604795  0.943278
N    -4.813245  -0.687162  1.145222
H    -2.892458  1.942272  5.123784
H    -3.976316  0.559755  5.285503
H    -4.498232  2.872179  3.315667
H    -5.029945  2.876661  4.971212
H    -6.831609  2.176565  3.398888
H    -6.542730  1.040292  4.693546
H    -5.951576  -0.606638  3.262065
H    -5.448447  1.515583  -0.069532
H    -6.333647  2.165876  1.184975
H    -4.622535  -0.630962  0.141873
N    -2.617970  2.159819  1.629107
C    -1.936345  3.069568  0.706769
H    -3.645368  2.060753  1.507873
H    -1.387437  2.507562  -0.060179
H    -1.238786  3.715267  1.250640
H    -2.692609  3.689982  0.218295
Ca    1.049622  0.357220  3.124836
