36
Energy: -39735.6286363 eV PBE+vdW (tier 2 basis)
C    -2.361779  0.364794  1.202454
C    -1.497534  0.149360  2.401394
O    -0.360152  -0.422573  2.262374
H    -3.306442  0.863410  1.439746
H    -2.567728  -0.607874  0.734158
H    -1.816139  0.963134  0.460438
N    -1.940660  0.561276  3.583141
C    -1.392224  0.311003  4.929901
C    -0.070262  1.042379  5.177795
O    1.009837  0.646843  4.610540
H    -2.915849  0.920712  3.657902
H    -2.134013  0.779754  5.581297
C    -1.308281  -1.179630  5.343230
C    -2.398143  -2.140833  4.821409
C    -3.890671  -1.714201  4.869833
N    -4.291988  -0.904372  6.011859
C    -4.329155  0.473511  6.030801
N    -4.552686  1.085727  4.761422
N    -4.138455  1.258596  7.033096
H    -1.307419  -1.179948  6.442848
H    -0.334683  -1.606743  5.056355
H    -2.275226  -3.065881  5.402575
H    -2.180352  -2.423498  3.780076
H    -4.502512  -2.626106  4.846020
H    -4.148399  -1.163075  3.959600
H    -4.233168  -1.340799  6.926510
H    -4.765424  2.069205  4.939143
H    -5.343192  0.667944  4.266194
H    -3.919260  0.750856  7.895359
N    -0.011687  2.070504  6.004455
C    -1.048009  2.763470  6.777834
H    0.932319  2.449518  6.108806
H    -0.747946  2.773517  7.832494
H    -1.121316  3.799523  6.424457
H    -2.031076  2.284795  6.696272
Ca    1.617845  -0.493671  2.941072
