36
Energy: -39736.0488096 eV PBE+vdW (tier 2 basis)
C    -1.066597  -1.188037  3.010346
C    -2.260882  -1.540275  2.186151
O    -2.383410  -2.739685  1.763065
H    -1.172619  -0.250231  3.556445
H    -0.158554  -1.154875  2.391062
H    -0.921507  -2.010552  3.724642
N    -3.263526  -0.663907  1.928253
C    -3.154552  0.645134  1.239135
C    -3.074762  0.350870  -0.289467
O    -2.534577  -0.801043  -0.653214
H    -4.086245  -1.166459  1.589565
H    -4.113809  1.147635  1.418876
C    -2.020258  1.551972  1.749698
C    -1.910930  2.953433  1.119769
C    -3.104589  3.902783  1.277552
N    -4.160288  3.598123  0.309865
C    -5.249330  4.337833  0.128191
N    -5.478914  5.441205  0.857810
N    -6.157565  3.959296  -0.793470
H    -1.050446  1.061831  1.589984
H    -2.149859  1.662620  2.836731
H    -1.646054  2.882954  0.055536
H    -1.054152  3.439050  1.605788
H    -2.741598  4.930073  1.112254
H    -3.501045  3.851155  2.306787
H    -4.008909  2.745557  -0.303684
H    -6.305408  6.008078  0.717176
H    -4.813246  5.762701  1.547302
H    -6.941120  4.550357  -1.038476
N    -3.544793  1.253506  -1.074509
C    -3.450053  1.068810  -2.519391
H    -5.966523  3.170265  -1.396514
H    -3.482808  2.048119  -3.010838
H    -4.304799  0.481617  -2.889721
H    -2.528054  0.554849  -2.823960
Ca    -2.226990  -2.818143  -0.407191
