36
Energy: -39736.5945149 eV PBE+vdW (tier 2 basis)
C    -1.447372  -0.042756  -1.098417
C    -0.842403  0.206549  0.240548
O    -0.014558  1.139933  0.431832
H    -2.227211  0.708489  -1.297406
H    -1.877471  -1.043992  -1.198236
H    -0.672725  0.106441  -1.860984
N    -1.184557  -0.569720  1.310690
C    -2.559876  -0.938907  1.648894
C    -3.410062  0.359877  1.632649
O    -2.847675  1.465577  1.893248
H    -0.607823  -0.359143  2.129290
H    -2.940057  -1.661995  0.912871
C    -2.662821  -1.547067  3.079590
C    -1.606662  -2.571698  3.533269
C    -0.173389  -2.122349  3.883515
N    0.020059  -1.183969  5.010202
C    0.232824  0.154441  4.858042
N    1.178295  0.735589  5.613723
N    -0.474860  0.888930  3.987145
H    -3.641622  -2.044290  3.125606
H    -2.745075  -0.736865  3.822804
H    -1.503240  -3.356260  2.767965
H    -2.025868  -3.074096  4.416842
H    0.364437  -1.727745  3.011249
H    0.375217  -3.031991  4.160261
H    0.404801  -1.601317  5.852953
H    1.163510  1.737138  5.761369
H    1.872163  0.197602  6.119968
H    -1.386025  0.426941  3.909798
N    -4.705832  0.249062  1.386840
C    -5.677785  1.343677  1.419012
H    -5.062675  -0.677765  1.164751
H    -6.162295  1.435367  0.439794
H    -5.159960  2.273767  1.662244
H    -6.441071  1.137377  2.178774
Ca    -0.773533  2.296353  2.208695
