36
Energy: -39737.0784063 eV PBE+vdW (tier 2 basis)
C    -0.303246  -0.779390  0.272071
C    -0.572228  -1.196091  1.685280
O    0.101473  -2.117600  2.215937
H    -0.402734  -1.656420  -0.381169
H    0.738459  -0.440249  0.192434
H    -0.965035  0.014236  -0.089637
N    -1.553477  -0.550902  2.345171
C    -2.071353  -0.760946  3.715326
C    -0.961420  -0.484275  4.758835
O    -0.077662  -1.356107  5.001500
H    -2.035113  0.165861  1.811170
H    -2.844088  0.008368  3.816542
C    -2.714151  -2.135800  4.010690
C    -3.471681  -2.825756  2.871431
C    -3.833697  -4.294114  3.215343
N    -2.744553  -5.033404  3.880290
C    -1.470314  -5.072988  3.402395
N    -1.305290  -5.057360  2.054105
N    -0.380019  -5.039105  4.171853
H    -3.378771  -1.986595  4.875849
H    -1.923352  -2.805049  4.366610
H    -2.861285  -2.809114  1.958633
H    -4.404558  -2.297500  2.628665
H    -4.164345  -4.822545  2.309701
H    -4.683044  -4.334819  3.907174
H    -2.805728  -5.048201  4.892943
H    -0.416935  -5.403608  1.709823
H    -2.099704  -5.272209  1.461608
H    -0.619558  -5.250109  5.145757
N    -0.955459  0.674971  5.406440
C    -1.880566  1.806960  5.277711
H    -0.201527  0.770527  6.086671
H    -1.897979  2.193910  4.251961
H    -1.522517  2.606799  5.931645
H    -2.893753  1.535390  5.598790
Ca    0.873706  -3.100692  3.996519
