36
Energy: -39736.0544872 eV PBE+vdW (tier 2 basis)
C    -1.367778  0.403726  -1.528422
C    -0.419643  0.246516  -0.383024
O    0.838047  0.324352  -0.581511
H    -1.402908  1.450022  -1.865838
H    -2.382677  0.066885  -1.299984
H    -0.970937  -0.183336  -2.367420
N    -0.885939  0.011986  0.862108
C    -1.950492  0.852767  1.439765
C    -1.252743  2.128568  2.007945
O    -0.198170  2.545250  1.312738
H    -0.148184  -0.234643  1.524554
H    -2.569882  1.191804  0.594818
C    -2.833812  0.089242  2.431258
C    -4.217498  0.732923  2.586724
C    -5.057942  0.176187  3.736185
N    -4.419892  0.148958  5.072829
C    -4.051620  1.209902  5.817296
N    -4.165722  1.127768  7.154926
N    -3.566156  2.317226  5.250769
H    -2.321488  0.027788  3.402813
H    -2.945407  -0.941116  2.064678
H    -4.807151  0.568690  1.671603
H    -4.125110  1.821410  2.684727
H    -5.319331  -0.870123  3.535192
H    -6.000883  0.738681  3.801203
H    -4.567838  -0.706965  5.597259
H    -3.672724  1.768262  7.765521
H    -4.799714  0.468976  7.591385
H    -3.468163  3.145374  5.827090
N    -1.729206  2.681730  3.063121
C    -1.118275  3.913429  3.552441
H    -3.022124  2.306589  4.355066
H    -0.514612  3.698754  4.447429
H    -1.909763  4.613880  3.851344
H    -0.478882  4.411560  2.812764
Ca    1.512741  2.235746  0.226119
