36
Energy: -39735.8915563 eV PBE+vdW (tier 2 basis)
C    -1.133959  0.095908  0.329974
C    -0.774476  -0.033394  1.773580
O    0.265041  -0.695912  2.108446
H    -1.294506  -0.910389  -0.082098
H    -0.290750  0.533564  -0.220458
H    -2.030028  0.700638  0.158973
N    -1.556637  0.543607  2.684034
C    -1.545056  0.432009  4.155745
C    -0.375014  1.183245  4.787930
O    0.832795  0.791115  4.589718
H    -2.379987  1.027967  2.329012
H    -2.498473  0.929159  4.426069
C    -1.639313  -1.015411  4.704157
C    -2.639344  -1.084025  5.872254
C    -4.084464  -1.446141  5.461201
N    -4.544981  -0.977364  4.147032
C    -5.029079  0.302025  3.930195
N    -6.076262  0.368221  3.041806
N    -4.424162  1.319806  4.477015
H    -0.653971  -1.376727  5.041728
H    -1.962158  -1.676828  3.889075
H    -2.639015  -0.127906  6.413529
H    -2.312579  -1.839048  6.599778
H    -4.766901  -1.101546  6.251957
H    -4.166307  -2.539416  5.419808
H    -5.009717  -1.693844  3.600817
H    -6.462138  1.283190  2.838579
H    -6.759214  -0.382324  3.024470
H    -4.954542  2.182071  4.333512
N    -0.578411  2.210986  5.589863
C    -1.820912  2.865059  6.008497
H    0.281852  2.601444  5.980579
H    -1.863334  2.865978  7.104286
H    -2.699842  2.344731  5.612789
H    -1.814070  3.904182  5.656625
Ca    1.859266  -0.671361  3.471569
