36
Energy: -39735.6464946 eV PBE+vdW (tier 2 basis)
C    1.088339  -0.613921  0.515237
C    -0.082229  0.258862  0.831730
O    -0.442842  1.167538  0.013778
H    0.865388  -1.277136  -0.332991
H    1.427195  -1.212470  1.365126
H    1.906785  0.042645  0.188478
N    -0.757700  0.100684  1.992206
C    -1.249139  -1.230722  2.399378
C    -2.621364  -1.456293  1.681768
O    -2.734043  -0.847661  0.504075
H    -1.427632  0.853429  2.156851
H    -0.568087  -1.963782  1.941433
C    -1.200350  -1.463463  3.910802
C    -2.031679  -0.507392  4.782686
C    -2.288678  -1.028925  6.222797
N    -3.703507  -1.361298  6.484182
C    -4.436977  -2.144254  5.682075
N    -5.763879  -1.981916  5.591492
N    -3.860514  -3.107300  4.930761
H    -0.145303  -1.415555  4.216669
H    -1.507443  -2.504025  4.064873
H    -3.003515  -0.305407  4.309505
H    -1.515880  0.460084  4.854659
H    -2.029537  -0.267671  6.965613
H    -1.649437  -1.895447  6.450881
H    -4.174661  -0.849486  7.224275
H    -6.238401  -1.187710  6.005295
H    -6.331876  -2.753946  5.259815
H    -2.943299  -3.399446  5.253463
N    -3.506806  -2.224829  2.204256
C    -4.714361  -2.490950  1.420803
H    -3.881557  -2.978638  3.891389
H    -4.483300  -2.772692  0.383685
H    -5.372190  -1.607994  1.390113
H    -5.272070  -3.313444  1.882325
Ca    -2.331584  0.576283  -0.912353
