36
Energy: -39734.8712221 eV PBE+vdW (tier 2 basis)
C    -0.267416  -0.091769  -0.258375
C    -0.087253  0.017571  1.216790
O    1.088029  0.223769  1.684057
H    0.465843  0.573570  -0.731413
H    -1.275543  0.165567  -0.588251
H    -0.037218  -1.112946  -0.600769
N    -1.110255  -0.062084  2.099867
C    -2.111268  -1.146209  2.177683
C    -1.374850  -2.395964  2.717267
O    -0.087521  -2.458069  2.678457
H    -0.822696  0.263921  3.024579
H    -2.837397  -0.830744  2.942052
C    -2.912187  -1.462862  0.906990
C    -3.834575  -0.340635  0.422487
C    -4.809352  0.231815  1.464375
N    -5.389886  -0.734522  2.418941
C    -6.222195  -1.781567  1.972298
N    -7.331332  -1.978179  2.770582
N    -5.826592  -2.514491  0.986844
H    -3.578370  -2.311666  1.125961
H    -2.251199  -1.803494  0.099577
H    -4.406665  -0.770613  -0.407815
H    -3.270448  0.513404  0.015744
H    -5.595898  0.776941  0.916628
H    -4.294952  0.980201  2.085526
H    -5.781050  -0.255119  3.225947
H    -7.958001  -2.729049  2.501670
H    -7.810346  -1.170001  3.155716
H    -6.536426  -3.194300  0.706333
N    -2.054560  -3.402715  3.225420
C    -3.502680  -3.536919  3.420990
H    -1.484334  -4.199794  3.510889
H    -3.668985  -4.048883  4.374388
H    -3.944152  -4.125490  2.607090
H    -3.987987  -2.555241  3.439794
Ca    1.833468  -1.545922  2.634978
