36
Energy: -39734.5751572 eV PBE+vdW (tier 2 basis)
C    -1.279294  -0.376885  -0.752539
C    -0.869776  0.094576  0.589693
O    0.259990  0.679685  0.757407
H    -1.546800  -1.441734  -0.754405
H    -0.468841  -0.204909  -1.465852
H    -2.195506  0.160741  -1.101179
N    -1.658077  -0.042955  1.687422
C    -2.358612  -1.263464  2.105879
C    -1.275576  -2.354514  2.367534
O    -0.031813  -2.060758  2.296114
H    -1.355873  0.546739  2.461957
H    -2.785150  -1.013392  3.090259
C    -3.527932  -1.710456  1.200056
C    -4.467317  -0.551593  0.850955
C    -5.312327  -0.809442  -0.414891
N    -5.862241  0.415095  -0.974420
C    -5.020967  1.439640  -1.409154
N    -3.950937  0.982834  -2.225800
N    -5.252639  2.643670  -1.042835
H    -4.090439  -2.497253  1.726299
H    -3.140552  -2.181086  0.285110
H    -3.877757  0.358427  0.670170
H    -5.121604  -0.317904  1.703617
H    -6.146173  -1.492063  -0.205858
H    -4.691050  -1.309316  -1.173967
H    -6.634621  0.815006  -0.444493
H    -3.510531  1.758936  -2.716804
H    -4.249870  0.281589  -2.906318
H    -4.694273  3.336241  -1.549485
N    -1.686370  -3.565128  2.686362
C    -0.842857  -4.712715  3.027085
H    -2.693130  -3.718207  2.707658
H    -1.042255  -5.532670  2.326912
H    -1.076646  -5.046839  4.045123
H    0.207921  -4.424164  2.966835
Ca    1.524780  -0.630107  1.881287
