36
Energy: -39736.7284672 eV PBE+vdW (tier 2 basis)
C    -0.242521  -0.484882  0.240458
C    -0.011544  -0.125885  1.670064
O    1.142382  -0.127853  2.175187
H    -0.080552  0.400259  -0.394769
H    -1.249112  -0.873461  0.054226
H    0.505064  -1.228992  -0.057036
N    -1.063182  0.226515  2.467250
C    -2.114190  1.144792  2.055871
C    -1.451312  2.489907  1.662235
O    -0.244648  2.717127  1.968667
H    -0.780518  0.342530  3.440718
H    -2.585106  0.748433  1.144509
C    -3.234769  1.240597  3.136796
C    -2.866175  1.114409  4.630164
C    -2.589727  2.369179  5.474486
N    -1.485575  3.265303  5.081910
C    -0.188408  2.930297  4.974779
N    0.714867  3.922195  4.506248
N    0.375065  1.752702  5.110524
H    -3.925203  0.417396  2.914733
H    -3.809179  2.162243  2.972725
H    -2.095656  0.346011  4.788852
H    -3.746399  0.672588  5.120098
H    -2.442363  2.053005  6.519255
H    -3.484255  3.004040  5.471358
H    -1.692704  4.257233  5.153618
H    1.408653  4.160494  5.218794
H    0.285317  4.770158  4.136962
H    -0.177554  1.068368  5.627946
N    -2.140982  3.380900  0.954951
C    -3.509499  3.301294  0.438808
H    -1.616993  4.223060  0.718601
H    -3.535478  3.770094  -0.550407
H    -4.211328  3.831023  1.095777
H    -3.832942  2.261924  0.331163
Ca    1.556911  1.891952  3.088490
