36
Energy: -39736.7734614 eV PBE+vdW (tier 2 basis)
C    -0.281704  1.177830  2.490546
C    -0.044496  -0.282607  2.287166
O    0.561876  -0.976088  3.152018
H    -1.222145  1.333409  3.042271
H    -0.333891  1.737369  1.550385
H    0.525471  1.575373  3.115594
N    -0.497282  -0.898637  1.161671
C    -1.796422  -0.628870  0.562338
C    -2.893807  -1.027898  1.597664
O    -2.576522  -1.596510  2.682032
H    -0.151687  -1.850256  1.039817
H    -1.880829  0.458843  0.420832
C    -1.904040  -1.292677  -0.844240
C    -2.576263  -2.668040  -1.033134
C    -2.203994  -3.832727  -0.105368
N    -0.767542  -4.090761  0.005343
C    -0.108066  -4.218559  1.187174
N    1.245784  -4.143430  1.158659
N    -0.714013  -4.291155  2.373733
H    -0.876119  -1.316313  -1.232448
H    -2.430984  -0.593953  -1.507472
H    -2.389839  -2.958135  -2.077803
H    -3.669691  -2.570409  -0.961485
H    -2.721857  -4.738867  -0.452236
H    -2.571742  -3.632378  0.907416
H    -0.268251  -4.320885  -0.850283
H    1.758966  -4.574432  1.919486
H    1.751096  -4.022341  0.287774
H    -1.643799  -4.704891  2.260546
N    -4.146532  -0.723248  1.287841
C    -5.320786  -0.982394  2.123389
H    -4.307839  -0.234162  0.410243
H    -6.089496  -1.487613  1.527854
H    -5.727098  -0.036605  2.502852
H    -5.030177  -1.616476  2.963516
Ca    -0.866504  -2.543666  3.833877
