36
Energy: -39736.6181217 eV PBE+vdW (tier 2 basis)
C    0.470647  0.752334  0.348069
C    0.442776  0.772702  1.850620
O    1.559626  0.706550  2.493044
H    1.383346  0.250084  0.012011
H    0.506377  1.780145  -0.043976
H    -0.410170  0.261868  -0.084238
N    -0.656920  0.898126  2.607542
C    -1.855462  1.540409  2.077787
C    -1.662914  3.060160  2.314676
O    -0.765561  3.449561  3.125679
H    -0.486951  -1.206669  3.006063
H    -1.973066  1.373044  0.993450
C    -3.134545  1.064816  2.804784
C    -3.843467  -0.184015  2.257131
C    -3.226054  -1.563704  2.527784
N    -2.328172  -2.070340  1.468847
C    -1.110448  -2.603347  1.665872
N    -0.655941  -3.553358  0.835432
N    -0.351540  -2.166891  2.678903
H    -3.875706  1.875459  2.787435
H    -2.882527  0.921947  3.867198
H    -4.037491  -0.071638  1.178379
H    -4.838807  -0.203087  2.723062
H    -4.036485  -2.300088  2.625820
H    -2.677202  -1.579217  3.476193
H    -2.787625  -2.342468  0.603631
H    -1.288942  -4.115396  0.277791
H    0.324403  -3.809615  0.814446
H    0.507316  -2.644854  2.922732
N    -2.421041  3.957631  1.694895
C    -3.497185  3.746041  0.729632
H    -2.228504  4.923039  1.963014
H    -3.439338  4.523714  -0.039357
H    -4.479534  3.806330  1.216676
H    -3.396397  2.772275  0.241915
Ca    0.757085  2.106807  4.004409
