36
Energy: -39737.4780537 eV PBE+vdW (tier 2 basis)
C    0.858203  -1.001276  0.493531
C    0.374721  0.035274  1.459649
O    1.001264  1.122915  1.595148
H    0.884725  -0.567166  -0.514951
H    0.246970  -1.909413  0.475840
H    1.892308  -1.269140  0.749625
N    -0.729552  -0.247352  2.173998
C    -1.389476  0.538237  3.240133
C    -2.077065  1.781190  2.634273
O    -1.376543  2.751004  2.224019
H    -1.145616  -1.155108  1.988938
H    -2.154436  -0.143181  3.627211
C    -0.492340  0.983123  4.418271
C    0.600340  0.008979  4.878121
C    1.784025  0.753520  5.523981
N    2.366850  1.707797  4.575575
C    2.377620  3.064580  4.688439
N    2.562551  3.582830  5.921988
N    2.174783  3.802117  3.595581
H    -1.168257  1.216334  5.253974
H    -0.023051  1.939187  4.155047
H    0.985338  -0.579051  4.031840
H    0.207337  -0.722476  5.597004
H    2.542438  0.031138  5.854458
H    1.451407  1.309970  6.409627
H    2.521343  1.363891  3.632586
H    2.473936  4.579771  6.075714
H    3.043789  3.053465  6.640218
H    2.513951  4.757414  3.737726
N    -3.401607  1.829286  2.562216
C    -4.384456  0.823358  2.982456
H    -3.767725  2.694874  2.165903
H    -5.378512  1.201856  2.729340
H    -4.350716  0.658328  4.066251
H    -4.240005  -0.124004  2.449558
Ca    0.752457  3.282729  1.859714
