36
Energy: -39736.7254345 eV PBE+vdW (tier 2 basis)
C    0.117326  -0.109977  0.943382
C    -1.047893  -0.545571  1.769889
O    -0.895347  -1.289598  2.779056
H    0.561211  0.803001  1.370754
H    -0.148165  0.086935  -0.100735
H    0.885430  -0.889936  0.990640
N    -2.303811  -0.128424  1.453241
C    -2.619396  1.229853  1.028136
C    -2.221136  2.191177  2.183304
O    -1.899833  1.722331  3.316727
H    -3.040691  -0.598059  1.979019
H    -1.974927  1.473575  0.170639
C    -4.098185  1.315041  0.539461
C    -5.219911  1.825248  1.464700
C    -5.380205  1.227600  2.870239
N    -5.417578  -0.234722  2.908381
C    -4.634871  -0.991179  3.721876
N    -4.521064  -2.311324  3.431126
N    -3.886916  -0.492668  4.707861
H    -4.339960  0.307334  0.173149
H    -4.120374  1.948643  -0.355742
H    -6.157633  1.694246  0.904414
H    -5.131677  2.912068  1.611583
H    -6.292366  1.638773  3.326554
H    -4.544178  1.541906  3.504669
H    -6.154708  -0.698073  2.382927
H    -4.262071  -2.939495  4.183787
H    -5.021334  -2.726138  2.652599
H    -4.316640  0.366157  5.063562
N    -2.195389  3.499509  1.961447
C    -2.470109  4.220269  0.715736
H    -1.930121  4.062123  2.769632
H    -3.538513  4.448291  0.612313
H    -2.132553  3.646422  -0.153629
H    -1.913920  5.162201  0.735607
Ca    -1.636233  -0.158293  4.552967
