36
Energy: -39736.399507 eV PBE+vdW (tier 2 basis)
C    0.438609  0.976849  0.691530
C    0.451811  0.440325  2.082468
O    1.568036  0.407887  2.731250
H    1.070467  0.348496  0.048147
H    0.893609  1.976453  0.696160
H    -0.562366  1.039081  0.256760
N    -0.626858  -0.012601  2.684404
C    -1.994935  -0.217523  2.222484
C    -2.780991  -0.350240  3.561045
O    -2.147624  -0.653182  4.584332
H    -0.579392  -0.316009  3.677066
H    -2.339619  0.660916  1.659403
C    -2.160541  -1.487128  1.350020
C    -1.967060  -2.854135  2.040694
C    -0.569691  -3.492560  1.982062
N    0.487734  -2.861581  2.782263
C    0.693757  -2.990043  4.111648
N    -0.099061  -3.820913  4.809114
N    1.676519  -2.276413  4.693364
H    -1.499987  -1.399542  0.473238
H    -3.181862  -1.449958  0.945853
H    -2.628150  -3.572186  1.534971
H    -2.322295  -2.812284  3.080741
H    -0.203027  -3.493011  0.947350
H    -0.645439  -4.557379  2.254647
H    1.247363  -2.429583  2.273731
H    -0.069108  -3.841779  5.820151
H    -0.761449  -4.438639  4.358142
H    1.849031  -2.653702  5.629985
N    -4.105401  -0.174234  3.495038
C    -5.003227  -0.306552  4.641357
H    -4.512133  0.112112  2.609753
H    -5.761571  -1.073132  4.442121
H    -5.502407  0.648847  4.842534
H    -4.410861  -0.595120  5.513290
Ca    2.759828  -0.359610  4.270982
