36
Energy: -39735.8984179 eV PBE+vdW (tier 2 basis)
C    -0.481528  2.257427  0.096371
C    -0.635060  2.066249  1.581305
O    -0.440636  3.157802  2.307435
H    -1.216447  2.999988  -0.244112
H    -0.627424  1.331448  -0.466759
H    0.508571  2.667903  -0.147517
N    -0.933267  0.887674  2.044013
C    -1.298249  0.666809  3.439864
C    -0.366579  1.184947  4.544850
O    0.836749  1.555016  4.334007
H    -1.162559  -0.519248  0.679128
H    -2.261107  1.180020  3.624416
C    -1.522544  -0.862817  3.645513
C    -2.876060  -1.325389  3.076278
C    -2.966782  -2.791751  2.619795
N    -1.870988  -3.274431  1.748935
C    -1.151078  -2.538826  0.896613
N    0.097664  -2.906792  0.570232
N    -1.627305  -1.395314  0.349720
H    -1.456268  -1.138623  4.705559
H    -0.675803  -1.362217  3.155937
H    -3.176883  -0.650770  2.265375
H    -3.656444  -1.210359  3.843009
H    -3.934244  -2.961035  2.124446
H    -2.944426  -3.456452  3.493123
H    -1.580809  -4.237270  1.896255
H    0.498241  -2.561584  -0.294732
H    0.582622  -3.655148  1.051665
H    -2.637792  -1.302135  0.376513
N    -0.826235  1.243371  5.796753
C    -2.151030  0.915647  6.322418
H    -0.123076  1.512387  6.483991
H    -2.926572  1.108886  5.575071
H    -2.344721  1.553405  7.190818
H    -2.206455  -0.133492  6.641446
Ca    1.287225  3.416181  3.367366
