36
Energy: -39736.6270472 eV PBE+vdW (tier 2 basis)
C    -0.206750  -0.026845  1.797231
C    -0.900544  -0.168104  3.124635
O    -0.350311  0.381904  4.159573
H    -0.836515  0.516223  1.080163
H    0.013214  -1.008076  1.353724
H    0.731641  0.518152  1.930630
N    -2.025082  -0.848969  3.383765
C    -2.519542  -1.934892  2.526684
C    -1.507199  -3.094848  2.708342
O    -0.855497  -3.145009  3.798196
H    -1.706838  2.365499  3.803688
H    -3.414419  -2.315727  3.053633
C    -3.015283  -1.601484  1.105111
C    -4.252185  -0.669996  1.063095
C    -4.033375  0.842401  0.950010
N    -3.436218  1.424078  2.158389
C    -3.090393  2.706181  2.310773
N    -3.545521  3.641275  1.465830
N    -2.266972  3.056829  3.313965
H    -3.341642  -2.547199  0.645822
H    -2.211835  -1.214729  0.464841
H    -4.910843  -0.880631  1.920492
H    -4.839733  -0.937591  0.174809
H    -5.019766  1.298239  0.771352
H    -3.398230  1.074242  0.078997
H    -3.120041  0.762128  2.874898
H    -4.317841  3.452688  0.839212
H    -3.215329  4.597653  1.512202
H    -2.132482  4.028138  3.566610
N    -1.368428  -4.032645  1.784976
C    -0.507808  -5.210081  1.943025
H    -1.901230  -3.944135  0.925870
H    -0.623654  -5.843539  1.060142
H    -0.797595  -5.773979  2.836934
H    0.541341  -4.906464  2.037569
Ca    -0.873772  -1.472495  5.283859
