36
Energy: -39735.038981 eV PBE+vdW (tier 2 basis)
C    -0.126378  -1.428752  0.237494
C    -0.211987  -0.807610  1.590445
O    0.816755  -0.761517  2.342126
H    -0.928227  -1.106843  -0.436061
H    -0.213300  -2.521841  0.367007
H    0.848488  -1.223928  -0.216654
N    -1.402697  -0.346081  1.993551
C    -1.878910  -0.007600  3.355156
C    -1.286741  1.304154  3.878643
O    -0.032722  1.408309  4.104272
H    -2.146422  -0.448369  1.307531
H    -2.957674  0.137834  3.226457
C    -1.690078  -1.131586  4.404591
C    -2.583526  -2.365939  4.214689
C    -2.348351  -3.158036  2.926154
N    -3.002461  -4.456189  2.986282
C    -2.890792  -5.286056  1.843991
N    -1.558858  -5.559022  1.501083
N    -3.966081  -5.644490  1.254429
H    -1.905965  -0.689208  5.389361
H    -0.633165  -1.442047  4.430987
H    -3.641852  -2.067302  4.288060
H    -2.400696  -3.037281  5.066628
H    -1.269263  -3.320876  2.779153
H    -2.706607  -2.580157  2.046073
H    -4.000434  -4.378066  3.189522
H    -1.470064  -6.238887  0.750549
H    -0.977529  -5.819277  2.296464
H    -3.812699  -6.353302  0.531329
N    -2.082368  2.319062  4.166257
C    -3.539784  2.428661  4.007469
H    -1.606337  3.123775  4.576462
H    -3.843476  2.203942  2.978902
H    -3.821063  3.462629  4.224847
H    -4.064639  1.772609  4.712660
Ca    1.798480  0.392135  3.796334
