36
Energy: -39736.2727376 eV PBE+vdW (tier 2 basis)
C    0.743021  -1.044344  0.995288
C    0.373317  -0.526032  2.345350
O    1.255720  -0.571331  3.288458
H    1.098060  -2.080608  1.072639
H    1.590815  -0.450541  0.624200
H    -0.068157  -0.994307  0.265126
N    -0.808355  -0.023735  2.630754
C    -2.051732  0.086202  1.875515
C    -2.613911  1.459533  2.355213
O    -2.279932  1.844871  3.482753
H    -0.938796  0.487130  3.524882
H    -1.853047  0.067957  0.797221
C    -3.057371  -1.017236  2.292764
C    -2.584655  -2.486975  2.218187
C    -2.377120  -3.181343  3.571669
N    -1.144921  -2.752182  4.242930
C    -0.865285  -2.830656  5.564285
N    -1.796348  -3.338263  6.391821
N    0.319393  -2.371478  6.008234
H    -3.943177  -0.886543  1.657205
H    -3.390098  -0.787613  3.316426
H    -1.677685  -2.598204  1.602888
H    -3.347165  -3.074811  1.690829
H    -2.363131  -4.273059  3.422255
H    -3.229274  -2.942919  4.224346
H    -0.329318  -2.660888  3.649362
H    -1.680491  -3.290929  7.396291
H    -2.604275  -3.842680  6.048994
H    0.455695  -2.680893  6.974810
N    -3.459855  2.089849  1.531030
C    -4.130769  3.345178  1.867003
H    -3.634931  1.689745  0.614677
H    -3.821216  4.137869  1.175422
H    -3.850356  3.623408  2.886134
H    -5.218309  3.219037  1.808412
Ca    1.901467  -0.978959  5.234428
