36
Energy: -39736.0658949 eV PBE+vdW (tier 2 basis)
C    -0.592882  0.195507  2.632760
C    -1.284397  -0.264579  3.874821
O    -0.655521  -0.337565  4.981079
H    -1.186105  0.953121  2.107750
H    -0.454494  -0.649832  1.939607
H    0.388338  0.603311  2.890031
N    -2.582941  -0.636914  3.831406
C    -3.125842  -1.542905  2.789288
C    -2.142824  -2.735424  2.608301
O    -1.419494  -3.039949  3.680682
H    -2.981818  -0.783960  4.757317
H    -4.026461  -1.961710  3.265208
C    -3.572075  -0.851719  1.490841
C    -4.783258  -1.553667  0.827487
C    -4.642992  -1.748096  -0.679577
N    -3.561616  -2.699409  -0.949535
C    -3.275915  -3.187275  -2.152736
N    -3.914575  -2.748243  -3.248706
N    -2.324130  -4.132138  -2.284771
H    -2.725802  -0.801833  0.792803
H    -3.840198  0.183375  1.736291
H    -5.695515  -0.971921  1.009222
H    -4.955519  -2.540193  1.282367
H    -4.434793  -0.780491  -1.168646
H    -5.589789  -2.137152  -1.085509
H    -2.988330  -2.980882  -0.117473
H    -3.774669  -3.180777  -4.152847
H    -4.561349  -1.972320  -3.205084
H    -2.065402  -4.496681  -3.192247
N    -2.111063  -3.342671  1.475841
C    -1.270419  -4.524101  1.327448
H    -1.964539  -4.614469  -1.472551
H    -1.875060  -5.347628  0.919041
H    -0.819159  -4.871789  2.265233
H    -0.459174  -4.313225  0.613430
Ca    -0.367124  -2.474724  5.354698
