36
Energy: -39735.6330589 eV PBE+vdW (tier 2 basis)
C    0.181347  0.397988  -0.139585
C    0.111939  -0.052623  1.275471
O    1.164382  -0.425354  1.900983
H    1.081801  0.995803  -0.318991
H    -0.719254  0.926952  -0.468626
H    0.281401  -0.513182  -0.753716
N    -1.069715  -0.086074  1.926772
C    -2.023329  1.024175  1.902871
C    -1.328692  2.240778  2.545432
O    -0.211978  2.105501  3.179235
H    -1.047174  -0.611933  2.803610
H    -2.266646  1.298465  0.848090
C    -3.321790  0.570824  2.605369
C    -4.507773  1.544983  2.633218
C    -5.012391  2.046260  1.273402
N    -4.288643  3.238080  0.749437
C    -3.706468  3.168057  -0.538580
N    -3.925134  4.273287  -1.313955
N    -2.960720  2.147531  -0.815500
H    -3.088621  0.271971  3.641393
H    -3.631925  -0.343168  2.076962
H    -4.311029  2.399481  3.298467
H    -5.334707  1.001055  3.111436
H    -6.072324  2.314699  1.369004
H    -4.943847  1.254373  0.516643
H    -4.830443  4.090413  0.876474
H    -3.496907  4.307789  -2.232163
H    -4.794645  4.789990  -1.233639
H    -2.674907  2.142471  -1.796656
N    -1.901276  3.410376  2.397527
C    -1.393608  4.664537  2.948301
H    -2.774264  3.437535  1.813607
H    -2.208546  5.393947  2.956335
H    -0.575444  5.057544  2.330241
H    -1.034046  4.516753  3.971738
Ca    1.550151  0.965642  3.499657
