36
Energy: -39736.3006984 eV PBE+vdW (tier 2 basis)
C    -0.686000  0.254572  -0.733423
C    -0.573660  0.291371  0.753679
O    0.568374  0.490434  1.313695
H    -0.287461  1.185380  -1.157970
H    -1.716062  0.112726  -1.074597
H    -0.066883  -0.568410  -1.117220
N    -1.650552  0.112562  1.492202
C    -1.703355  0.078925  2.950690
C    -3.165839  -0.382123  3.232591
O    -3.999525  -0.166593  2.350185
H    -2.598487  0.014870  1.087983
H    -0.960762  -0.648822  3.311820
C    -1.414005  1.480926  3.548707
C    -0.808272  1.494418  4.959160
C    0.019958  2.755304  5.220210
N    1.384961  2.645518  4.589087
C    1.957100  3.829448  3.981862
N    1.741569  5.019258  4.551707
N    2.624161  3.575031  2.888008
H    -2.336400  2.078468  3.526107
H    -0.730016  1.993669  2.853013
H    -0.170657  0.610506  5.129703
H    -1.598401  1.437334  5.719017
H    0.126246  2.931003  6.299307
H    -0.486227  3.629120  4.789242
H    2.039296  2.318935  5.308931
H    1.306391  5.108107  5.463337
H    2.082614  5.876491  4.126294
H    3.105607  4.377590  2.476601
N    -3.478160  -0.948497  4.413719
C    -2.618238  -1.418409  5.491153
H    -4.472134  -1.157953  4.495193
H    -2.952912  -2.411593  5.812233
H    -2.649206  -0.747879  6.360900
H    -1.582358  -1.517340  5.151267
Ca    2.093987  1.369687  2.458876
