36
Energy: -39734.6899669 eV PBE+vdW (tier 2 basis)
C    -0.027623  -0.335813  0.301128
C    -0.351084  0.471550  1.510967
O    0.590698  1.113409  2.110162
H    0.360147  -1.323816  0.603787
H    0.762912  0.174630  -0.259339
H    -0.883342  -0.487670  -0.359444
N    -1.541561  0.378404  2.158385
C    -2.341070  -0.840926  2.297136
C    -1.406401  -1.942334  2.887017
O    -0.300735  -1.612626  3.438077
H    -1.638517  1.052428  2.914715
H    -3.046414  -0.616788  3.115489
C    -3.198110  -1.238723  1.077288
C    -4.283208  -0.219404  0.681970
C    -3.817397  1.127735  0.100087
N    -2.949116  0.969626  -1.059471
C    -1.758608  1.639993  -1.314685
N    -1.234825  2.386680  -0.233906
N    -1.023825  1.541195  -2.361721
H    -3.731239  -2.168792  1.328158
H    -2.561723  -1.474796  0.215711
H    -4.939816  -0.014155  1.542353
H    -4.923983  -0.717534  -0.060752
H    -3.277774  1.698480  0.862376
H    -4.714410  1.716504  -0.150585
H    -3.398240  0.613676  -1.897957
H    -0.422697  2.898386  -0.580481
H    -1.893432  3.037493  0.192979
H    -1.413269  0.924082  -3.079559
N    -1.794595  -3.200249  2.855699
C    -1.059500  -4.319117  3.455732
H    -2.671503  -3.409710  2.385616
H    -1.677557  -5.217090  3.378522
H    -0.852129  -4.112311  4.511492
H    -0.115626  -4.486261  2.922802
Ca    1.250441  -0.125755  3.709297
