36
Energy: -39736.2127509 eV PBE+vdW (tier 2 basis)
C    1.552894  1.074319  1.458074
C    1.119678  0.781370  2.857307
O    1.749354  1.274840  3.849530
H    1.066760  1.997062  1.102644
H    1.298996  0.266375  0.764400
H    2.634258  1.248296  1.451953
N    0.031697  0.014223  3.079134
C    -1.227278  0.218720  2.342959
C    -1.656528  1.708251  2.489331
O    -1.108854  2.392490  3.483158
H    -0.104657  -0.218740  4.064341
H    -1.051528  0.026276  1.276151
C    -2.250500  -0.797115  2.896583
C    -3.693091  -0.757427  2.370373
C    -3.908427  -1.048980  0.880975
N    -3.599685  0.121948  0.057637
C    -3.858492  0.212835  -1.242695
N    -4.367804  -0.820945  -1.931387
N    -3.582178  1.362011  -1.892127
H    -2.302522  -0.664914  3.990295
H    -1.827571  -1.799252  2.727370
H    -4.179058  0.194687  2.626020
H    -4.243469  -1.528871  2.925765
H    -4.965171  -1.326627  0.738674
H    -3.292115  -1.910748  0.570170
H    -3.202463  0.965792  0.563186
H    -4.599715  -0.742470  -2.913380
H    -4.567036  -1.704175  -1.481745
H    -3.829904  1.492898  -2.864131
N    -2.502381  2.154684  1.631426
C    -2.995161  3.523444  1.744531
H    -3.307694  2.183547  -1.370296
H    -4.009652  3.576425  1.331274
H    -3.019289  3.887569  2.780265
H    -2.362516  4.207204  1.157473
Ca    0.475195  2.818559  4.728284
