36
Energy: -39735.8123967 eV PBE+vdW (tier 2 basis)
C    -0.844089  -0.320813  0.570159
C    -0.431553  -0.330076  2.005951
O    0.694197  -0.827841  2.335168
H    -1.807304  0.168469  0.393370
H    -0.902343  -1.361538  0.219642
H    -0.070716  0.173112  -0.032380
N    -1.270280  0.186526  2.910489
C    -1.218036  0.163346  4.387875
C    -0.093241  0.991418  5.021294
O    1.140051  0.793764  4.724857
H    -2.125417  0.575155  2.522643
H    -2.150324  0.657349  4.688659
C    -1.228238  -1.263709  4.989992
C    -2.606931  -1.938916  4.986956
C    -3.685234  -1.240746  5.847893
N    -3.263759  -0.943214  7.210455
C    -2.761820  0.252818  7.685271
N    -3.159436  1.418065  6.961594
N    -1.967850  0.447685  8.674551
H    -0.871432  -1.185203  6.027822
H    -0.506956  -1.898703  4.455893
H    -2.469103  -2.965208  5.357787
H    -2.993224  -2.045713  3.960945
H    -4.573280  -1.887409  5.878094
H    -4.021507  -0.311010  5.370548
H    -3.042720  -1.745496  7.792236
H    -4.113654  1.372287  6.602452
H    -3.102959  2.202191  7.615216
H    -1.663826  -0.417953  9.126906
N    -0.474210  1.823935  5.958055
C    0.398553  2.571239  6.857592
H    -1.497783  1.836756  6.174955
H    0.122611  2.313381  7.888271
H    0.250067  3.647359  6.703696
H    1.443637  2.316679  6.667726
Ca    2.375367  -0.405916  3.538277
