36
Energy: -39736.8206987 eV PBE+vdW (tier 2 basis)
C    0.308827  0.564064  0.019038
C    0.208786  0.289351  1.480764
O    1.222159  0.114114  2.204117
H    0.578684  1.618912  -0.144426
H    -0.613074  0.340389  -0.526769
H    1.135977  -0.033301  -0.384148
N    -1.014586  0.268898  2.099714
C    -2.134808  1.163850  1.816508
C    -1.586452  2.609362  1.815403
O    -0.614364  2.886389  2.578620
H    -1.027664  -0.200724  3.004060
H    -2.595887  0.907166  0.850866
C    -3.183583  1.080406  2.955264
C    -3.529185  -0.321387  3.485816
C    -2.653305  -0.851381  4.639172
N    -2.548709  0.071844  5.771727
C    -1.389543  0.448900  6.375742
N    -1.460388  0.677430  7.705447
N    -0.254783  0.610022  5.683779
H    -4.095512  1.560321  2.578702
H    -2.842780  1.702707  3.798393
H    -3.536269  -1.071074  2.680706
H    -4.565351  -0.284195  3.851057
H    -1.625966  -1.112366  4.351135
H    -3.092619  -1.795936  4.993797
H    -3.383775  0.150873  6.345606
H    -0.722983  1.174448  8.189474
H    -2.212894  0.308856  8.275934
H    0.517846  0.532862  6.355932
N    -2.192163  3.506663  1.054888
C    -1.876236  4.935703  1.009864
H    -2.951397  3.181315  0.460373
H    -2.744287  5.517301  1.342696
H    -1.624239  5.223956  -0.017306
H    -1.027175  5.133886  1.667504
Ca    0.726255  1.608224  3.845702
