36
Energy: -39735.2265761 eV PBE+vdW (tier 2 basis)
C    -0.241856  -1.684746  1.169695
C    0.078770  -0.491153  2.004669
O    1.293353  -0.143410  2.191372
H    -0.027734  -1.491086  0.108152
H    -1.275683  -2.025140  1.275444
H    0.436703  -2.492414  1.478494
N    -0.903492  0.233902  2.581482
C    -2.080758  0.685921  1.831598
C    -1.617835  1.926405  0.986928
O    -0.345346  2.075750  0.788947
H    -0.565770  0.901175  3.277251
H    -2.302336  -0.089261  1.081605
C    -3.319132  0.844708  2.718997
C    -3.227260  1.894739  3.838044
C    -4.613943  2.359526  4.345958
N    -5.527122  2.776433  3.266623
C    -5.031415  3.537260  2.220764
N    -4.287798  4.630591  2.591907
N    -5.121373  3.250224  0.945746
H    -3.540648  -0.147739  3.136974
H    -4.158285  1.078183  2.051822
H    -2.684395  2.784100  3.479835
H    -2.667621  1.502656  4.700540
H    -4.477044  3.171122  5.074000
H    -5.122566  1.551894  4.886619
H    -6.150331  2.039337  2.951696
H    -4.162278  5.311895  1.850410
H    -4.504285  5.046047  3.492353
H    -5.705064  2.425156  0.784428
N    -2.479841  2.738651  0.441051
C    -2.080315  3.840818  -0.435642
H    -3.542843  2.754193  0.652868
H    -1.510481  3.467450  -1.294748
H    -2.997251  4.321206  -0.789122
H    -1.471234  4.573904  0.109465
Ca    1.698365  1.703387  1.152507
