27
Energy: -571484.333362 eV PBE+vdW (tier 2 basis)
C    -0.255345  1.504280  -0.505864
C    0.121574  1.107903  0.879775
O    1.389740  1.274338  1.155432
H    -0.027258  2.568509  -0.657609
H    -1.313696  1.313443  -0.712999
H    0.364907  0.939788  -1.217482
N    -0.808329  0.640928  1.699385
C    -0.788356  -0.071501  2.983442
C    -2.094980  -0.969996  2.849904
O    -2.907773  -0.633986  1.991860
H    -1.776448  0.499990  1.313944
H    0.082114  -0.743847  3.048155
C    -0.936599  0.848171  4.259139
C    0.118973  0.747012  5.350672
O    1.395738  0.812550  5.138867
N    -0.263111  0.636483  6.604580
H    -1.922963  0.676230  4.708734
H    -0.954026  1.904739  3.941714
H    -1.243929  0.592899  6.868968
H    0.429770  0.649263  7.354937
N    -2.244504  -2.004683  3.685656
C    -1.325695  -2.527472  4.691602
H    -3.126754  -2.501420  3.559793
H    -1.547520  -2.132863  5.693030
H    -0.282102  -2.311994  4.433396
H    -1.425889  -3.617495  4.727804
Hg    1.855459  1.100733  3.136165
