27
Energy: -571483.84064 eV PBE+vdW (tier 2 basis)
C    0.437246  0.447065  0.545247
C    -0.217207  -0.594994  1.399521
O    0.357344  -1.619370  1.786446
H    0.774400  -0.028607  -0.385861
H    1.335936  0.816986  1.055938
H    -0.222316  1.287704  0.303856
N    -1.536665  -0.392453  1.763686
C    -2.147131  -1.383777  2.629862
C    -3.685051  -1.308494  2.587549
O    -4.423426  -1.205583  3.641715
H    -1.942914  0.534817  1.670355
H    -1.880212  -2.362767  2.190610
C    -1.512764  -1.330925  4.060655
C    -1.188021  -2.692882  4.638990
O    -1.946036  -3.293766  5.493917
N    -0.082632  -3.278383  4.238340
H    -2.123124  -0.755789  4.772312
H    -0.573439  -0.775164  3.968375
H    0.500617  -2.816899  3.530281
H    0.179565  -4.202521  4.581982
N    -4.319700  -1.335570  1.426354
C    -3.792080  -1.408229  0.060768
H    -5.337003  -1.273614  1.515115
H    -2.866776  -1.989219  0.026147
H    -3.615992  -0.404198  -0.347197
H    -4.550511  -1.904510  -0.554415
Hg    -3.961990  -2.459262  5.399698
