27
Energy: -571484.263807 eV PBE+vdW (tier 2 basis)
C    -0.482404  -0.044727  -0.174837
C    -0.361428  -0.192925  1.303131
O    0.621898  -0.931761  1.702914
H    0.420496  0.446368  -0.565119
H    -1.370569  0.526017  -0.468519
H    -0.522337  -1.043748  -0.632487
N    -1.254597  0.415975  2.094913
C    -1.436848  0.322667  3.551599
C    -2.946923  0.557836  3.976381
O    -3.167590  1.424285  4.815357
H    -1.930668  0.998443  1.601664
H    -1.226924  -0.719893  3.853050
C    -0.572272  1.355289  4.341754
C    0.011139  0.812827  5.630952
O    0.989212  -0.045362  5.637397
N    -0.461934  1.222518  6.781705
H    -1.222588  2.214240  4.555555
H    0.268169  1.723569  3.731776
H    -1.246035  1.873436  6.817945
H    -0.071221  0.882904  7.661850
N    -3.885728  -0.225645  3.419755
C    -3.742052  -1.378015  2.530786
H    -4.829255  -0.003203  3.736780
H    -3.764061  -1.089347  1.471070
H    -4.580990  -2.057218  2.713179
H    -2.822816  -1.937712  2.742364
Hg    1.258062  -0.788873  3.691469
