27
Energy: -571483.992428 eV PBE+vdW (tier 2 basis)
C    0.911893  -0.221926  0.571191
C    0.462551  0.702722  1.637768
O    1.200470  1.667322  2.000940
H    0.086306  -0.811372  0.156098
H    1.609845  -0.941189  1.037694
H    1.464444  0.312187  -0.208571
N    -0.737611  0.508754  2.290825
C    -2.070337  0.475985  1.668821
C    -2.153617  1.482774  0.495669
O    -1.539606  2.589805  0.527490
H    -0.718796  0.834458  3.257233
H    -2.288601  -0.535368  1.292998
C    -3.141911  0.781846  2.746883
C    -3.245496  2.172455  3.391911
O    -2.303991  3.009237  3.589040
N    -4.437943  2.479719  3.883155
H    -2.998346  0.066467  3.575594
H    -4.121814  0.537542  2.316732
H    -5.225891  1.838340  3.854777
H    -4.557984  3.352128  4.397379
N    -2.915470  1.143515  -0.534799
C    -3.167942  1.998762  -1.700802
H    -3.311976  0.206313  -0.551376
H    -4.202325  1.852339  -2.027535
H    -2.488981  1.729695  -2.520075
H    -3.005856  3.043908  -1.425194
Hg    -0.391018  3.228584  2.467155
