27
Energy: -571483.879517 eV PBE+vdW (tier 2 basis)
C    -2.316916  -1.300488  -0.673242
C    -1.695970  -1.749640  0.616710
O    -1.748991  -2.997378  0.854530
H    -3.271226  -0.800943  -0.443334
H    -2.498324  -2.156224  -1.328231
H    -1.663053  -0.578102  -1.183580
N    -1.139732  -0.795753  1.390138
C    -0.922427  -0.703235  2.852803
C    0.415955  -1.335833  3.318872
O    0.581748  -2.576032  3.569164
H    -1.230774  0.128910  0.972261
H    -0.801704  0.375962  3.015193
C    -2.128364  -1.118605  3.710321
C    -3.346134  -0.192391  3.419846
O    -3.388174  0.443743  2.366320
N    -4.300602  -0.166349  4.357576
H    -1.850310  -1.062518  4.772693
H    -2.477229  -2.149165  3.521241
H    -4.220126  -0.649242  5.245218
H    -5.118640  0.420510  4.209013
N    1.426232  -0.505912  3.509177
C    2.762630  -0.907787  3.963173
H    1.256630  0.491129  3.392528
H    2.994776  -1.906202  3.581023
H    2.800136  -0.922388  5.060501
H    3.487064  -0.180013  3.585735
Hg    -0.863328  -3.988169  2.631290
