27
Energy: -571484.121034 eV PBE+vdW (tier 2 basis)
C    0.353481  0.403213  0.040823
C    -0.489445  0.263640  1.268608
O    -0.561719  -0.789127  1.921727
H    0.118966  -0.424931  -0.640976
H    1.408252  0.282124  0.325315
H    0.227329  1.356545  -0.482923
N    -1.195250  1.372345  1.681253
C    -2.193125  1.388482  2.739759
C    -1.692505  1.084361  4.180315
O    -2.168625  1.762893  5.192371
H    -1.049111  2.244871  1.182198
H    -2.495865  2.445542  2.788339
C    -3.464329  0.500824  2.415126
C    -4.738682  1.272010  2.114303
O    -5.277596  2.107364  2.937246
N    -5.364179  1.067269  0.972955
H    -3.706301  -0.165826  3.260543
H    -3.210631  -0.172803  1.589353
H    -5.015429  0.416052  0.275006
H    -6.249953  1.537607  0.781940
N    -0.807447  0.150549  4.378504
C    -0.252440  -0.252192  5.670016
H    -0.531450  -0.358955  3.491056
H    0.715964  0.244196  5.822069
H    -0.090081  -1.334930  5.646524
H    -0.929453  0.022305  6.483788
Hg    -4.165376  2.381570  4.769762
