27
Energy: -571484.047106 eV PBE+vdW (tier 2 basis)
C    0.159624  0.235572  0.120149
C    -0.018301  0.178032  1.604060
O    0.788971  0.629954  2.414882
H    1.000930  -0.420668  -0.148106
H    0.446108  1.252749  -0.173322
H    -0.724636  -0.083393  -0.442574
N    -1.174354  -0.460273  2.077181
C    -1.383219  -0.487993  3.513327
C    -2.370851  -1.617021  3.893373
O    -3.055055  -1.674763  4.989736
H    -1.992968  -0.410588  1.470899
H    -0.414136  -0.810490  3.937051
C    -1.691011  0.941667  4.099080
C    -0.782336  1.367275  5.245919
O    -1.142818  1.276716  6.489622
N    0.399475  1.852685  4.962487
H    -2.739756  1.066835  4.411150
H    -1.553674  1.656513  3.279531
H    0.728107  1.832602  3.987340
H    1.041022  2.134258  5.704964
N    -2.486158  -2.624428  3.057663
C    -3.292326  -3.831045  3.285822
H    -1.949853  -2.548826  2.191549
H    -3.193561  -4.154788  4.326885
H    -2.928770  -4.613765  2.614818
H    -4.348329  -3.625576  3.068880
Hg    -2.559122  -0.329239  6.591634
