27
Energy: -571483.999755 eV PBE+vdW (tier 2 basis)
C    0.359317  -1.049735  0.420904
C    -0.185089  -0.013566  1.353987
O    0.521887  0.793003  1.967245
H    1.144097  -1.621108  0.932103
H    0.837354  -0.531328  -0.422576
H    -0.408269  -1.729536  0.035251
N    -1.555537  0.047750  1.530021
C    -2.133054  1.075434  2.382277
C    -1.948818  0.659892  3.868271
O    -2.764891  -0.086459  4.502667
H    -2.133492  -0.722105  1.199710
H    -1.516715  1.977655  2.233060
C    -3.575543  1.350249  1.908979
C    -4.225311  2.586534  2.514128
O    -4.779160  2.584631  3.657649
N    -4.207256  3.713581  1.820177
H    -4.235299  0.491515  2.115819
H    -3.536186  1.456162  0.816923
H    -3.810110  3.770199  0.887035
H    -4.644552  4.552550  2.200629
N    -0.789903  1.011038  4.415322
C    -0.326010  0.593329  5.730842
H    -0.101883  1.431287  3.778186
H    -1.177450  0.303038  6.352396
H    0.231400  1.422199  6.182356
H    0.352520  -0.268022  5.634510
Hg    -4.881107  0.655102  4.869071
