27
Energy: -571483.978469 eV PBE+vdW (tier 2 basis)
C    0.113511  0.336587  0.123541
C    0.168885  0.169041  1.611090
O    1.299541  0.381737  2.154952
H    -0.836759  -0.008837  -0.300245
H    0.951483  -0.199229  -0.337816
H    0.240301  1.404669  -0.110347
N    -0.963288  -0.176098  2.257673
C    -1.246568  -0.048877  3.694062
C    -0.939093  -1.356595  4.473035
O    0.220609  -1.571071  4.985086
H    -1.761869  -0.350721  1.650871
H    -0.550861  0.695449  4.111939
C    -2.653539  0.520462  3.934053
C    -2.795422  0.783061  5.441847
O    -1.897729  0.365416  6.186746
N    -3.882026  1.437636  5.864312
H    -3.452303  -0.159217  3.592853
H    -2.770813  1.447979  3.355059
H    -4.580725  1.813912  5.232993
H    -3.990980  1.623967  6.858456
N    -1.842987  -2.310691  4.547109
C    -1.645994  -3.583561  5.255741
H    -2.779866  -2.109304  4.207749
H    -1.739965  -3.427217  6.338321
H    -0.650714  -3.979935  5.032072
H    -2.410924  -4.287149  4.916875
Hg    1.768097  -0.216414  4.247967
