27
Energy: -571483.808848 eV PBE+vdW (tier 2 basis)
C    -1.544982  1.226754  -0.119421
C    -1.040683  1.139579  1.279607
O    0.122974  1.655472  1.512999
H    -0.802517  0.749029  -0.778778
H    -1.600427  2.278146  -0.433151
H    -2.513346  0.735255  -0.262904
N    -1.788808  0.522659  2.207913
C    -1.388338  -0.145148  3.481811
C    -2.588638  -1.056572  3.880063
O    -3.383470  -0.647376  4.737768
H    -2.710109  0.243714  1.870592
H    -0.494410  -0.744418  3.253855
C    -1.012159  0.710693  4.725437
C    -1.754687  2.004989  5.020285
O    -1.183464  3.160354  4.843553
N    -2.958857  1.950588  5.521088
H    0.063410  0.942887  4.715138
H    -1.143492  0.047469  5.593063
H    -3.395015  1.012994  5.585245
H    -3.475343  2.797337  5.761779
N    -2.731127  -2.231389  3.249230
C    -1.796659  -2.930543  2.363205
H    -3.540810  -2.764113  3.571407
H    -1.054014  -3.501278  2.936882
H    -1.284345  -2.235277  1.689240
H    -2.368262  -3.629808  1.744738
Hg    0.167383  2.955954  3.207849
