27
Energy: -571484.00138 eV PBE+vdW (tier 2 basis)
C    -2.528493  -3.773772  -0.467600
C    -1.651209  -2.910826  0.380358
O    -0.524663  -2.572363  -0.117366
H    -2.647474  -3.293259  -1.449993
H    -3.517980  -3.940714  -0.027521
H    -2.026040  -4.734356  -0.647684
N    -2.093159  -2.537169  1.594794
C    -1.655330  -1.409431  2.444430
C    -0.694789  -1.897904  3.557898
O    0.266423  -2.717840  3.266917
H    -2.974456  -2.965380  1.873858
H    -1.060266  -0.729612  1.807340
C    -2.963275  -0.672249  2.859279
C    -2.826979  0.622377  3.661983
O    -2.239618  0.624184  4.765013
N    -3.398518  1.722691  3.172529
H    -3.578872  -1.346223  3.477558
H    -3.521151  -0.486664  1.932897
H    -3.939481  1.732278  2.315195
H    -3.384631  2.573360  3.732788
N    -0.855539  -1.505932  4.793550
C    0.040895  -1.827802  5.897826
H    -1.587791  -0.720612  4.952491
H    1.042958  -2.074419  5.534932
H    -0.360515  -2.688606  6.453254
H    0.064534  -0.966839  6.575244
Hg    1.193418  -2.468922  1.297031
