27
Energy: -571484.286894 eV PBE+vdW (tier 2 basis)
C    -0.646653  -0.585504  0.363312
C    -0.064278  -0.380689  1.725658
O    1.146786  0.047488  1.746553
H    -0.017078  -1.285769  -0.201112
H    -0.622832  0.373255  -0.175648
H    -1.679636  -0.948579  0.403232
N    -0.825637  -0.637149  2.797361
C    -0.597128  -0.251889  4.202498
C    0.163814  -1.352356  4.990861
O    1.434849  -1.214723  5.233063
H    -1.716744  -1.107313  2.625897
H    0.075614  0.619337  4.199932
C    -1.899622  0.275471  4.854066
C    -3.097426  -0.666047  4.721522
O    -2.913590  -1.867690  4.427709
N    -4.309317  -0.151533  4.925075
H    -2.126541  1.257073  4.414308
H    -1.707055  0.454345  5.923441
H    -4.466886  0.825821  5.148143
H    -5.119828  -0.766571  4.888518
N    -0.487153  -2.396760  5.425652
C    0.087138  -3.525658  6.154631
H    -1.512657  -2.388585  5.175444
H    -0.434757  -4.435942  5.840908
H    -0.070224  -3.385710  7.233289
H    1.159906  -3.603466  5.956749
Hg    2.360937  -0.218858  3.542940
