27
Energy: -571483.718872 eV PBE+vdW (tier 2 basis)
C    -0.211445  1.218814  0.406263
C    -0.466376  1.073710  1.865123
O    -0.417920  2.076868  2.673978
H    -0.879837  1.993272  0.004578
H    -0.350708  0.285158  -0.147588
H    0.816317  1.577563  0.246151
N    -0.818126  -0.111854  2.355357
C    -1.008696  -0.504086  3.748386
C    -0.368594  0.419849  4.782600
O    0.896494  0.633002  4.750621
H    -0.933649  -0.960013  1.727863
H    -2.092647  -0.575282  3.926710
C    -0.373190  -1.917536  3.964555
C    -0.792888  -2.930979  2.891441
O    -0.917379  -2.566324  1.702771
N    -0.967125  -4.195478  3.269174
H    -0.628660  -2.274783  4.970432
H    0.722880  -1.828829  3.912885
H    -0.864772  -4.502611  4.230032
H    -1.182306  -4.898205  2.564258
N    -1.084965  0.849810  5.813283
C    -2.517475  0.705563  6.082960
H    -0.532701  1.323596  6.531498
H    -3.100671  0.816709  5.161552
H    -2.813344  1.495226  6.780283
H    -2.735276  -0.266468  6.546806
Hg    1.551737  2.527729  3.633328
