27
Energy: -571484.19746 eV PBE+vdW (tier 2 basis)
C    -0.143358  -0.065683  -0.260671
C    -0.600726  0.394594  1.086838
O    -0.745284  1.542932  1.443718
H    0.956302  -0.138728  -0.251131
H    -0.413665  0.686735  -1.008524
H    -0.544980  -1.045907  -0.544309
N    -0.881400  -0.666026  2.038403
C    -0.881560  -0.316626  3.472965
C    -1.127902  -1.624005  4.260423
O    -2.069171  -2.434067  3.942009
H    -0.332588  -1.507837  1.837322
H    0.109911  0.068288  3.755861
C    -1.931126  0.786572  3.906050
C    -2.978293  1.323988  2.938633
O    -3.764063  0.589704  2.230932
N    -3.188525  2.624747  2.914574
H    -1.357517  1.633169  4.296081
H    -2.517297  0.404861  4.761569
H    -2.565489  3.282922  3.372645
H    -3.937736  3.004959  2.337078
N    -0.350892  -1.881507  5.291627
C    -0.476418  -3.048225  6.176425
H    0.422244  -1.242349  5.470952
H    -1.491633  -3.447989  6.113510
H    -0.258080  -2.731444  7.201358
H    0.242467  -3.820865  5.874882
Hg    -3.315184  -1.523915  2.361935
