27
Energy: -571484.700023 eV PBE+vdW (tier 2 basis)
C    1.182978  -1.977283  1.408949
C    0.610370  -0.704880  1.950737
O    1.384676  0.307921  1.889545
H    1.476482  -1.812746  0.362925
H    0.488565  -2.822744  1.463601
H    2.099503  -2.220594  1.964146
N    -0.645439  -0.755754  2.443435
C    -1.585251  0.225111  3.048995
C    -2.013097  1.297119  2.021146
O    -1.194864  2.133414  1.563841
H    -1.045750  -1.687682  2.371009
H    -2.466720  -0.391780  3.254252
C    -1.121848  0.748363  4.479930
C    -1.138100  2.241546  4.794855
O    -0.259317  3.061257  4.352055
N    -2.058908  2.710607  5.619218
H    -0.095842  0.403340  4.678471
H    -1.739717  0.226926  5.220827
H    -2.042489  3.696207  5.883404
H    -2.737011  2.111580  6.080074
N    -3.287389  1.274667  1.637284
C    -3.855082  2.201806  0.652382
H    -3.896455  0.540567  1.987596
H    -4.886931  2.430881  0.936397
H    -3.846134  1.745391  -0.345895
H    -3.258439  3.117643  0.634281
Hg    0.850206  2.192118  2.727539
