27
Energy: -571483.957787 eV PBE+vdW (tier 2 basis)
C    -0.233196  0.205157  0.159033
C    -0.268377  0.067264  1.649052
O    0.814080  0.187738  2.286969
H    0.565389  -0.429540  -0.244305
H    0.020609  1.245258  -0.091997
H    -1.190012  -0.056157  -0.307834
N    -1.470938  -0.181987  2.244459
C    -1.553287  -0.179479  3.687067
C    -1.206009  -1.543170  4.330534
O    -0.112301  -1.647406  4.979604
H    -2.289150  -0.274348  1.648178
H    -0.682991  0.428757  3.927229
C    -2.613268  0.650247  4.414554
C    -1.914514  1.474976  5.534175
O    -0.665997  1.557290  5.673021
N    -2.720633  2.140835  6.353587
H    -3.418157  0.055263  4.864775
H    -3.082344  1.361421  3.717626
H    -3.729712  2.146370  6.240185
H    -2.322823  2.724175  7.087245
N    -1.999881  -2.593787  4.228742
C    -3.305559  -2.700979  3.577434
H    -1.643621  -3.443062  4.673766
H    -4.032060  -3.113580  4.287443
H    -3.232571  -3.373614  2.713374
H    -3.662631  -1.723187  3.243259
Hg    1.199428  0.195841  4.673049
