27
Energy: -571484.332928 eV PBE+vdW (tier 2 basis)
C    0.257080  1.344690  -0.024958
C    0.212051  0.812005  1.365486
O    1.383091  0.486081  1.849557
H    0.885578  2.245667  -0.052483
H    -0.743034  1.571978  -0.409090
H    0.738328  0.599117  -0.674846
N    -0.953140  0.713280  1.987736
C    -1.422250  0.022070  3.195555
C    -2.921464  -0.318789  2.784701
O    -3.389940  0.313410  1.840975
H    -1.821288  0.952686  1.444900
H    -0.884320  -0.928543  3.340175
C    -1.446219  0.906765  4.503943
C    -0.711509  0.396894  5.735292
O    0.516669  -0.016495  5.732596
N    -1.322602  0.413415  6.900079
H    -2.489740  1.109136  4.777338
H    -1.019149  1.898369  4.276479
H    -2.281444  0.735711  7.002974
H    -0.817283  0.151347  7.748169
N    -3.583865  -1.237772  3.497521
C    -3.112926  -2.085444  4.587966
H    -4.549640  -1.365290  3.194232
H    -3.346938  -1.654830  5.571630
H    -2.035110  -2.272911  4.514628
H    -3.610522  -3.058571  4.517787
Hg    1.395584  0.115023  3.857661
