27
Energy: -571484.545743 eV PBE+vdW (tier 2 basis)
C    -1.306301  0.666774  0.395485
C    -0.709176  0.811857  1.761333
O    0.361913  1.458581  1.888200
H    -0.594947  0.129719  -0.246711
H    -1.431095  1.667286  -0.040649
H    -2.270200  0.146458  0.389499
N    -1.385026  0.248349  2.796598
C    -1.124790  0.325035  4.240786
C    -0.700528  1.745542  4.705145
O    0.501652  2.060847  4.988313
H    -2.240286  -0.236166  2.537657
H    -2.115271  0.179903  4.691212
C    -0.259786  -0.827688  4.875448
C    0.730412  -1.594787  4.012100
O    1.749131  -1.076180  3.452858
N    0.549103  -2.900738  3.877706
H    -0.959450  -1.547313  5.315790
H    0.314170  -0.418110  5.722407
H    -0.213562  -3.395836  4.328768
H    1.240583  -3.455120  3.373473
N    -1.648084  2.650263  4.898710
C    -3.105568  2.503667  4.814816
H    -1.293731  3.554034  5.219959
H    -3.493318  1.908522  5.652804
H    -3.403738  2.060856  3.858197
H    -3.544841  3.503466  4.876808
Hg    1.925733  1.130777  3.540288
