27
Energy: -571484.43978 eV PBE+vdW (tier 2 basis)
C    -0.783570  1.138747  -0.335445
C    -0.287392  0.650547  0.981550
O    1.008104  0.478306  1.034138
H    -0.476898  0.426647  -1.115747
H    -0.306692  2.099452  -0.574093
H    -1.873471  1.245907  -0.348709
N    -1.149725  0.433533  1.963640
C    -1.080933  -0.245425  3.262684
C    -2.576711  -0.760943  3.423042
O    -3.434759  -0.178330  2.766521
H    -2.169037  0.579918  1.767293
H    -0.418528  -1.125818  3.213226
C    -0.739407  0.700728  4.483073
C    0.400892  0.278414  5.395168
O    1.603082  0.030638  4.977716
N    0.195136  0.190212  6.691278
H    -1.646242  0.845548  5.083562
H    -0.482932  1.706229  4.108563
H    -0.710496  0.390635  7.108335
H    0.969725  -0.026437  7.321102
N    -2.776722  -1.745845  4.304223
C    -4.111025  -2.301254  4.577493
H    -1.976421  -2.248063  4.676581
H    -4.861464  -1.528593  4.389741
H    -4.158431  -2.616480  5.624394
H    -4.309689  -3.161835  3.926507
Hg    1.764608  0.197564  2.913160
