27
Energy: -571483.885597 eV PBE+vdW (tier 2 basis)
C    0.637331  0.554956  1.246926
C    -0.217351  0.875003  2.415339
O    0.123318  1.797491  3.218551
H    1.670376  0.421827  1.607143
H    0.671587  1.418143  0.565159
H    0.321565  -0.352677  0.724676
N    -1.378023  0.183797  2.668392
C    -2.502069  0.013743  1.737044
C    -2.734883  1.303366  0.917594
O    -2.478351  2.448944  1.400356
H    -1.635170  0.191739  3.655448
H    -2.302409  -0.821688  1.051408
C    -3.771188  -0.363038  2.540929
C    -4.397613  0.643565  3.518996
O    -3.799952  1.565909  4.162294
N    -5.682713  0.450776  3.784289
H    -3.539079  -1.266771  3.130719
H    -4.545740  -0.670828  1.826766
H    -6.216127  -0.319427  3.390315
H    -6.141204  1.031262  4.486190
N    -3.220513  1.205686  -0.313615
C    -3.498595  -0.002407  -1.102629
H    -3.392081  2.105014  -0.766199
H    -3.744609  0.314152  -2.119933
H    -4.356869  -0.557204  -0.703560
H    -2.619902  -0.656430  -1.157011
Hg    -1.928733  2.704097  3.653414
