27
Energy: -571484.398997 eV PBE+vdW (tier 2 basis)
C    -0.824702  0.360412  -0.621134
C    -0.389172  0.398302  0.803759
O    0.868931  0.627370  0.988030
H    -0.649654  1.344655  -1.078990
H    -1.878760  0.082312  -0.732183
H    -0.197504  -0.358448  -1.167982
N    -1.297388  0.186647  1.769476
C    -1.116690  0.044717  3.223060
C    -2.202356  -0.893759  3.891784
O    -2.628907  -0.553021  4.989611
H    -2.257805  0.099086  1.436470
H    -0.169646  -0.500548  3.389872
C    -1.148005  1.402812  3.997385
C    -0.135492  1.485659  5.124882
O    1.135579  1.648061  4.896515
N    -0.538648  1.410689  6.367477
H    -2.160466  1.536613  4.396098
H    -0.949385  2.250643  3.321848
H    -1.519546  1.225393  6.578096
H    0.124088  1.477230  7.141256
N    -2.546246  -1.999170  3.217313
C    -3.497460  -2.981832  3.755567
H    -2.036862  -2.253578  2.376538
H    -2.978684  -3.722973  4.376749
H    -3.993535  -3.486191  2.921172
H    -4.240824  -2.460706  4.365374
Hg    1.522141  1.268623  2.869954
