26
Energy: -18086.9029592 eV PBE+vdW (tier 2 basis)
C    -0.145576  -0.125640  -0.070376
C    -0.066852  -0.689198  1.338774
O    0.655153  -1.644496  1.611930
H    0.873167  0.016999  -0.448476
H    -0.696318  0.820028  -0.148440
H    -0.632997  -0.869043  -0.714794
N    -0.859426  -0.041755  2.254144
C    -1.166065  -0.399875  3.644615
C    -0.469875  0.484949  4.708122
O    -1.161448  0.920761  5.642854
H    -1.394603  0.741373  1.898212
H    -2.221098  -0.119966  3.772134
C    -1.063669  -1.909810  3.956799
C    -1.955223  -2.475376  5.074483
O    -2.135818  -3.688616  5.131224
N    -2.522342  -1.599444  5.948514
H    -0.032390  -2.209618  4.182276
H    -1.336361  -2.476917  3.059754
H    -2.234923  -0.617656  6.004546
H    -3.047681  -2.005193  6.714307
N    0.852820  0.766393  4.648723
C    1.880309  0.328929  3.716312
H    1.143393  1.367071  5.415528
H    2.018772  1.047416  2.893915
H    1.640947  -0.646750  3.280901
H    2.827960  0.238280  4.260051
