26
Energy: -18086.9506179 eV PBE+vdW (tier 2 basis)
C    -1.146800  -2.723822  2.391547
C    -0.476356  -1.375526  2.191797
O    0.734091  -1.225280  2.319411
H    -1.843337  -2.701017  3.239694
H    -0.360435  -3.454033  2.598884
H    -1.700934  -3.046781  1.498299
N    -1.275130  -0.311476  1.843298
C    -2.706592  -0.265645  1.644969
C    -2.975248  0.591559  0.392983
O    -2.520805  1.728119  0.299737
H    -0.782499  0.573156  1.734635
H    -3.069471  -1.290502  1.486962
C    -3.490321  0.369222  2.831237
C    -3.461319  -0.513712  4.069483
O    -2.519472  -0.534168  4.850104
N    -4.539019  -1.359363  4.204217
H    -4.523042  0.562960  2.503480
H    -3.027134  1.332023  3.076282
H    -5.396887  -1.205733  3.690676
H    -4.591481  -1.910565  5.053597
N    -3.756097  0.003840  -0.557387
C    -4.098653  0.661656  -1.806320
H    -4.023422  -0.963976  -0.426229
H    -5.185376  0.663096  -1.963437
H    -3.613222  0.173115  -2.662799
H    -3.742042  1.694853  -1.742118
