26
Energy: -18087.1684066 eV PBE+vdW (tier 2 basis)
C    0.301184  0.078222  0.310558
C    -0.006582  0.287937  1.776715
O    0.829098  0.783731  2.539612
H    0.952019  0.884656  -0.040920
H    -0.592837  0.022445  -0.323083
H    0.849970  -0.870179  0.220664
N    -1.259163  -0.107222  2.164936
C    -1.770665  -0.472175  3.497395
C    -1.608800  0.494141  4.698754
O    -2.258731  0.230592  5.717141
H    -1.813437  -0.506724  1.415252
H    -2.862883  -0.500017  3.374636
C    -1.351677  -1.908163  3.909534
C    0.156397  -2.086820  4.045620
O    0.845637  -2.529323  3.131008
N    0.674537  -1.713570  5.252416
H    -1.688753  -2.614864  3.142052
H    -1.871810  -2.134604  4.849477
H    0.100657  -1.274182  5.962300
H    1.682170  -1.685176  5.351136
N    -0.796459  1.559119  4.568665
C    -0.586435  2.468124  5.680449
H    -0.090002  1.497172  3.815802
H    -0.131287  3.390566  5.303981
H    0.072677  2.036386  6.450860
H    -1.545732  2.701960  6.155561
