26
Energy: -18087.2808347 eV PBE+vdW (tier 2 basis)
C    -2.658657  -1.956294  1.334108
C    -2.561678  -0.940612  2.455261
O    -3.418147  -0.825080  3.322814
H    -3.685360  -1.970174  0.952579
H    -2.447027  -2.951804  1.747546
H    -1.963454  -1.767779  0.506299
N    -1.434305  -0.140651  2.428268
C    -1.062190  0.696529  3.563782
C    -1.380055  2.191854  3.352843
O    -1.005169  3.042373  4.170055
H    -0.704687  -0.373397  1.762697
H    -1.720376  0.375782  4.388592
C    0.421767  0.468491  3.947403
C    0.748731  0.455788  5.451451
O    1.353644  -0.491364  5.949246
N    0.339965  1.546398  6.143493
H    1.060346  1.217669  3.454347
H    0.728125  -0.521797  3.592776
H    -0.149950  2.306423  5.659758
H    0.531958  1.583325  7.136618
N    -2.094108  2.492514  2.246337
C    -2.558577  3.831921  1.942395
H    -2.380813  1.711739  1.665821
H    -3.650695  3.905633  2.042524
H    -2.274209  4.119604  0.921777
H    -2.091080  4.519909  2.654212
