26
Energy: -18087.0295306 eV PBE+vdW (tier 2 basis)
C    -0.005115  -0.507606  -0.074743
C    0.283964  -0.317464  1.403651
O    1.427928  -0.311694  1.852662
H    0.943850  -0.696099  -0.582729
H    -0.472531  0.387915  -0.509764
H    -0.685120  -1.351738  -0.256268
N    -0.797878  -0.141788  2.231188
C    -2.178755  0.026571  1.831149
C    -2.618426  1.382938  1.214946
O    -3.677863  1.399045  0.582448
H    -0.580663  0.045376  3.210732
H    -2.413814  -0.690427  1.032083
C    -3.131778  -0.299440  3.003353
C    -2.989203  0.702526  4.141381
O    -1.926256  0.852881  4.747659
N    -4.103097  1.426783  4.433494
H    -2.878929  -1.293699  3.396278
H    -4.154471  -0.330921  2.610613
H    -4.040724  2.143663  5.147217
H    -4.931809  1.383154  3.855463
N    -1.876984  2.514620  1.367342
C    -0.681611  2.811510  2.156980
H    -2.310691  3.297481  0.886560
H    0.232441  2.399526  1.710407
H    -0.769893  2.446962  3.186323
H    -0.579603  3.901824  2.194788
