26
Energy: -18087.1696819 eV PBE+vdW (tier 2 basis)
C    1.045901  1.259972  3.898535
C    -0.401811  1.548160  3.570483
O    -0.827703  2.702687  3.448823
H    1.266747  0.193073  4.022032
H    1.311055  1.791952  4.820378
H    1.674909  1.664838  3.095806
N    -1.205314  0.458058  3.408733
C    -2.638882  0.549248  3.128526
C    -3.376542  -0.306457  4.184016
O    -3.761673  -1.446154  3.934242
H    -0.799484  -0.469280  3.477453
H    -2.896753  1.607014  3.270407
C    -3.005999  0.103987  1.713729
C    -2.476523  0.917551  0.528995
O    -2.508825  0.436637  -0.600273
N    -2.056872  2.194362  0.768985
H    -4.102776  0.106326  1.620860
H    -2.708808  -0.938832  1.548984
H    -1.811862  2.541130  1.697596
H    -1.683050  2.693153  -0.030627
N    -3.562090  0.259685  5.413935
C    -3.015195  1.500054  5.940222
H    -3.985659  -0.383116  6.077596
H    -1.993835  1.374036  6.333083
H    -3.659419  1.856627  6.752076
H    -2.982540  2.280286  5.172406
