26
Energy: -18087.3048042 eV PBE+vdW (tier 2 basis)
C    -0.597738  1.522185  0.522743
C    -0.532516  0.978393  1.936903
O    -0.131302  1.642743  2.886926
H    -1.403420  2.266958  0.473149
H    -0.787219  0.751089  -0.233373
H    0.341042  2.039359  0.294258
N    -0.943714  -0.332018  2.078140
C    -1.225526  -0.868421  3.404253
C    0.002577  -1.393928  4.181577
O    -0.119986  -1.731277  5.357747
H    -1.530268  -0.715401  1.333287
H    -1.631385  -0.063602  4.038284
C    -2.240476  -2.027337  3.307466
C    -3.502667  -1.615092  2.568739
O    -3.498626  -1.409504  1.351976
N    -4.621467  -1.463503  3.327039
H    -2.434559  -2.381129  4.326688
H    -1.791544  -2.856300  2.741154
H    -4.617154  -1.616043  4.326279
H    -5.475979  -1.152519  2.880174
N    1.147788  -1.485186  3.464254
C    2.409109  -1.891820  4.048883
H    1.121158  -1.112695  2.520863
H    2.882179  -2.680461  3.448568
H    2.202425  -2.278408  5.052592
H    3.103267  -1.043082  4.133430
