26
Energy: -18087.2212976 eV PBE+vdW (tier 2 basis)
C    -1.179211  0.858584  -0.109409
C    -0.578548  0.061538  1.027833
O    0.585690  -0.326197  1.030275
H    -0.387263  1.054617  -0.836489
H    -1.596559  1.814593  0.237078
H    -1.989631  0.291862  -0.588961
N    -1.392942  -0.208306  2.115146
C    -2.825753  0.001284  2.245547
C    -3.218005  0.985068  3.374774
O    -4.382380  1.068689  3.761887
H    -0.945749  -0.830592  2.785953
H    -3.179220  0.463955  1.312759
C    -3.599138  -1.309181  2.395920
C    -3.679226  -2.066980  1.074373
O    -3.643450  -1.501467  -0.014680
N    -3.816905  -3.419351  1.186276
H    -3.160864  -1.932043  3.191187
H    -4.621989  -1.057359  2.716659
H    -3.892664  -3.881795  2.081950
H    -3.953747  -3.962469  0.342373
N    -2.197798  1.746879  3.846613
C    -2.382637  2.774603  4.851253
H    -1.279935  1.581025  3.446465
H    -3.432689  2.750700  5.162096
H    -2.153161  3.771368  4.448936
H    -1.744227  2.590977  5.726187
