26
Energy: -18087.1665946 eV PBE+vdW (tier 2 basis)
C    0.012647  -0.724435  0.145132
C    -0.124426  0.335142  1.219206
O    0.670057  1.262368  1.324422
H    1.064672  -0.770528  -0.150811
H    -0.573764  -0.422306  -0.733898
H    -0.330051  -1.719895  0.450554
N    -1.182871  0.233355  2.110079
C    -2.343289  -0.656362  2.063423
C    -1.984468  -2.129732  2.394515
O    -2.678933  -3.070269  1.996526
H    -1.268663  1.064730  2.688724
H    -2.970727  -0.333311  2.910022
C    -3.205872  -0.537887  0.779550
C    -4.713537  -0.600747  1.058310
O    -5.411103  0.410343  1.033848
N    -5.192369  -1.844948  1.326692
H    -2.921784  -1.315918  0.059013
H    -3.027126  0.445297  0.333196
H    -4.532290  -2.606054  1.492240
H    -6.162296  -1.932697  1.604549
N    -0.897410  -2.285511  3.184714
C    -0.422866  -3.578380  3.638980
H    -0.366404  -1.446889  3.397957
H    -0.360435  -3.607650  4.734894
H    0.567775  -3.806188  3.221328
H    -1.134920  -4.337398  3.299482
