26
Energy: -18087.0916907 eV PBE+vdW (tier 2 basis)
C    0.047049  -0.033252  0.786930
C    -0.163483  0.310104  2.249674
O    0.754534  0.656255  2.985859
H    -0.466088  0.683853  0.130055
H    -0.326648  -1.035163  0.534711
H    1.120026  0.013954  0.585090
N    -1.453739  0.240880  2.733165
C    -2.632211  -0.279686  2.052249
C    -3.845581  0.575246  2.484157
O    -4.688479  0.152087  3.280651
H    -1.521591  0.398875  3.736259
H    -2.476616  -0.150752  0.972394
C    -2.872679  -1.774140  2.332574
C    -3.861445  -2.382134  1.337130
O    -3.492839  -2.802825  0.243115
N    -5.158133  -2.412914  1.758436
H    -3.206391  -1.897984  3.370722
H    -1.922682  -2.303280  2.197020
H    -5.432671  -1.830388  2.545087
H    -5.863616  -2.690754  1.085704
N    -3.925867  1.829280  1.965258
C    -3.001543  2.485763  1.053202
H    -4.709156  2.366585  2.323569
H    -3.434561  3.446804  0.758162
H    -2.852015  1.896735  0.137682
H    -2.023372  2.672159  1.518031
