26
Energy: -18087.5737516 eV PBE+vdW (tier 2 basis)
C    -0.088385  -0.125532  -0.071218
C    -0.452257  -0.094429  1.397586
O    0.378134  0.191422  2.272391
H    0.728941  -0.842984  -0.215958
H    0.288254  0.862153  -0.365231
H    -0.927066  -0.398449  -0.722301
N    -1.745763  -0.380658  1.698223
C    -2.189827  -0.485737  3.067398
C    -3.591817  -1.130194  3.059000
O    -4.087975  -1.542608  2.006275
H    -2.412482  -0.736137  1.012036
H    -1.513498  -1.180476  3.596607
C    -2.153161  0.882406  3.811973
C    -1.614078  0.655606  5.212981
O    -2.346131  0.303035  6.145399
N    -0.268768  0.801620  5.322631
H    -3.155751  1.320151  3.878027
H    -1.507486  1.566008  3.252654
H    0.285645  0.822391  4.466980
H    0.172966  0.491120  6.180904
N    -4.176490  -1.202943  4.275168
C    -5.495229  -1.773344  4.474813
H    -3.697549  -0.768772  5.073440
H    -5.468460  -2.536340  5.263933
H    -5.816206  -2.235991  3.536128
H    -6.225075  -1.001068  4.757668
