26
Energy: -18086.8160926 eV PBE+vdW (tier 2 basis)
C    0.754799  0.968072  0.373705
C    0.540161  0.796924  1.868371
O    1.449254  0.989329  2.674112
H    1.214481  1.947215  0.195621
H    -0.159774  0.884422  -0.226215
H    1.468240  0.205391  0.035766
N    -0.729001  0.417471  2.220470
C    -1.262069  0.035119  3.533208
C    -2.211043  1.096747  4.150415
O    -3.380792  0.786356  4.372219
H    -1.384141  0.294218  1.457333
H    -1.949529  -0.798892  3.336948
C    -0.216769  -0.495366  4.536915
C    -0.922508  -1.269975  5.652228
O    -1.262646  -2.438708  5.517224
N    -1.125492  -0.568769  6.810189
H    0.419234  0.302939  4.932364
H    0.434002  -1.209420  4.019815
H    -1.013405  0.437101  6.832564
H    -1.726202  -0.991439  7.508915
N    -1.737993  2.331611  4.503202
C    -0.496399  3.001136  4.144514
H    -2.488140  2.920787  4.856390
H    -0.224194  3.702042  4.943445
H    -0.592012  3.567205  3.204074
H    0.324393  2.287611  4.019217
