26
Energy: -18086.7020309 eV PBE+vdW (tier 2 basis)
C    -0.674950  -0.583812  -0.427809
C    -0.125800  -0.013705  0.863523
O    0.922707  0.629328  0.864915
H    0.118286  -0.505804  -1.176083
H    -1.535613  0.005012  -0.772104
H    -1.000185  -1.626579  -0.348785
N    -0.798018  -0.170257  2.061261
C    -1.968496  -0.899415  2.563791
C    -1.591814  -2.027099  3.556201
O    -2.242335  -2.131123  4.606838
H    -0.286667  0.317867  2.794151
H    -2.495921  -0.183460  3.211844
C    -2.985697  -1.366003  1.506760
C    -4.441404  -1.638639  1.934841
O    -5.286699  -1.777525  1.055415
N    -4.724685  -1.683014  3.261965
H    -2.652087  -2.273457  0.985456
H    -3.081495  -0.588158  0.740445
H    -3.989109  -1.763832  3.971711
H    -5.678311  -1.921283  3.509799
N    -0.576453  -2.888589  3.295036
C    0.266649  -3.038976  2.116882
H    -0.449647  -3.560581  4.046138
H    1.004856  -2.232597  2.022616
H    -0.326308  -3.087137  1.195507
H    0.803241  -3.989045  2.208633
