26
Energy: -18087.4361084 eV PBE+vdW (tier 2 basis)
C    -0.974478  1.503051  0.206451
C    -1.259744  0.743238  1.488628
O    -1.258542  1.322955  2.584751
H    0.026477  1.946234  0.282014
H    -1.690643  2.329508  0.119393
H    -1.026298  0.885686  -0.697887
N    -1.534956  -0.575027  1.318829
C    -1.700299  -1.624120  2.328949
C    -2.304859  -2.817020  1.539814
O    -1.780565  -3.123914  0.463285
H    -1.433010  -0.977077  0.387805
H    -0.695277  -1.982466  2.621817
C    -2.384034  -1.204674  3.642499
C    -3.813951  -0.688844  3.521527
O    -4.780808  -1.464539  3.503717
N    -3.935201  0.654306  3.460115
H    -1.751893  -0.454130  4.127490
H    -2.415488  -2.091277  4.289289
H    -3.095377  1.222940  3.330649
H    -4.855292  1.053014  3.316167
N    -3.343941  -3.472857  2.095532
C    -3.960517  -4.592826  1.402894
H    -3.911885  -2.968599  2.792767
H    -4.612955  -5.124527  2.103430
H    -3.184693  -5.274727  1.037488
H    -4.555770  -4.263309  0.537588
