26
Energy: -18087.2918338 eV PBE+vdW (tier 2 basis)
C    -1.604820  -1.705334  0.422205
C    -0.461380  -0.753153  0.728707
O    0.714217  -1.085442  0.618921
H    -2.163668  -1.958824  1.334870
H    -1.176315  -2.622353  0.010226
H    -2.319475  -1.281644  -0.296902
N    -0.799901  0.524048  1.123129
C    -2.131256  1.047075  1.372786
C    -2.795663  1.753941  0.161539
O    -3.911510  2.264964  0.278446
H    -0.019691  1.122933  1.406180
H    -2.808397  0.221385  1.633533
C    -2.123278  2.026854  2.567530
C    -1.236277  3.228940  2.266173
O    -0.007794  3.137501  2.247105
N    -1.894616  4.390068  1.995177
H    -1.714761  1.515417  3.447659
H    -3.158075  2.321592  2.773124
H    -1.348474  5.181836  1.674867
H    -2.892808  4.388730  1.822090
N    -2.060876  1.759637  -0.974731
C    -2.506307  2.387467  -2.202289
H    -1.135337  1.344880  -0.918347
H    -1.858067  3.232458  -2.473508
H    -3.524517  2.756529  -2.038869
H    -2.512955  1.667493  -3.031620
