26
Energy: -18087.0179961 eV PBE+vdW (tier 2 basis)
C    0.582724  -0.360986  0.579160
C    0.209483  -1.229134  1.769103
O    1.019198  -1.979622  2.304825
H    1.612721  -0.595976  0.299244
H    0.521256  0.706851  0.835918
H    -0.072218  -0.529810  -0.286501
N    -1.083884  -1.146498  2.230938
C    -2.132627  -0.242877  1.803284
C    -3.037007  -0.026956  3.044436
O    -2.926257  -0.766371  4.023200
H    -1.269869  -1.577510  3.140682
H    -1.702863  0.726805  1.505700
C    -2.940494  -0.792594  0.586548
C    -3.985588  -1.836872  0.971488
O    -5.184824  -1.572513  0.984905
N    -3.490174  -3.067387  1.292295
H    -2.222176  -1.209377  -0.132293
H    -3.479819  0.016711  0.084897
H    -4.130525  -3.734245  1.708362
H    -2.498081  -3.193034  1.459975
N    -3.937446  0.988678  3.018839
C    -4.307137  1.857743  1.913948
H    -4.550510  0.981508  3.829119
H    -4.762468  2.767230  2.321824
H    -5.024418  1.376503  1.232264
H    -3.420847  2.165107  1.345394
