26
Energy: -18087.070425 eV PBE+vdW (tier 2 basis)
C    -0.919092  -1.370068  1.239020
C    -0.388385  -0.949600  2.598652
O    0.514634  -1.561710  3.162758
H    -0.638167  -0.632198  0.472775
H    -2.010892  -1.475342  1.211002
H    -0.455373  -2.326234  0.983254
N    -0.944648  0.163720  3.184179
C    -1.988366  1.026067  2.677379
C    -1.589764  2.484591  2.970193
O    -0.899959  2.759374  3.950474
H    -0.464100  0.512098  4.013819
H    -2.102873  0.865386  1.598468
C    -3.358877  0.757776  3.365295
C    -3.932968  -0.577790  2.912941
O    -4.547728  -0.687393  1.854583
N    -3.691475  -1.634146  3.741385
H    -4.083216  1.529931  3.077133
H    -3.214285  0.813624  4.452990
H    -3.948062  -2.560675  3.419938
H    -3.037589  -1.558669  4.510137
N    -2.086259  3.439844  2.136292
C    -2.802097  3.246561  0.882573
H    -1.800834  4.382245  2.384622
H    -2.147230  2.878960  0.077556
H    -3.214517  4.211311  0.569109
H    -3.642741  2.550016  0.994760
