26
Energy: -18087.1169911 eV PBE+vdW (tier 2 basis)
C    -0.046831  -0.695685  0.224502
C    -0.177800  -0.738853  1.735756
O    0.753049  -1.082527  2.455141
H    1.016996  -0.740188  -0.023023
H    -0.489367  0.206235  -0.219622
H    -0.542087  -1.566236  -0.228808
N    -1.405746  -0.421091  2.290457
C    -2.522351  0.255351  1.646676
C    -3.291533  0.981957  2.786068
O    -2.729205  1.229764  3.852158
H    -1.355042  -0.207785  3.291564
H    -2.155584  1.059898  0.983465
C    -3.405816  -0.679533  0.784696
C    -4.330588  -1.597831  1.581566
O    -5.554304  -1.524739  1.478355
N    -3.701629  -2.484436  2.400999
H    -2.754646  -1.281688  0.137179
H    -4.043823  -0.089664  0.115087
H    -2.706014  -2.397891  2.582325
H    -4.270550  -3.039611  3.029761
N    -4.563536  1.357078  2.503508
C    -5.394844  2.012909  3.500761
H    -5.041825  0.903102  1.731302
H    -6.150957  2.624996  2.996700
H    -4.761719  2.652547  4.123146
H    -5.899846  1.284409  4.152531
