26
Energy: -18087.5837356 eV PBE+vdW (tier 2 basis)
C    0.508674  -0.087821  0.734521
C    -0.337797  -1.044489  1.544499
O    -0.284107  -2.272450  1.369258
H    1.566104  -0.324655  0.908201
H    0.332788  0.965720  0.980570
H    0.308808  -0.250632  -0.331628
N    -1.159024  -0.475736  2.461957
C    -1.920278  -1.233950  3.454468
C    -3.234465  -1.861730  2.897691
O    -4.339559  -1.627172  3.404647
H    -1.155162  0.538150  2.592944
H    -1.289013  -2.078315  3.778308
C    -2.209244  -0.332421  4.665333
C    -2.781419  1.020622  4.243095
O    -2.036839  1.929502  3.856948
N    -4.132286  1.134804  4.313626
H    -1.268066  -0.129155  5.190027
H    -2.888183  -0.863124  5.341184
H    -4.665489  0.265364  4.282149
H    -4.542318  1.965167  3.898920
N    -3.031261  -2.700666  1.861868
C    -4.107890  -3.396035  1.185013
H    -2.056156  -2.817306  1.551363
H    -3.955200  -4.483336  1.225511
H    -4.172193  -3.091490  0.130749
H    -5.049182  -3.148837  1.686414
