26
Energy: -18087.0816324 eV PBE+vdW (tier 2 basis)
C    -0.063659  -0.923381  0.998723
C    -0.576154  -0.102676  2.162467
O    0.125330  0.734750  2.726573
H    -0.739093  -0.929097  0.135305
H    0.079068  -1.965707  1.316147
H    0.901071  -0.505070  0.700023
N    -1.856700  -0.326657  2.627176
C    -2.953990  -1.137295  2.113692
C    -2.505797  -2.568083  1.701063
O    -1.969751  -3.288394  2.540972
H    -2.041097  0.198977  3.476715
H    -3.586267  -1.350702  2.988579
C    -3.870042  -0.340211  1.138588
C    -3.198735  0.131262  -0.140861
O    -3.124747  -0.589861  -1.142991
N    -2.676178  1.384231  -0.116141
H    -4.266303  0.519750  1.696610
H    -4.724293  -0.966907  0.851485
H    -2.596083  1.904036  0.748448
H    -2.124153  1.688073  -0.910457
N    -2.797848  -2.966336  0.439655
C    -2.411136  -4.288080  -0.021540
H    -3.057166  -2.263441  -0.262337
H    -2.935785  -4.504314  -0.958141
H    -2.679972  -5.038313  0.730852
H    -1.325840  -4.360623  -0.193907
