26
Energy: -18087.0645024 eV PBE+vdW (tier 2 basis)
C    -0.686481  0.984898  0.953451
C    0.131628  0.011845  1.779656
O    1.306386  0.231194  2.059409
H    0.006130  1.715531  0.527385
H    -1.407755  1.521489  1.586091
H    -1.224877  0.480329  0.143497
N    -0.484088  -1.118139  2.290566
C    -1.749875  -1.744305  1.955388
C    -1.793292  -2.271871  0.484254
O    -0.970661  -1.921795  -0.357833
H    0.195885  -1.719604  2.746043
H    -1.815164  -2.631943  2.600893
C    -2.973689  -0.860644  2.309072
C    -4.152255  -1.645666  2.876959
O    -4.326545  -2.850798  2.679575
N    -5.027000  -0.914760  3.617660
H    -3.337592  -0.311838  1.426983
H    -2.655480  -0.106181  3.041685
H    -4.882165  0.066189  3.814124
H    -5.849240  -1.373702  3.991076
N    -2.811533  -3.138641  0.257872
C    -3.060825  -3.729275  -1.042080
H    -3.442086  -3.333283  1.041791
H    -4.047433  -3.437085  -1.429619
H    -3.015993  -4.826163  -0.991403
H    -2.287437  -3.373540  -1.731010
