26
Energy: -18086.9623538 eV PBE+vdW (tier 2 basis)
C    -0.014124  -0.429337  0.173982
C    -0.146915  -0.611227  1.669960
O    0.613041  -1.348073  2.304341
H    1.006584  -0.099391  -0.053489
H    -0.726830  0.288416  -0.250191
H    -0.159349  -1.403749  -0.309373
N    -1.149391  0.100553  2.268695
C    -1.544049  -0.110091  3.663277
C    -3.047860  -0.447904  3.772546
O    -3.399137  -1.524695  4.242842
H    -1.762143  0.633180  1.663843
H    -1.059502  -1.046136  3.967261
C    -1.129843  1.011287  4.632296
C    0.353503  1.212423  4.981451
O    0.678076  2.218252  5.608974
N    1.227740  0.233515  4.635591
H    -1.628473  0.827201  5.597023
H    -1.481477  1.993403  4.294691
H    1.016566  -0.492135  3.942412
H    2.201429  0.410792  4.855560
N    -3.982447  0.446863  3.305916
C    -3.865422  1.868926  3.016650
H    -4.925622  0.101714  3.465610
H    -3.942108  2.493240  3.920799
H    -4.668099  2.157142  2.327306
H    -2.915527  2.111698  2.528161
