26
Energy: -18087.4233169 eV PBE+vdW (tier 2 basis)
C    -2.183592  -1.877516  0.955653
C    -2.249989  -0.936538  2.138515
O    -3.323011  -0.640484  2.678454
H    -2.843088  -1.501259  0.164421
H    -2.571141  -2.855796  1.267368
H    -1.172703  -2.009178  0.551561
N    -1.058893  -0.440663  2.576955
C    -0.930690  0.394485  3.774340
C    -1.257384  1.878802  3.437961
O    -0.388591  2.759354  3.412439
H    -0.212841  -0.666922  2.066527
H    -1.686650  0.030930  4.487194
C    0.472102  0.226671  4.367355
C    0.576559  0.699312  5.824544
O    0.515246  -0.093015  6.760130
N    0.759706  2.039461  5.977055
H    1.198422  0.761571  3.737892
H    0.718897  -0.841177  4.383735
H    0.611753  2.654223  5.176749
H    0.735809  2.415440  6.917441
N    -2.566459  2.088457  3.182060
C    -3.093738  3.375016  2.770509
H    -3.160337  1.252573  3.139200
H    -2.331113  4.137775  2.957507
H    -3.997772  3.616207  3.344061
H    -3.344499  3.383273  1.699373
