26
Energy: -18087.155676 eV PBE+vdW (tier 2 basis)
C    -0.003833  1.228212  0.498734
C    -0.160647  0.005349  1.382230
O    0.706367  -0.869636  1.427350
H    0.552506  0.950761  -0.401958
H    0.587748  1.972695  1.049887
H    -0.958449  1.688743  0.214511
N    -1.339660  -0.036279  2.082840
C    -1.639116  -0.818728  3.275859
C    -1.131619  -0.062870  4.537474
O    -0.308605  0.842874  4.469231
H    -1.902090  0.803331  2.000287
H    -2.738588  -0.879600  3.332376
C    -1.113080  -2.266585  3.250413
C    -1.745208  -3.065909  2.108123
O    -2.900708  -3.479094  2.180066
N    -0.920532  -3.283250  1.048948
H    -1.430818  -2.760052  4.177397
H    -0.020112  -2.269446  3.206229
H    -0.081561  -2.709714  0.961422
H    -1.320425  -3.708494  0.220425
N    -1.694222  -0.491514  5.703559
C    -1.326448  0.047473  6.999806
H    -2.378346  -1.238361  5.665751
H    -2.201047  0.464590  7.517589
H    -0.598306  0.847131  6.829020
H    -0.868203  -0.721629  7.637430
