26
Energy: -18086.8691259 eV PBE+vdW (tier 2 basis)
C    0.046310  -0.992215  0.931510
C    -0.629143  -1.287064  2.247953
O    -0.223201  -2.173950  2.998125
H    0.513570  0.002473  0.940570
H    -0.658185  -1.009799  0.091559
H    0.827902  -1.742369  0.787471
N    -1.734759  -0.550409  2.641006
C    -2.575624  0.504871  2.066747
C    -3.798490  0.034536  1.233831
O    -4.651072  0.858630  0.911200
H    -2.048696  -0.877593  3.551272
H    -3.053335  0.957697  2.948361
C    -1.867181  1.681046  1.372707
C    -1.553093  1.525632  -0.115342
O    -2.000155  0.630142  -0.820993
N    -0.718800  2.490524  -0.611818
H    -0.960170  1.947186  1.934275
H    -2.549457  2.541427  1.445145
H    -0.456937  3.302615  -0.068272
H    -0.582918  2.523348  -1.615315
N    -3.882667  -1.297294  1.000542
C    -4.922852  -1.868508  0.168745
H    -3.086830  -1.867169  1.262381
H    -5.264845  -2.823368  0.586861
H    -4.571577  -2.030295  -0.861518
H    -5.759407  -1.162330  0.141390
