26
Energy: -18087.2951712 eV PBE+vdW (tier 2 basis)
C    -0.698929  0.594474  -0.079232
C    -0.627566  0.471917  1.427563
O    -0.130880  1.358752  2.131834
H    -1.393266  1.408123  -0.326801
H    -1.037721  -0.320372  -0.580632
H    0.288732  0.874764  -0.462966
N    -1.148223  -0.668985  1.958643
C    -1.322247  -0.875977  3.397333
C    -0.020979  -1.392325  4.072522
O    0.058325  -2.517357  4.567935
H    -1.512459  -1.375698  1.330233
H    -1.572542  0.108249  3.822131
C    -2.476328  -1.832440  3.654486
C    -3.830844  -1.221215  3.301767
O    -4.052502  -0.017378  3.337713
N    -4.791796  -2.130459  2.943413
H    -2.482506  -2.085342  4.724974
H    -2.312031  -2.788524  3.134578
H    -4.642933  -3.125881  3.046651
H    -5.743403  -1.796362  2.843712
N    0.977970  -0.476394  4.059723
C    2.302815  -0.754297  4.575735
H    0.788691  0.401465  3.564133
H    2.603757  0.008841  5.306337
H    3.050430  -0.780334  3.769135
H    2.279435  -1.732248  5.068078
