26
Energy: -18087.0070297 eV PBE+vdW (tier 2 basis)
C    -0.342341  -0.279535  0.809661
C    -1.316174  -1.018346  1.703783
O    -1.131056  -2.182621  2.048177
H    -0.739227  -0.210034  -0.212984
H    -0.133060  0.742591  1.145449
H    0.585340  -0.857085  0.783045
N    -2.462747  -0.367305  2.111554
C    -2.908428  1.009596  1.906254
C    -2.878537  1.425680  0.414907
O    -2.227677  2.397414  0.020156
H    -3.026417  -0.941874  2.731663
H    -3.968519  1.011224  2.208707
C    -2.182699  2.037598  2.798032
C    -3.034628  3.286290  3.046564
O    -3.844869  3.333543  3.968638
N    -2.813731  4.317358  2.181974
H    -1.211752  2.297026  2.358860
H    -2.020912  1.573510  3.776873
H    -3.443198  5.110298  2.234533
H    -2.353052  4.113881  1.297657
N    -3.613170  0.677488  -0.451246
C    -4.458837  -0.475253  -0.179620
H    -3.536352  0.993901  -1.412976
H    -5.145687  -0.604100  -1.023179
H    -5.068218  -0.318447  0.719713
H    -3.879485  -1.399898  -0.050717
