26
Energy: -18087.0056583 eV PBE+vdW (tier 2 basis)
C    -0.254124  -0.821145  0.143614
C    -0.923995  -0.711373  1.500503
O    -1.823772  -1.463610  1.861861
H    0.346782  -1.739849  0.122534
H    0.395924  0.028399  -0.100530
H    -1.027791  -0.919056  -0.626456
N    -0.462085  0.295175  2.308614
C    -0.909783  0.441730  3.687006
C    -2.424055  0.676479  3.868305
O    -2.969822  0.216293  4.879489
H    0.311178  0.868706  1.992966
H    -0.741570  -0.513189  4.207458
C    -0.078814  1.551891  4.365042
C    0.073402  1.564729  5.897019
O    0.994702  2.210057  6.391486
N    -0.820584  0.847136  6.619851
H    -0.449578  2.548088  4.077307
H    0.955371  1.490070  3.997019
H    -1.662899  0.442554  6.192916
H    -0.745550  0.907019  7.628626
N    -3.135134  1.439107  2.998157
C    -2.747156  2.104940  1.765391
H    -4.116985  1.479564  3.255177
H    -2.685232  1.411504  0.913986
H    -1.787131  2.622125  1.869519
H    -3.506340  2.862152  1.538269
