26
Energy: -18087.2600687 eV PBE+vdW (tier 2 basis)
C    -0.051522  -1.436492  3.658207
C    0.201123  -0.223196  2.774761
O    1.280209  0.363017  2.773818
H    0.837815  -1.595948  4.273227
H    -0.230266  -2.337364  3.053252
H    -0.922838  -1.305729  4.315245
N    -0.832915  0.189408  1.974174
C    -2.118565  -0.439715  1.792291
C    -2.597741  -0.079367  0.359765
O    -2.035120  0.803187  -0.289989
H    -0.623772  0.916230  1.286423
H    -2.026710  -1.534225  1.853076
C    -3.157615  0.016733  2.859331
C    -4.169897  -1.061088  3.219304
O    -4.526337  -1.940228  2.429157
N    -4.668548  -0.998686  4.482656
H    -3.711339  0.895795  2.492928
H    -2.616656  0.348405  3.755826
H    -4.385363  -0.285127  5.140290
H    -5.381658  -1.664034  4.757227
N    -3.662076  -0.797290  -0.060477
C    -4.310012  -0.563482  -1.336339
H    -4.081655  -1.438077  0.622103
H    -4.388351  -1.498147  -1.907514
H    -3.705461  0.152807  -1.902113
H    -5.319730  -0.148387  -1.202629
