26
Energy: -18087.2654534 eV PBE+vdW (tier 2 basis)
C    -0.214736  0.389962  0.094747
C    -0.177035  -0.255853  1.467533
O    0.700163  -1.047664  1.801526
H    -0.827792  1.298731  0.055455
H    -0.624490  -0.334913  -0.622451
H    0.808847  0.622702  -0.217198
N    -1.194268  0.121967  2.316922
C    -1.508608  -0.608270  3.547254
C    -0.455675  -0.464988  4.668677
O    -0.424584  -1.265654  5.601105
H    -1.990034  0.588745  1.893106
H    -2.415036  -0.121987  3.939276
C    -1.850741  -2.078322  3.308214
C    -3.147076  -2.226971  2.524108
O    -3.874935  -1.277255  2.234606
N    -3.450547  -3.504779  2.152956
H    -1.944577  -2.569833  4.287829
H    -1.022423  -2.576816  2.784936
H    -2.881978  -4.293305  2.431319
H    -4.327308  -3.675950  1.676471
N    0.328747  0.639684  4.587069
C    1.390468  0.910560  5.534828
H    0.281314  1.171558  3.725623
H    1.376797  1.965151  5.839617
H    2.378788  0.672628  5.113659
H    1.224721  0.278870  6.413814
