26
Energy: -18087.0542358 eV PBE+vdW (tier 2 basis)
C    -0.316050  0.491051  0.210640
C    -0.114997  0.172788  1.681057
O    0.968154  -0.175048  2.140092
H    0.489991  1.156118  -0.119801
H    -1.284326  0.953911  -0.017028
H    -0.228072  -0.440701  -0.363516
N    -1.228201  0.315779  2.469840
C    -1.280153  -0.091035  3.872128
C    -0.039417  0.373760  4.680494
O    0.596272  -0.410262  5.387045
H    -2.111591  0.528000  2.021133
H    -2.150170  0.432958  4.302800
C    -1.505366  -1.610441  4.026017
C    -2.239477  -1.971700  5.320780
O    -3.466015  -2.059481  5.356015
N    -1.434481  -2.188980  6.396454
H    -0.539039  -2.122497  3.942824
H    -2.159352  -1.938932  3.210824
H    -0.474012  -1.849275  6.349901
H    -1.880151  -2.311497  7.298322
N    0.261820  1.701885  4.680040
C    -0.332270  2.789646  3.925395
H    1.108429  1.902707  5.203267
H    -0.107580  3.731242  4.440086
H    -1.423360  2.691233  3.882134
H    0.053558  2.853642  2.896424
