26
Energy: -18087.0970073 eV PBE+vdW (tier 2 basis)
C    0.130550  0.256855  -0.000793
C    -0.019097  -0.147946  1.450663
O    0.790409  0.177033  2.320646
H    1.188664  0.206601  -0.278161
H    -0.197441  1.300224  -0.105140
H    -0.462286  -0.361140  -0.686218
N    -1.131115  -0.886368  1.738596
C    -1.463441  -1.245887  3.092501
C    -2.361296  -2.487595  3.041866
O    -3.000843  -2.771892  2.029753
H    -1.812601  -1.134549  1.027206
H    -0.517673  -1.456240  3.613395
C    -2.148099  -0.080261  3.875375
C    -3.441018  0.391401  3.219655
O    -3.454013  1.226558  2.323704
N    -4.591615  -0.175726  3.709225
H    -1.444872  0.760258  3.874569
H    -2.316409  -0.382917  4.918414
H    -4.555614  -1.008395  4.284065
H    -5.440202  -0.017205  3.177110
N    -2.471764  -3.232609  4.182974
C    -1.711969  -3.123512  5.418993
H    -3.102551  -4.021880  4.080149
H    -2.172631  -2.430719  6.139934
H    -0.686830  -2.786809  5.225048
H    -1.652242  -4.112278  5.887469
