26
Energy: -18087.1843994 eV PBE+vdW (tier 2 basis)
C    -0.852651  -0.150971  -0.861034
C    -0.600535  -0.102542  0.634327
O    0.452176  0.349607  1.101687
H    -1.830549  -0.567055  -1.129814
H    -0.064645  -0.753722  -1.329517
H    -0.769896  0.865101  -1.266815
N    -1.611751  -0.579234  1.403389
C    -1.625227  -0.626360  2.852397
C    -3.016033  -1.201821  3.212883
O    -3.884420  -1.321571  2.346738
H    -2.512607  -0.845962  1.000107
H    -0.850610  -1.331934  3.200722
C    -1.317847  0.737447  3.528929
C    -2.201004  1.870311  3.016017
O    -3.341996  2.050492  3.429961
N    -1.607459  2.663363  2.077465
H    -0.256883  0.953038  3.361468
H    -1.491498  0.662386  4.607433
H    -0.712531  2.406422  1.673385
H    -2.163304  3.386964  1.637756
N    -3.237898  -1.605588  4.491229
C    -2.350430  -1.575172  5.639190
H    -4.196709  -1.902614  4.644755
H    -2.420754  -0.631813  6.202594
H    -1.308423  -1.723341  5.332895
H    -2.613519  -2.399430  6.312853
