26
Energy: -18087.1207141 eV PBE+vdW (tier 2 basis)
C    -0.495597  0.687350  -0.138246
C    -1.061115  -0.381018  0.772024
O    -1.499169  -1.446462  0.308423
H    0.340812  0.258782  -0.704483
H    -0.149457  1.584633  0.387932
H    -1.267348  0.973530  -0.863548
N    -1.049694  -0.098618  2.098077
C    -1.532911  -0.929338  3.215695
C    -0.607744  -2.123666  3.574280
O    -0.238117  -2.271287  4.735672
H    -0.617017  0.776087  2.368683
H    -1.425725  -0.279089  4.089696
C    -3.048061  -1.303869  3.122866
C    -3.416350  -2.771749  2.854589
O    -3.683849  -3.534673  3.776918
N    -3.494813  -3.131928  1.540128
H    -3.521715  -0.648371  2.379953
H    -3.497333  -1.085800  4.097344
H    -3.001330  -2.573845  0.844264
H    -3.647284  -4.116451  1.351904
N    -0.270887  -2.941500  2.544893
C    0.499649  -4.153755  2.743654
H    -0.676212  -2.746492  1.629655
H    -0.145267  -5.045324  2.731821
H    0.986817  -4.093639  3.722251
H    1.262431  -4.254660  1.961130
