26
Energy: -18086.9902149 eV PBE+vdW (tier 2 basis)
C    -0.380476  0.189032  0.819497
C    -0.142571  0.460385  2.287641
O    0.877290  0.121919  2.875298
H    -1.343929  -0.310723  0.645246
H    0.429799  -0.449567  0.458817
H    -0.384939  1.132232  0.256615
N    -1.166786  1.079133  3.000843
C    -2.284876  1.848681  2.447869
C    -1.804849  3.292682  2.146786
O    -1.168529  3.524014  1.122186
H    -0.853480  1.354833  3.931533
H    -2.517497  1.430461  1.460993
C    -3.535812  1.735061  3.335815
C    -4.278815  0.390766  3.292285
O    -5.501208  0.348468  3.217749
N    -3.497210  -0.722546  3.361908
H    -4.281750  2.478563  3.030377
H    -3.280266  1.936154  4.391374
H    -2.485654  -0.651360  3.409315
H    -3.947937  -1.629125  3.340576
N    -2.065829  4.228998  3.101097
C    -1.626108  5.608525  2.985933
H    -2.650420  3.972030  3.887209
H    -1.076829  5.917223  3.884986
H    -2.475712  6.289210  2.834418
H    -0.962606  5.672952  2.117632
