26
Energy: -18087.194642 eV PBE+vdW (tier 2 basis)
C    1.644927  0.087395  3.948415
C    0.464194  0.779645  3.293377
O    0.588500  1.805194  2.627281
H    2.144474  0.801382  4.614682
H    2.365291  -0.192061  3.169601
H    1.371586  -0.807199  4.521303
N    -0.749083  0.180320  3.496945
C    -1.982949  0.718958  2.962424
C    -3.088848  0.401689  3.978581
O    -3.181616  -0.738229  4.448022
H    -0.836938  -0.662024  4.057830
H    -1.833770  1.794606  2.814943
C    -2.331531  0.074291  1.594272
C    -3.686660  0.537147  1.076609
O    -3.903364  1.701043  0.747133
N    -4.647589  -0.431716  1.016467
H    -2.288579  -1.017616  1.702925
H    -1.564817  0.386774  0.873826
H    -4.506692  -1.339924  1.439096
H    -5.589587  -0.154038  0.766452
N    -3.954703  1.392355  4.304912
C    -3.927948  2.792817  3.889912
H    -4.661432  1.104546  4.975204
H    -4.839896  3.271110  4.262021
H    -3.917160  2.886014  2.796974
H    -3.065810  3.328523  4.312793
