26
Energy: -18087.2417217 eV PBE+vdW (tier 2 basis)
C    0.680792  1.711199  0.880528
C    0.013483  0.472763  1.439507
O    0.615504  -0.603705  1.497637
H    1.334159  2.126241  1.660348
H    -0.027779  2.488898  0.570862
H    1.308984  1.427397  0.029969
N    -1.279205  0.644666  1.844090
C    -2.038442  -0.273388  2.686467
C    -1.518149  -0.192908  4.158389
O    -0.763217  0.713279  4.502683
H    -1.584353  1.609601  1.892072
H    -3.040463  0.177119  2.738819
C    -2.238269  -1.687612  2.053637
C    -1.587167  -2.874446  2.772314
O    -2.269328  -3.629346  3.478918
N    -0.260971  -3.017636  2.580071
H    -1.889058  -1.642994  1.015233
H    -3.308524  -1.918721  2.032593
H    0.259356  -2.248438  2.139135
H    0.219029  -3.735307  3.110367
N    -2.055917  -1.092085  5.020567
C    -1.666726  -1.100893  6.421155
H    -2.498628  -1.935407  4.653337
H    -1.668073  -0.076702  6.810331
H    -0.657928  -1.517074  6.565344
H    -2.385110  -1.706499  6.983627
