26
Energy: -18087.1095795 eV PBE+vdW (tier 2 basis)
C    0.121570  1.204914  1.079992
C    -0.161058  0.040805  2.007897
O    0.684157  -0.405857  2.775861
H    0.985807  1.749597  1.469453
H    -0.727050  1.894153  0.972522
H    0.373981  0.817052  0.082446
N    -1.417808  -0.523857  1.957909
C    -2.526695  -0.209914  1.072678
C    -3.760615  -0.933639  1.627317
O    -3.727041  -2.136515  1.911459
H    -1.516042  -1.373166  2.510294
H    -2.714076  0.875272  1.104883
C    -2.311859  -0.591157  -0.427003
C    -1.407875  -1.802666  -0.690927
O    -0.409188  -1.687790  -1.396065
N    -1.807487  -2.980205  -0.139604
H    -1.835828  0.245681  -0.947916
H    -3.290967  -0.755497  -0.903530
H    -2.521133  -2.994902  0.591602
H    -1.168172  -3.762668  -0.218503
N    -4.878071  -0.174886  1.739416
C    -6.154266  -0.703199  2.189996
H    -4.805632  0.813112  1.528309
H    -6.937605  -0.520422  1.442778
H    -6.454991  -0.248874  3.143693
H    -6.036191  -1.781777  2.332906
