26
Energy: -18087.0468631 eV PBE+vdW (tier 2 basis)
C    -1.434147  -0.698754  0.206071
C    -1.052900  -0.687077  1.674818
O    0.086697  -0.934153  2.065497
H    -0.776299  -0.005729  -0.332428
H    -2.479088  -0.422331  0.020929
H    -1.251621  -1.702048  -0.199903
N    -2.076095  -0.419548  2.542039
C    -1.825580  -0.199083  3.956046
C    -1.151599  -1.336517  4.758694
O    -0.430953  -1.019710  5.703305
H    -2.960140  -0.048475  2.189596
H    -1.115612  0.633577  4.085288
C    -3.148735  0.154546  4.673258
C    -3.838171  1.347320  4.027391
O    -4.348746  1.270803  2.906769
N    -3.837043  2.501083  4.746886
H    -2.919198  0.328203  5.731751
H    -3.844076  -0.694517  4.610391
H    -3.385555  2.571584  5.648588
H    -4.242468  3.332888  4.333947
N    -1.446127  -2.645064  4.507394
C    -2.202088  -3.265679  3.430956
H    -0.905215  -3.263883  5.104054
H    -2.437287  -4.293320  3.732238
H    -1.638064  -3.301437  2.486819
H    -3.148599  -2.745891  3.250574
