26
Energy: -18087.2268731 eV PBE+vdW (tier 2 basis)
C    -0.720324  0.196914  -0.417404
C    -0.164237  0.198491  0.990927
O    1.034464  0.257999  1.234699
H    0.116400  0.325557  -1.108486
H    -1.443847  1.009226  -0.575154
H    -1.233319  -0.750022  -0.642496
N    -1.079501  0.149719  2.036539
C    -2.480231  -0.234011  1.925400
C    -3.355081  0.518824  2.955777
O    -4.430690  0.057842  3.350245
H    -0.620525  -0.046499  2.925546
H    -2.826774  0.125215  0.944112
C    -2.714086  -1.766492  1.987008
C    -3.809380  -2.226754  1.019010
O    -3.529227  -2.703969  -0.078971
N    -5.080838  -2.051173  1.468713
H    -1.796843  -2.269188  1.664172
H    -2.941731  -2.069750  3.017810
H    -5.230644  -1.444419  2.276131
H    -5.839005  -2.226454  0.819771
N    -2.863773  1.717373  3.348871
C    -3.563544  2.604421  4.258308
H    -1.961583  1.985590  2.966758
H    -2.935001  2.850540  5.124302
H    -4.465619  2.089207  4.603746
H    -3.856060  3.536815  3.755663
