26
Energy: -18087.3106887 eV PBE+vdW (tier 2 basis)
C    0.215170  -0.421103  -0.063951
C    0.003612  0.226340  1.288190
O    0.639345  1.233063  1.626490
H    -0.482604  -1.238437  -0.281611
H    1.240014  -0.812913  -0.102970
H    0.128747  0.346395  -0.841921
N    -0.924813  -0.367170  2.089618
C    -1.204580  -0.072464  3.504807
C    -1.908269  1.279823  3.776513
O    -2.828026  1.318513  4.609002
H    -1.410090  -1.169710  1.708106
H    -1.953941  -0.819212  3.795637
C    0.046421  -0.270263  4.397078
C    -0.158615  -0.639289  5.873910
O    0.761913  -1.168265  6.492007
N    -1.370317  -0.369136  6.428355
H    0.689495  0.620233  4.365043
H    0.644922  -1.089702  3.979214
H    -2.081738  0.193546  5.949822
H    -1.469641  -0.560934  7.418343
N    -1.434772  2.352467  3.116562
C    -1.955132  3.690124  3.327819
H    -0.598521  2.205282  2.534205
H    -1.259562  4.299299  3.923695
H    -2.904333  3.615063  3.867834
H    -2.120685  4.188452  2.364203
