26
Energy: -18087.1755097 eV PBE+vdW (tier 2 basis)
C    -0.852271  0.911143  0.023354
C    -0.679246  0.268576  1.386825
O    0.039184  -0.707194  1.567276
H    -1.880936  0.778047  -0.342554
H    -0.165663  0.422268  -0.672126
H    -0.651515  1.990634  0.040179
N    -1.362260  0.844722  2.446691
C    -2.403918  1.856064  2.337587
C    -1.888627  3.302290  2.137823
O    -2.647498  4.177422  1.725793
H    -1.408559  0.242286  3.272211
H    -3.057517  1.662380  1.471717
C    -3.278115  1.866166  3.612134
C    -3.867090  0.493335  3.903114
O    -3.186980  -0.403885  4.398057
N    -5.169780  0.314361  3.545333
H    -4.044318  2.640216  3.482495
H    -2.655833  2.140070  4.475307
H    -5.732094  1.061338  3.161253
H    -5.594422  -0.593234  3.695222
N    -0.594066  3.496896  2.491439
C    0.064109  4.784965  2.407643
H    -0.077933  2.673097  2.787429
H    0.430514  5.106808  3.392161
H    -0.670647  5.511911  2.045056
H    0.911482  4.753317  1.708581
