26
Energy: -18086.8775852 eV PBE+vdW (tier 2 basis)
C    0.392391  0.563125  0.777240
C    -0.440856  1.376031  1.757456
O    -0.105232  2.498212  2.119647
H    1.295853  1.134087  0.549184
H    -0.157396  0.381727  -0.157963
H    0.682481  -0.412242  1.194354
N    -1.585187  0.785238  2.235716
C    -2.140489  -0.476606  1.803843
C    -2.777728  -0.400101  0.392429
O    -3.431251  0.572138  0.030663
H    -2.181584  1.377147  2.816737
H    -1.344055  -1.234310  1.804203
C    -3.217785  -0.964363  2.804694
C    -4.309267  0.078524  3.048837
O    -4.093813  1.072499  3.737382
N    -5.530167  -0.183370  2.495853
H    -2.732945  -1.146444  3.772288
H    -3.636767  -1.915191  2.447127
H    -5.610699  -0.844854  1.733746
H    -6.199025  0.579805  2.507260
N    -2.622579  -1.499436  -0.411079
C    -1.797192  -2.676680  -0.183001
H    -3.055976  -1.391522  -1.323111
H    -0.726742  -2.431595  -0.109964
H    -1.926108  -3.356324  -1.031979
H    -2.096521  -3.224003  0.721963
