26
Energy: -18087.1141586 eV PBE+vdW (tier 2 basis)
C    0.152725  1.196467  0.970858
C    0.057140  0.101104  2.007742
O    1.057053  -0.429107  2.477865
H    -0.766371  1.381220  0.406025
H    0.962787  0.935749  0.281295
H    0.428123  2.125265  1.487081
N    -1.193532  -0.347788  2.418926
C    -2.539369  0.176439  2.193703
C    -2.985439  0.146539  0.709795
O    -3.838472  0.925974  0.274269
H    -1.097281  -1.003132  3.190453
H    -3.197216  -0.579060  2.655894
C    -2.901204  1.492092  2.924027
C    -2.186338  2.775826  2.496737
O    -1.262072  3.251171  3.152112
N    -2.678539  3.355076  1.366281
H    -2.669876  1.353757  3.986324
H    -3.986473  1.629058  2.823251
H    -3.327355  2.835167  0.777225
H    -2.199569  4.170349  1.003011
N    -2.431521  -0.847845  -0.023192
C    -2.745053  -1.073833  -1.420513
H    -1.704516  -1.395180  0.426863
H    -3.068503  -2.110155  -1.584503
H    -1.875879  -0.868118  -2.061282
H    -3.559268  -0.396251  -1.696938
