26
Energy: -18087.1526798 eV PBE+vdW (tier 2 basis)
C    -1.507727  -0.304611  -0.695643
C    -0.684999  -0.416314  0.575653
O    0.519255  -0.657218  0.554714
H    -0.865444  -0.590357  -1.532585
H    -1.838088  0.733406  -0.849549
H    -2.403097  -0.939032  -0.690137
N    -1.331763  -0.217383  1.773046
C    -2.728384  0.069987  2.019476
C    -2.804617  1.137871  3.127909
O    -1.986066  1.154784  4.044299
H    -0.729290  -0.160569  2.593942
H    -3.194388  0.445608  1.098161
C    -3.516352  -1.183512  2.494371
C    -3.640079  -2.202493  1.368627
O    -4.506064  -2.104052  0.502715
N    -2.713010  -3.203433  1.375811
H    -3.015465  -1.593490  3.382298
H    -4.536497  -0.892446  2.775288
H    -1.905366  -3.165838  1.984493
H    -2.681191  -3.827911  0.577879
N    -3.851360  1.999663  3.022380
C    -4.136830  3.020496  4.015066
H    -4.464039  1.912974  2.219932
H    -3.364880  2.953805  4.788432
H    -5.121456  2.861555  4.475901
H    -4.108803  4.023509  3.568520
