26
Energy: -18086.9425187 eV PBE+vdW (tier 2 basis)
C    0.167204  0.672449  0.474075
C    -0.106291  -0.299637  1.606207
O    0.588293  -1.293289  1.801726
H    0.908949  0.219808  -0.188693
H    0.570630  1.619102  0.861491
H    -0.736975  0.920422  -0.098381
N    -1.163350  -0.010289  2.438730
C    -2.104446  1.086283  2.312220
C    -1.528773  2.518292  2.432277
O    -2.003674  3.406054  1.724391
H    -1.383115  -0.739220  3.119122
H    -2.568530  1.088602  1.312341
C    -3.238138  0.951699  3.356283
C    -3.892657  -0.422830  3.296051
O    -3.387977  -1.395967  3.852351
N    -5.036802  -0.506190  2.561165
H    -3.952517  1.765887  3.179316
H    -2.834515  1.065720  4.370639
H    -5.443228  0.296124  2.099650
H    -5.475508  -1.412250  2.447105
N    -0.542161  2.782908  3.336399
C    0.138325  1.916305  4.292153
H    -0.259324  3.757876  3.311185
H    0.642991  2.557318  5.023958
H    0.889512  1.269872  3.818512
H    -0.564006  1.277896  4.840043
