26
Energy: -18087.0872596 eV PBE+vdW (tier 2 basis)
C    -0.775708  -2.582258  1.337791
C    -0.357157  -1.221326  1.853577
O    0.814451  -0.902637  2.026229
H    -1.445895  -3.093994  2.042870
H    0.125596  -3.183669  1.196908
H    -1.309381  -2.500867  0.380411
N    -1.372374  -0.325394  2.147039
C    -2.795661  -0.452320  1.849747
C    -3.192132  -0.146523  0.381105
O    -4.332494  -0.387471  -0.003123
H    -1.030887  0.580450  2.464459
H    -3.095747  -1.499075  2.003602
C    -3.640828  0.432033  2.780336
C    -3.763330  0.042462  4.257478
O    -4.703082  0.448436  4.928678
N    -2.791419  -0.772349  4.769452
H    -4.664338  0.459027  2.389376
H    -3.272919  1.471650  2.744569
H    -1.931121  -0.950049  4.263752
H    -2.823198  -0.963117  5.764233
N    -2.216676  0.391235  -0.398659
C    -2.430562  0.733672  -1.792442
H    -1.298909  0.524383  0.010268
H    -2.239889  1.800793  -1.969252
H    -3.476077  0.512246  -2.031379
H    -1.779263  0.142662  -2.451026
