26
Energy: -18087.214728 eV PBE+vdW (tier 2 basis)
C    -1.723914  1.468917  -0.382934
C    -0.635462  0.905490  0.508685
O    0.404030  0.428093  0.068447
H    -1.360763  1.447950  -1.413347
H    -1.991623  2.499119  -0.110766
H    -2.638464  0.861972  -0.318046
N    -0.852500  0.962556  1.874017
C    -2.054163  1.405081  2.570571
C    -2.075153  2.925703  2.852357
O    -3.092908  3.472538  3.296866
H    -0.141638  0.475641  2.414721
H    -2.926948  1.212221  1.929601
C    -2.223879  0.592537  3.880829
C    -3.652145  0.271884  4.357226
O    -3.898850  -0.831070  4.838247
N    -4.569289  1.260535  4.215658
H    -1.694899  1.091837  4.707974
H    -1.755882  -0.389313  3.743282
H    -4.283510  2.198699  3.910519
H    -5.499053  1.091173  4.579808
N    -0.925550  3.585659  2.594442
C    -0.757858  5.009352  2.815624
H    -0.163711  3.036325  2.208288
H    -1.692519  5.397922  3.232704
H    -0.540734  5.530888  1.873592
H    0.059384  5.201291  3.523633
