26
Energy: -18087.2076954 eV PBE+vdW (tier 2 basis)
C    1.553207  -0.065521  4.418743
C    0.358182  0.812455  4.103949
O    0.252993  1.956018  4.545034
H    1.622024  -0.189255  5.506563
H    2.462864  0.451789  4.089870
H    1.514443  -1.054772  3.946769
N    -0.582246  0.247392  3.283056
C    -1.814014  0.926580  2.904137
C    -2.972028  0.357304  3.752951
O    -3.460733  -0.747154  3.478652
H    -0.500614  -0.735058  3.044417
H    -1.648459  1.990090  3.109633
C    -2.095771  0.727789  1.405541
C    -3.340874  1.490895  0.946962
O    -3.283937  2.645374  0.536172
N    -4.505836  0.780975  1.027849
H    -2.201658  -0.346597  1.199165
H    -1.244783  1.122875  0.839850
H    -4.537332  -0.077219  1.571509
H    -5.370751  1.278125  0.849477
N    -3.405650  1.089876  4.805911
C    -2.985395  2.423193  5.228617
H    -4.172120  0.651025  5.308661
H    -1.896889  2.533120  5.154115
H    -3.267363  2.554108  6.279123
H    -3.474260  3.212593  4.638274
