26
Energy: -18087.2057606 eV PBE+vdW (tier 2 basis)
C    -0.148190  2.086686  0.602357
C    -0.203764  0.813196  1.422530
O    0.802411  0.192117  1.748390
H    -1.055690  2.260765  0.010094
H    0.722622  2.051038  -0.059444
H    -0.019514  2.930748  1.294743
N    -1.478296  0.396985  1.756301
C    -1.709141  -0.530009  2.854454
C    -1.352445  0.163865  4.212786
O    -1.075425  1.361387  4.256661
H    -2.199310  1.101392  1.642445
H    -2.795607  -0.709034  2.880926
C    -1.014736  -1.889040  2.591750
C    -1.755262  -3.091957  3.151848
O    -2.369115  -3.081805  4.224705
N    -1.683492  -4.219990  2.395240
H    -0.000168  -1.881647  3.014697
H    -0.885535  -2.002189  1.507968
H    -1.166418  -4.251808  1.527371
H    -2.084590  -5.075555  2.760608
N    -1.419938  -0.643072  5.294546
C    -1.192703  -0.135237  6.633957
H    -1.791487  -1.591166  5.156367
H    -1.022592  -0.979609  7.310959
H    -2.047948  0.451374  7.004528
H    -0.311668  0.517565  6.641209
