26
Energy: -18086.8830859 eV PBE+vdW (tier 2 basis)
C    -0.403143  1.425659  0.353780
C    -0.068975  0.555124  1.546837
O    1.021813  0.584112  2.112883
H    0.483715  2.012417  0.102296
H    -1.237747  2.107546  0.570535
H    -0.696043  0.816091  -0.512369
N    -1.054193  -0.298649  1.986636
C    -2.434705  -0.355516  1.543503
C    -3.370338  0.784734  2.013747
O    -4.281744  1.143375  1.269666
H    -0.767165  -0.864247  2.780421
H    -2.460332  -0.280559  0.447755
C    -3.050007  -1.715005  1.885746
C    -2.437090  -2.826269  1.024855
O    -2.104899  -2.643128  -0.137763
N    -2.306505  -4.035447  1.647349
H    -4.125120  -1.676399  1.655003
H    -2.956678  -1.935690  2.961113
H    -1.991537  -4.826393  1.097987
H    -2.645056  -4.200360  2.585415
N    -3.182529  1.379244  3.230240
C    -2.285646  1.045332  4.329006
H    -3.861157  2.116283  3.394985
H    -2.628226  1.587542  5.217458
H    -1.244497  1.332926  4.131920
H    -2.315672  -0.025289  4.574850
