26
Energy: -18086.6131035 eV PBE+vdW (tier 2 basis)
C    -0.191790  -0.311425  0.602582
C    -0.326914  -0.439318  2.109739
O    0.474429  -1.090818  2.773801
H    0.804758  -0.664880  0.325192
H    -0.321489  0.716983  0.240449
H    -0.941292  -0.941290  0.103829
N    -1.390519  0.182547  2.717786
C    -2.452277  1.001056  2.141799
C    -3.205573  0.231164  1.022612
O    -3.630460  -0.887916  1.293472
H    -1.461401  -0.028369  3.708324
H    -3.222724  1.053753  2.926518
C    -1.995116  2.458296  1.953465
C    -1.674029  3.050762  3.329169
O    -2.441112  2.927706  4.277441
N    -0.505165  3.748069  3.413078
H    -2.812700  3.067117  1.541763
H    -1.137141  2.541131  1.274194
H    0.186455  3.719238  2.676365
H    -0.227927  4.105340  4.320231
N    -3.469766  0.774750  -0.208439
C    -2.954093  1.939880  -0.911056
H    -4.035321  0.133459  -0.757019
H    -3.218448  1.834418  -1.968795
H    -1.860201  2.011378  -0.855096
H    -3.390156  2.883263  -0.553828
