26
Energy: -18087.2625749 eV PBE+vdW (tier 2 basis)
C    0.322593  -0.428001  0.889460
C    -0.146268  0.197962  2.186763
O    0.614757  0.381200  3.138563
H    1.142098  0.178478  0.484745
H    -0.465329  -0.515578  0.131920
H    0.727401  -1.424582  1.104734
N    -1.465843  0.553249  2.220941
C    -2.075294  1.177863  3.386059
C    -2.806759  0.118325  4.236708
O    -3.872212  -0.397833  3.862266
H    -2.071436  0.335575  1.435198
H    -1.235915  1.582605  3.962915
C    -2.985296  2.362913  2.991166
C    -3.866797  2.236712  1.736804
O    -3.999070  3.189692  0.975215
N    -4.451346  1.021229  1.534389
H    -2.356033  3.240879  2.807178
H    -3.643561  2.611094  3.838431
H    -4.461962  0.337463  2.305806
H    -5.131380  0.961848  0.784706
N    -2.242185  -0.244265  5.412514
C    -1.000109  0.219547  6.023534
H    -2.791051  -0.934389  5.918029
H    -0.684007  -0.526598  6.760697
H    -1.132213  1.179343  6.545451
H    -0.206292  0.312643  5.271819
