26
Energy: -18087.1946786 eV PBE+vdW (tier 2 basis)
C    1.303941  0.351072  4.509753
C    0.114462  1.075195  3.910487
O    0.101260  2.292414  3.746532
H    1.559307  0.821943  5.466500
H    2.164380  0.481583  3.841126
H    1.137440  -0.721488  4.668756
N    -0.947228  0.273720  3.569257
C    -2.134726  0.775988  2.887757
C    -3.370646  0.445371  3.753222
O    -4.113831  -0.505834  3.477824
H    -0.869320  -0.728451  3.703388
H    -1.988271  1.862547  2.813707
C    -2.248549  0.187305  1.471316
C    -3.292453  0.896152  0.599505
O    -2.983378  1.801895  -0.168576
N    -4.565749  0.426318  0.735405
H    -2.466392  -0.887761  1.540101
H    -1.283105  0.330734  0.974010
H    -4.792174  -0.171681  1.527710
H    -5.305483  0.930777  0.261191
N    -3.604338  1.220679  4.842781
C    -2.792603  2.285797  5.410916
H    -4.400164  0.897936  5.387185
H    -2.166213  1.918685  6.238291
H    -3.447472  3.079401  5.791117
H    -2.125695  2.719705  4.659735
