26
Energy: -18086.9202289 eV PBE+vdW (tier 2 basis)
C    -1.213623  0.387666  -0.222732
C    -0.880565  0.282992  1.253122
O    0.191984  -0.158456  1.658780
H    -0.427312  0.966789  -0.721610
H    -2.185629  0.853688  -0.426447
H    -1.203562  -0.620355  -0.656253
N    -1.855500  0.724247  2.111958
C    -1.725903  0.542387  3.556499
C    -3.117518  0.459889  4.215717
O    -3.445886  -0.568640  4.800577
H    -2.769318  0.951623  1.737888
H    -1.298786  -0.455206  3.723436
C    -0.754010  1.580096  4.183153
C    -0.797218  1.554559  5.705865
O    -1.529330  2.301772  6.350634
N    0.019365  0.636121  6.298498
H    -1.016691  2.593823  3.867352
H    0.248498  1.352239  3.798071
H    -0.069743  0.488865  7.296866
H    0.545976  -0.036123  5.756003
N    -3.993824  1.505085  4.073220
C    -3.704838  2.907146  3.785510
H    -4.848797  1.329065  4.595299
H    -4.650505  3.412708  3.559088
H    -3.061287  3.007436  2.903661
H    -3.220263  3.407734  4.636922
