26
Energy: -18086.6318694 eV PBE+vdW (tier 2 basis)
C    -0.057588  0.715610  0.360479
C    -0.199631  -0.251200  1.515912
O    0.539759  -1.228305  1.615240
H    -0.982363  0.823755  -0.217638
H    0.724350  0.321685  -0.293770
H    0.236947  1.715445  0.702627
N    -1.134426  -0.033603  2.517657
C    -2.308775  0.825529  2.726203
C    -3.675030  0.089224  2.644146
O    -4.500333  0.303687  3.530820
H    -1.072321  -0.791312  3.195708
H    -2.293647  1.097223  3.792829
C    -2.387042  2.142621  1.944852
C    -1.312413  3.210485  2.173168
O    -1.327772  4.247271  1.521616
N    -0.392981  2.968592  3.154844
H    -3.332814  2.619342  2.242111
H    -2.461707  1.995193  0.861188
H    -0.249938  2.039098  3.531820
H    0.344327  3.653301  3.276343
N    -3.951346  -0.769431  1.620496
C    -3.207553  -1.072850  0.407264
H    -4.882107  -1.166046  1.706702
H    -2.947672  -0.165885  -0.155101
H    -3.850364  -1.680154  -0.238351
H    -2.291958  -1.644400  0.605993
