26
Energy: -18087.0434069 eV PBE+vdW (tier 2 basis)
C    -0.110962  0.226456  -0.035606
C    -0.099731  0.034026  1.469568
O    0.880498  -0.384983  2.073478
H    0.707714  0.903831  -0.307513
H    -1.052286  0.632079  -0.426777
H    0.091170  -0.739540  -0.514754
N    -1.267591  0.384854  2.114285
C    -1.471031  0.085560  3.536883
C    -2.963359  0.146234  3.881801
O    -3.481048  -0.696318  4.617883
H    -2.098348  0.472979  1.538996
H    -1.151008  -0.949001  3.729777
C    -0.634961  1.038346  4.423493
C    -0.530056  0.786697  5.932558
O    0.181320  1.521367  6.611084
N    -1.201317  -0.279518  6.453006
H    -0.976387  2.076602  4.299067
H    0.397079  1.004195  4.051047
H    -1.962132  -0.740755  5.953537
H    -1.153864  -0.387892  7.459875
N    -3.656987  1.190837  3.347080
C    -5.052215  1.443008  3.669207
H    -3.128325  1.928305  2.892759
H    -5.580676  1.818468  2.784968
H    -5.155162  2.171588  4.486709
H    -5.502933  0.498807  3.989971
