26
Energy: -18086.9946692 eV PBE+vdW (tier 2 basis)
C    0.901278  0.951787  0.054194
C    0.771340  0.261086  1.399629
O    1.750273  -0.268309  1.937635
H    1.158503  0.197628  -0.700933
H    1.735672  1.661275  0.104073
H    -0.003121  1.480420  -0.270516
N    -0.484833  0.279778  1.931889
C    -1.023040  -0.326140  3.159168
C    -1.338297  0.695520  4.283973
O    -2.462027  0.683798  4.784565
H    -1.185628  0.752382  1.372840
H    -2.024215  -0.691708  2.892822
C    -0.263556  -1.546529  3.704202
C    -0.334339  -2.726936  2.727340
O    -1.383832  -3.328928  2.524986
N    0.853132  -3.057841  2.143121
H    -0.804566  -1.861845  4.606393
H    0.766919  -1.304123  3.978902
H    1.589872  -2.355958  2.112042
H    0.826655  -3.763539  1.415470
N    -0.383992  1.566077  4.721578
C    0.988731  1.770101  4.291921
H    -0.743781  2.183994  5.443418
H    1.587083  2.085657  5.155281
H    1.069309  2.545975  3.513656
H    1.429841  0.850501  3.895459
