26
Energy: -18087.4516511 eV PBE+vdW (tier 2 basis)
C    0.158562  2.146199  1.085583
C    -0.814528  1.310691  1.893874
O    -1.892705  1.749340  2.289435
H    0.318399  3.103427  1.595622
H    -0.298796  2.367835  0.112437
H    1.124338  1.654575  0.918508
N    -0.394542  0.031681  2.171257
C    -1.299613  -0.968311  2.714814
C    -1.068040  -1.300034  4.209518
O    -1.453856  -2.371179  4.687819
H    0.430731  -0.341046  1.697870
H    -2.311105  -0.532033  2.662235
C    -1.254310  -2.259842  1.876085
C    0.159950  -2.826318  1.853481
O    1.054353  -2.304920  1.179182
N    0.366617  -3.916458  2.640924
H    -1.541438  -2.024455  0.844285
H    -1.972440  -2.972556  2.294460
H    -0.302593  -4.120941  3.376846
H    1.324133  -4.227294  2.764797
N    -0.458930  -0.326312  4.923907
C    -0.243441  -0.408683  6.354228
H    -0.186659  0.511000  4.421003
H    0.822201  -0.302346  6.599359
H    -0.591990  -1.391587  6.688260
H    -0.809300  0.369568  6.885212
