25
Energy: -104336.341215 eV PBE+vdW (tier 2 basis)
N    -0.119821  0.122941  0.369604
C    -0.239765  0.563435  1.807227
C    1.142591  0.716117  2.411639
O    1.258318  1.330032  3.520987
H    -0.956142  -0.487609  0.174607
H    0.753038  -0.415591  0.246732
H    -0.765864  1.525026  1.826356
C    -1.088666  -0.506707  2.577738
C    -2.321489  -0.865039  1.793620
C    -3.444828  -0.014796  1.777102
C    -2.360570  -2.037320  1.014824
C    -4.564228  -0.325522  1.023571
C    -3.481819  -2.360134  0.250665
C    -4.593399  -1.503623  0.251020
O    -5.720027  -1.737724  -0.446796
H    -1.325750  -0.073447  3.557794
H    -0.468675  -1.399028  2.750760
H    -3.454726  0.890626  2.386940
H    -1.528489  -2.745448  1.048953
H    -5.442688  0.318048  1.027664
H    -3.501488  -3.287839  -0.322433
H    -5.672955  -2.585291  -0.921910
O    2.151607  0.170060  1.832539
H    -0.112007  0.905499  -0.294727
Sr    3.559840  0.906335  3.625527
