25
Energy: -104335.862005 eV PBE+vdW (tier 2 basis)
N    -1.027140  0.896451  0.833146
C    -0.202752  0.147044  1.840879
C    1.177440  -0.120580  1.207633
O    1.330904  -0.079757  0.005721
H    -0.705278  0.511490  -0.076939
H    -0.635162  1.846949  0.794775
H    -0.084042  0.775591  2.733246
C    -0.847148  -1.207852  2.217052
C    -2.314801  -1.103989  2.554284
C    -3.280945  -1.809238  1.807847
C    -2.786655  -0.280054  3.603897
C    -4.656222  -1.691814  2.068756
C    -4.150612  -0.143547  3.877207
C    -5.108193  -0.876283  3.131595
O    -6.388901  -0.726220  3.485812
H    -0.288387  -1.625311  3.067278
H    -0.718106  -1.915300  1.385419
H    -2.957804  -2.478372  1.007661
H    -2.076181  0.258310  4.234394
H    -5.368149  -2.281232  1.487253
H    -4.496502  0.469282  4.710655
H    -6.982029  -1.356785  3.036352
O    2.091683  -0.426156  2.127000
H    2.945086  -0.626649  1.686593
Sr    -3.582103  0.955023  1.146486
