25
Energy: -104336.586183 eV PBE+vdW (tier 2 basis)
N    -0.021001  2.505661  3.871502
C    -0.097326  1.156793  3.193262
C    0.881086  1.314113  1.987675
O    1.090936  0.246261  1.301277
H    0.598561  3.033925  3.160775
H    -0.927107  2.974367  3.986103
H    0.287852  0.400404  3.887835
C    -1.546613  0.838492  2.761687
C    -1.735671  -0.445723  1.977106
C    -1.469294  -1.714021  2.537831
C    -2.271254  -0.417208  0.676370
C    -1.733704  -2.897357  1.841218
C    -2.554795  -1.593690  -0.037606
C    -2.324327  -2.853655  0.555637
O    -2.600089  -4.032801  -0.024051
H    -1.926740  1.675665  2.157262
H    -2.177242  0.785923  3.663624
H    -1.073393  -1.793235  3.551675
H    -2.501174  0.540588  0.206811
H    -1.564756  -3.868820  2.307118
H    -3.015788  -1.525442  -1.024981
H    -3.141995  -3.934842  -0.828411
O    1.344873  2.435921  1.790677
H    0.446306  2.478084  4.784712
Sr    0.446655  -1.579404  0.244894
