25
Energy: -104336.492184 eV PBE+vdW (tier 2 basis)
N    0.355719  -0.502453  -0.192193
C    0.636186  -0.876471  1.198813
C    2.171219  -1.005938  1.280872
O    2.771598  -1.303678  2.342471
H    -0.199136  -1.190141  -0.702367
H    1.963256  -0.562080  -0.453376
H    0.353449  -0.055650  1.875878
C    -0.080647  -2.182806  1.631278
C    0.189539  -2.696029  3.030429
C    -0.145076  -1.947739  4.182536
C    0.701375  -3.992098  3.236943
C    0.010059  -2.466865  5.472144
C    0.857979  -4.537440  4.522952
C    0.473604  -3.792035  5.659603
O    0.539954  -4.236179  6.923313
H    0.165134  -2.974111  0.907966
H    -1.161736  -1.999238  1.535214
H    -0.567686  -0.946618  4.079778
H    0.961336  -4.612321  2.377306
H    -0.297782  -1.891541  6.346240
H    1.213357  -5.564176  4.632088
H    0.712394  -5.194473  6.975381
O    2.782889  -0.787134  0.176032
H    -0.091493  0.408535  -0.288961
Sr    2.772506  -2.258320  4.396659
