25
Energy: -104336.698432 eV PBE+vdW (tier 2 basis)
N    0.575644  -0.935826  0.184411
C    -0.281332  -0.039598  1.060769
C    0.686223  0.708236  1.978391
O    1.806165  0.133504  2.206334
H    0.115661  -1.819528  -0.069852
H    0.851879  -0.463238  -0.687825
H    -0.840856  0.636338  0.406727
C    -1.268904  -0.852875  1.973619
C    -0.842904  -1.059616  3.417110
C    -1.401512  -0.263706  4.438891
C    0.106978  -2.024855  3.798843
C    -1.029403  -0.414619  5.778864
C    0.496558  -2.194011  5.133436
C    -0.093443  -1.407764  6.146454
O    0.191618  -1.519975  7.455635
H    -1.479956  -1.823570  1.498519
H    -2.219033  -0.306615  1.961815
H    -2.150005  0.488384  4.186697
H    0.556741  -2.679497  3.051170
H    -1.510928  0.171762  6.562256
H    1.211086  -2.977245  5.392322
H    0.717164  -2.316690  7.652522
O    0.251575  1.690448  2.633669
H    1.444885  -1.112231  0.736505
Sr    1.417754  0.810767  4.542283
