25
Energy: -104335.575515 eV PBE+vdW (tier 2 basis)
N    0.692074  0.210138  0.322963
C    0.184544  0.042456  1.733528
C    1.436107  0.089868  2.627728
O    2.292315  0.981600  2.389803
H    -0.118838  0.401960  -0.276033
H    1.022343  -0.712142  0.006760
H    -0.344280  0.980174  1.978314
C    -0.806716  -1.124787  1.959381
C    -0.172881  -2.476582  2.181847
C    -0.185722  -3.057868  3.465320
C    0.472736  -3.182418  1.148286
C    0.450013  -4.275545  3.719654
C    1.108207  -4.391693  1.387177
C    1.114103  -4.946026  2.682127
O    1.752472  -6.120439  2.830784
H    -1.498995  -1.139938  1.102475
H    -1.428119  -0.861388  2.827376
H    -0.751762  -2.584478  4.272335
H    0.421919  -2.821654  0.117338
H    0.405311  -4.710840  4.718648
H    1.582891  -4.949215  0.580968
H    1.667359  -6.459780  3.738730
O    1.627279  -0.719504  3.609232
H    1.000548  -1.519779  3.571973
Sr    2.635772  1.975865  0.376597
