25
Energy: -104334.679871 eV PBE+vdW (tier 2 basis)
N    0.419998  -1.324332  0.438583
C    -0.205196  -0.444023  1.420393
C    0.830003  0.469353  2.085850
O    1.393916  0.203798  3.134042
H    1.427713  -1.410921  0.561179
H    0.245131  -1.022684  -0.518148
H    -0.943978  0.188448  0.912134
C    -0.992404  -1.266657  2.500817
C    -0.153668  -2.353737  3.105612
C    0.534667  -2.176978  4.332447
C    0.095152  -3.551403  2.390693
C    1.421946  -3.142142  4.828486
C    1.001538  -4.524333  2.865522
C    1.717504  -4.302586  4.064340
O    2.626961  -5.143636  4.576277
H    -1.857621  -1.694392  1.976341
H    -1.366335  -0.577301  3.269206
H    0.387830  -1.257579  4.899056
H    -0.407615  -3.715280  1.437028
H    1.968570  -2.973066  5.757465
H    1.197599  -5.416050  2.265872
H    2.894866  -5.837409  3.945037
O    1.068371  1.555551  1.343947
H    1.770064  2.088728  1.772728
Sr    -1.104622  -4.412748  4.779593
