25
Energy: -104336.348405 eV PBE+vdW (tier 2 basis)
N    -0.481373  0.392573  0.215030
C    -0.188514  0.081012  1.661656
C    1.309627  0.116431  1.896536
O    1.739177  0.144825  3.094657
H    -1.342710  -0.156730  -0.044304
H    -0.653797  1.389758  0.042767
H    -0.684063  0.838135  2.280470
C    -0.786133  -1.330802  1.994455
C    -2.191961  -1.447164  1.473147
C    -2.441773  -2.045597  0.219824
C    -3.280685  -0.914229  2.184510
C    -3.727923  -2.112061  -0.305843
C    -4.570311  -0.982117  1.673739
C    -4.804994  -1.578408  0.420159
O    -6.025433  -1.681828  -0.137664
H    -0.731780  -1.445352  3.084384
H    -0.144027  -2.104392  1.547220
H    -1.627020  -2.527023  -0.328148
H    -3.125713  -0.462239  3.165878
H    -3.923713  -2.598520  -1.259988
H    -5.404903  -0.584032  2.252693
H    -6.713527  -1.321549  0.448080
O    2.109498  0.047522  0.892994
H    0.318191  0.097061  -0.368473
Sr    3.973284  0.026284  2.396668
