25
Energy: -104336.867427 eV PBE+vdW (tier 2 basis)
N    1.262302  -1.952871  0.912638
C    0.203374  -0.908741  1.009876
C    0.891387  0.391166  1.400896
O    1.907047  0.407360  2.116102
H    0.810854  -2.855917  0.736605
H    1.819675  -1.779813  0.068477
H    -0.327881  -0.753329  0.059869
C    -0.851571  -1.306228  2.095747
C    -0.235746  -1.726304  3.411665
C    0.100737  -0.785524  4.410461
C    0.076849  -3.077239  3.670559
C    0.760633  -1.160178  5.583513
C    0.731613  -3.477210  4.842597
C    1.064596  -2.519935  5.827773
O    1.660723  -2.806000  6.992127
H    -1.447512  -2.129462  1.677734
H    -1.543976  -0.464805  2.230572
H    -0.162264  0.264865  4.278548
H    -0.211653  -3.847265  2.952944
H    0.986469  -0.426455  6.357702
H    0.925559  -4.536830  5.019013
H    1.716285  -3.764905  7.159093
O    0.290793  1.466073  0.952523
H    0.746388  2.283025  1.253289
Sr    2.609316  -1.645480  3.196674
