25
Energy: -104336.081549 eV PBE+vdW (tier 2 basis)
N    -0.661177  0.050135  0.056880
C    0.110354  -0.295323  1.209632
C    1.633468  -0.397782  1.053314
O    2.409338  -0.465914  2.038506
H    -0.626559  -0.633766  -0.697395
H    -0.462062  0.975559  -0.316818
H    -0.032172  0.496993  1.966451
C    -0.425234  -1.637324  1.812200
C    0.018781  -1.997063  3.208190
C    -0.384691  -1.232774  4.329657
C    0.784931  -3.152079  3.466279
C    -0.049410  -1.601024  5.636995
C    1.130816  -3.543166  4.771173
C    0.681615  -2.790098  5.879658
O    0.918187  -3.103133  7.161447
H    -0.192200  -2.460540  1.122185
H    -1.518484  -1.520496  1.798097
H    -1.006993  -0.347118  4.185221
H    1.100693  -3.784594  2.634812
H    -0.411533  -1.025894  6.490268
H    1.688263  -4.469342  4.925934
H    1.279926  -4.002438  7.267921
O    2.073334  -0.413521  -0.176842
H    3.052808  -0.474738  -0.209952
Sr    2.498000  -0.957559  4.305184
