25
Energy: -104334.600268 eV PBE+vdW (tier 2 basis)
N    -0.794642  0.690319  0.642132
C    -0.094324  0.259131  1.830847
C    1.400670  -0.001741  1.551789
O    1.824418  -0.227806  0.443528
H    -0.280586  0.385575  -0.191000
H    -0.888204  1.703360  0.597011
H    -0.184925  1.009524  2.627253
C    -0.704887  -1.096604  2.362729
C    -2.172760  -0.908522  2.579698
C    -2.712608  -0.614761  3.854154
C    -3.056360  -0.830155  1.468231
C    -4.063522  -0.279037  4.033458
C    -4.412277  -0.480265  1.628994
C    -4.919172  -0.149131  2.908479
O    -6.180250  0.231382  3.152957
H    -0.188919  -1.389063  3.285931
H    -0.506583  -1.862015  1.597647
H    -2.059197  -0.632316  4.729452
H    -2.681132  -1.052745  0.470567
H    -4.452876  -0.028637  5.021406
H    -5.054791  -0.400072  0.749109
H    -6.672929  0.448540  2.339345
O    2.120767  0.021494  2.687374
H    3.058705  -0.151897  2.462273
Sr    -4.055983  -2.942505  3.042762
