25
Energy: -104335.555581 eV PBE+vdW (tier 2 basis)
N    0.197454  -0.803033  0.165371
C    -0.015632  -0.193473  1.463663
C    1.098708  0.793988  1.796027
O    1.746271  1.350294  0.838012
H    -0.672268  -1.136306  -0.247923
H    0.639207  -0.155599  -0.487435
H    -0.915006  0.466297  1.482570
C    -0.307722  -1.229264  2.560830
C    0.847902  -2.259137  2.901238
C    0.297319  -3.182248  3.925313
C    1.401533  -2.936340  1.701665
C    0.180493  -4.517516  3.721463
C    1.274532  -4.277038  1.499781
C    0.649557  -5.080897  2.491875
O    0.560125  -6.365564  2.226640
H    -1.186680  -1.806261  2.242823
H    -0.578027  -0.710504  3.488760
H    -0.067002  -2.744603  4.856378
H    1.928096  -2.333217  0.967588
H    -0.259164  -5.168250  4.479409
H    1.669339  -4.769221  0.611879
H    0.149662  -6.876364  2.952969
O    1.325071  1.128337  3.014534
H    1.647823  -1.653428  3.370780
Sr    2.724938  2.872376  2.307396
