25
Energy: -104335.54791 eV PBE+vdW (tier 2 basis)
N    0.245640  -0.657195  0.805259
C    -0.634273  0.310385  1.557378
C    0.334563  1.262776  2.281414
O    1.306489  1.716476  1.621643
H    -0.353073  -1.172585  0.150155
H    0.554174  -1.373728  1.476967
H    -1.102169  0.952109  0.790302
C    -1.773190  -0.324656  2.390166
C    -1.379364  -0.817127  3.761237
C    -1.757898  -0.080040  4.904752
C    -0.614848  -1.979662  3.955010
C    -1.357837  -0.463600  6.182490
C    -0.214206  -2.377915  5.226816
C    -0.571784  -1.614423  6.353380
O    -0.225525  -1.932525  7.613574
H    -2.214332  -1.130848  1.782690
H    -2.566268  0.431111  2.485089
H    -2.434110  0.773824  4.802748
H    -0.379550  -2.633752  3.111269
H    -1.671165  0.097767  7.061372
H    0.353274  -3.301011  5.353561
H    0.270628  -2.768401  7.648305
O    0.183664  1.626934  3.505562
H    -0.491199  1.050288  4.001733
Sr    2.257835  0.715057  -0.180361
