25
Energy: -104336.701488 eV PBE+vdW (tier 2 basis)
N    -1.170891  1.071011  -0.010998
C    -0.774507  0.689950  1.404129
C    0.751343  0.760813  1.453591
O    1.314543  0.742147  2.578219
H    -2.020808  0.594826  -0.340053
H    -0.350012  0.820195  -0.606098
H    -1.244164  1.402581  2.088944
C    -1.197774  -0.780555  1.772080
C    -0.094273  -1.825029  1.786323
C    0.451249  -2.259632  3.009386
C    0.424471  -2.399206  0.607868
C    1.465003  -3.225047  3.067066
C    1.442087  -3.358186  0.639638
C    1.950214  -3.811636  1.877621
O    2.895297  -4.766658  1.833614
H    -2.003513  -1.101778  1.093771
H    -1.651831  -0.734403  2.768301
H    0.079953  -1.839496  3.944631
H    0.023374  -2.113164  -0.365214
H    1.830844  -3.564709  4.037926
H    1.798906  -3.826197  -0.278052
H    3.080213  -5.143651  2.713185
O    1.360247  0.583735  0.342574
H    -1.323280  2.085288  -0.103551
Sr    2.864309  -0.853199  1.658099
