25
Energy: -104335.722604 eV PBE+vdW (tier 2 basis)
N    -1.183298  -0.526106  0.219528
C    -0.291592  -0.221333  1.392555
C    1.221044  -0.340381  1.101324
O    2.040349  -0.442870  1.974619
H    -0.786705  -0.033145  -0.591492
H    -1.040817  -1.514711  -0.026493
H    -0.446965  0.843795  1.638310
C    -0.672922  -1.080576  2.611209
C    -2.135766  -0.952391  2.958223
C    -2.666094  0.246067  3.485645
C    -3.044372  -2.009426  2.725808
C    -4.034860  0.398755  3.749746
C    -4.415656  -1.878624  2.979917
C    -4.927629  -0.678158  3.527528
O    -6.239568  -0.641575  3.785497
H    -0.037744  -0.771671  3.452031
H    -0.423910  -2.133339  2.413945
H    -1.997823  1.078351  3.717247
H    -2.671885  -2.966409  2.354461
H    -4.398588  1.328896  4.191349
H    -5.096179  -2.717895  2.830242
H    -6.504016  0.149419  4.291214
O    1.464376  -0.271519  -0.226410
H    2.433817  -0.306172  -0.368955
Sr    -3.664295  -0.030125  0.785026
