25
Energy: -104336.581829 eV PBE+vdW (tier 2 basis)
N    0.418841  -0.216611  -0.216290
C    0.698600  -0.680060  1.195255
C    2.233213  -0.963889  1.173510
O    2.756576  -1.273922  2.307306
H    0.173757  0.777832  -0.279532
H    -0.302727  -0.759270  -0.704869
H    0.485172  0.150865  1.878702
C    -0.146979  -1.925564  1.544110
C    0.118173  -2.543697  2.903638
C    -0.169892  -1.864497  4.103929
C    0.589183  -3.868366  3.009508
C    -0.008761  -2.474996  5.355825
C    0.750173  -4.500738  4.249508
C    0.414612  -3.821508  5.442018
O    0.549872  -4.502871  6.591056
H    0.020953  -2.693089  0.773784
H    -1.212620  -1.651315  1.491961
H    -0.554079  -0.843467  4.077796
H    0.810909  -4.437065  2.104814
H    -0.280299  -1.926848  6.260140
H    1.062376  -5.544147  4.307607
H    0.159276  -4.033935  7.351044
O    2.797572  -0.885140  0.083669
H    1.390702  -0.382238  -0.659774
Sr    2.829955  -2.382227  4.212392
