25
Energy: -104335.618917 eV PBE+vdW (tier 2 basis)
N    -0.025402  0.719131  0.795242
C    0.015067  -0.138530  2.015170
C    1.451164  -0.323349  2.445311
O    2.381283  -0.242384  1.610007
H    -0.194455  1.690137  1.079204
H    -0.888460  0.431880  0.295129
H    -0.583523  0.307537  2.823426
C    -0.587574  -1.562000  1.682898
C    -1.887490  -1.444710  0.942281
C    -1.932984  -1.623338  -0.454644
C    -3.085798  -1.138088  1.610102
C    -3.120152  -1.500586  -1.164521
C    -4.281730  -1.015275  0.915515
C    -4.309164  -1.192014  -0.480845
O    -5.426317  -1.095079  -1.222666
H    -0.699371  -2.106287  2.630709
H    0.143243  -2.126343  1.081107
H    -1.032041  -1.938973  -0.990358
H    -3.094624  -1.017817  2.694964
H    -3.162374  -1.674792  -2.238465
H    -5.203896  -0.798159  1.456236
H    -6.207793  -0.925262  -0.668141
O    1.759568  -0.670868  3.667851
H    0.992929  -0.699131  4.274928
Sr    2.163896  0.463299  -0.560436
