25
Energy: -104336.870661 eV PBE+vdW (tier 2 basis)
N    -0.451174  0.913385  2.438552
C    0.156840  -0.375443  2.002728
C    -0.001685  -0.456557  0.491497
O    -0.973734  0.047875  -0.095100
H    -0.435595  0.948888  3.462669
H    0.163493  1.682663  2.149388
H    1.226134  -0.444950  2.249024
C    -0.576804  -1.579108  2.682803
C    -2.083161  -1.513515  2.565640
C    -2.862765  -0.856904  3.545145
C    -2.766710  -2.052819  1.456947
C    -4.243864  -0.698612  3.407148
C    -4.151339  -1.910360  1.299672
C    -4.913141  -1.246415  2.287649
O    -6.242038  -1.088695  2.241641
H    -0.280252  -1.579054  3.741056
H    -0.183690  -2.510559  2.254774
H    -2.386980  -0.475683  4.450451
H    -2.215203  -2.603923  0.694091
H    -4.835065  -0.220004  4.188293
H    -4.646407  -2.366820  0.440571
H    -6.655611  -1.603746  1.524540
O    0.946420  -1.135351  -0.106844
H    0.790442  -1.190899  -1.075287
Sr    -2.826111  0.893604  1.222956
