25
Energy: -104335.230287 eV PBE+vdW (tier 2 basis)
N    -0.098262  0.459595  0.306165
C    0.291996  -0.058902  1.582387
C    1.708343  -0.655565  1.600532
O    2.350293  -1.115191  0.719017
H    -0.173991  -0.256059  -0.417434
H    0.509672  1.202693  -0.035961
H    0.284167  0.779259  2.305292
C    -0.740571  -1.131331  2.048010
C    -0.758176  -1.431909  3.525545
C    -0.174211  -2.601684  4.063305
C    -1.415061  -0.567462  4.430382
C    -0.237115  -2.899004  5.430896
C    -1.495617  -0.848557  5.803364
C    -0.939984  -2.045856  6.316156
O    -1.003778  -2.425150  7.598154
H    -0.587396  -2.055962  1.474411
H    -1.717005  -0.727274  1.746233
H    0.320437  -3.311423  3.397654
H    -1.906444  0.332706  4.054264
H    0.181269  -3.827989  5.820982
H    -2.053076  -0.176764  6.459562
H    -1.624054  -1.885043  8.122749
O    2.334848  -0.593545  2.951551
H    3.255035  -0.884959  2.769761
Sr    1.366272  -0.465052  5.187043
