25
Energy: -104335.724544 eV PBE+vdW (tier 2 basis)
N    0.222888  -0.130068  0.099134
C    -0.159718  -0.207809  1.552573
C    0.883304  0.386830  2.524999
O    0.905336  0.114512  3.695343
H    1.064496  -0.707581  -0.028421
H    0.576281  0.822043  -0.064319
H    -1.053897  0.427652  1.677217
C    -0.506037  -1.652444  1.953725
C    -1.558002  -2.253280  1.054440
C    -1.248592  -3.285188  0.144761
C    -2.890022  -1.773201  1.054447
C    -2.204320  -3.809273  -0.741646
C    -3.856126  -2.275941  0.177471
C    -3.534111  -3.329390  -0.714981
O    -4.525451  -3.787604  -1.487098
H    -0.841371  -1.639685  2.999529
H    0.403589  -2.269974  1.935293
H    -0.241995  -3.708034  0.133660
H    -3.188680  -1.003663  1.769796
H    -1.931107  -4.632572  -1.404901
H    -4.887323  -1.922422  0.217152
H    -4.285247  -4.601373  -1.968219
O    1.699940  1.253135  1.884893
H    2.316605  1.643512  2.539588
Sr    -1.725360  -0.925002  -1.416287
