25
Energy: -104335.592933 eV PBE+vdW (tier 2 basis)
N    0.009371  0.255338  0.342141
C    0.219699  0.013980  1.800960
C    1.620410  -0.499980  2.030615
O    2.253712  -1.072245  1.113029
H    -1.004228  0.083569  0.191696
H    0.127704  1.257353  0.157056
H    0.049912  0.938691  2.372533
C    -0.807091  -1.071975  2.312834
C    -2.204149  -0.743770  1.871117
C    -2.931635  0.299461  2.477352
C    -2.820037  -1.469507  0.836469
C    -4.219633  0.603052  2.071508
C    -4.117203  -1.178826  0.419937
C    -4.827434  -0.136274  1.037327
O    -6.085056  0.210079  0.710360
H    -0.722987  -1.121481  3.407653
H    -0.505145  -2.059258  1.928650
H    -2.495453  0.866405  3.302249
H    -2.305731  -2.325458  0.390919
H    -4.791435  1.394316  2.553905
H    -4.589788  -1.778752  -0.358696
H    -6.449620  -0.375121  0.024008
O    2.178447  -0.450365  3.212492
H    1.642832  0.019925  3.882635
Sr    1.640089  -1.165077  -1.087203
