17
Energy: -13404.4463035 eV PBE+vdW (tier 2 basis)
N    0.064794  -0.075085  0.065275
C    -0.125190  0.099472  1.506411
C    1.177328  0.432530  2.221533
O    1.454397  0.126870  3.362741
H    -0.858762  -0.056355  -0.371380
H    0.599753  0.703711  -0.317455
H    -0.793237  0.955464  1.749013
C    -0.754932  -1.150464  2.117965
C    -2.203419  -1.332289  1.675539
O    -2.793779  -0.531209  0.953961
N    -2.809262  -2.460535  2.147575
H    -0.712450  -1.087645  3.215071
H    -0.167648  -2.032359  1.819618
H    -2.332236  -3.121198  2.745923
H    -3.772236  -2.637269  1.890006
O    2.003460  1.190014  1.447570
H    2.783254  1.385339  2.002239
