17
Energy: -13404.40249 eV PBE+vdW (tier 2 basis)
N    -0.761962  0.460876  0.132821
C    -0.823495  0.103339  1.548741
C    0.613756  -0.092853  2.095449
O    1.117585  0.714209  2.845795
H    -1.657941  0.814986  -0.199865
H    -0.495389  -0.331062  -0.452209
H    -1.180192  0.989273  2.088056
C    -1.793076  -1.059657  1.924841
C    -1.690092  -2.277928  1.024847
O    -0.614355  -2.679559  0.556087
N    -2.849872  -2.918713  0.742483
H    -2.823724  -0.674884  1.912275
H    -1.595590  -1.390955  2.958327
H    -3.735128  -2.621819  1.129318
H    -2.814694  -3.769240  0.192031
O    1.272051  -1.192427  1.690560
H    0.654116  -1.794585  1.178443
