17
Energy: -13404.4695902 eV PBE+vdW (tier 2 basis)
N    -1.170696  0.923054  0.802950
C    -0.434451  0.246167  1.864971
C    0.884942  0.961439  2.099235
O    1.167383  2.058248  1.663427
H    -2.171231  0.866820  0.984354
H    -0.896392  1.905536  0.770656
H    -0.959140  0.282486  2.841611
C    -0.246429  -1.239397  1.529218
C    -1.596064  -1.956354  1.517107
O    -2.560331  -1.564924  2.168098
N    -1.639074  -3.093138  0.763795
H    0.383328  -1.730151  2.286250
H    0.255325  -1.334232  0.555559
H    -0.874970  -3.367510  0.161745
H    -2.508803  -3.609954  0.717914
O    1.726208  0.253879  2.904034
H    2.512395  0.820032  3.027077
