17
Energy: -13404.4288542 eV PBE+vdW (tier 2 basis)
N    1.094948  -0.413266  3.009633
C    0.250918  -0.097726  1.870421
C    0.051564  1.409229  1.812217
O    0.010126  2.144842  2.775058
H    0.722284  0.004705  3.862586
H    1.157132  -1.424414  3.120150
H    0.767509  -0.416870  0.954497
C    -1.159177  -0.743212  1.861470
C    -1.089583  -2.270327  1.816465
O    -0.052202  -2.889651  1.604460
N    -2.282148  -2.902381  2.026991
H    -1.728815  -0.402497  0.980687
H    -1.720146  -0.420216  2.752901
H    -3.145375  -2.396995  2.173787
H    -2.310197  -3.912944  1.966324
O    -0.133244  1.848722  0.535892
H    -0.301592  2.809001  0.604463
