17
Energy: -13404.2930818 eV PBE+vdW (tier 2 basis)
N    0.914692  -0.865287  -0.053955
C    -0.125325  -0.025809  0.534961
C    0.394876  0.742098  1.744710
O    0.126842  1.893238  2.001795
H    0.586328  -1.247319  -0.941258
H    1.133944  -1.660737  0.547179
H    -0.351585  0.770157  -0.186610
C    -1.495269  -0.713290  0.854835
C    -1.458870  -2.143675  1.398988
O    -2.103638  -3.037101  0.859704
N    -0.708033  -2.365116  2.518502
H    -2.065666  -0.783750  -0.078453
H    -2.080616  -0.079492  1.540410
H    -0.080952  -1.667479  2.904718
H    -0.656942  -3.316351  2.862992
O    1.180581  -0.022261  2.571167
H    1.454632  0.572172  3.297314
