17
Energy: -13404.3615903 eV PBE+vdW (tier 2 basis)
N    -0.179657  0.282684  3.985294
C    -0.062696  -0.232830  2.621034
C    0.363417  0.858950  1.633543
O    -0.064522  1.990766  1.607303
H    0.721581  0.635889  4.310124
H    -0.820315  1.079812  3.996496
H    0.706057  -1.018768  2.626022
C    -1.419734  -0.842373  2.210616
C    -1.532799  -1.827122  1.044623
O    -2.588111  -2.421521  0.856572
N    -0.430164  -2.039634  0.265479
H    -2.144614  -0.037193  2.014608
H    -1.797406  -1.381241  3.090194
H    0.387758  -1.440699  0.290057
H    -0.552297  -2.653545  -0.531559
O    1.320395  0.415877  0.754477
H    1.509106  1.163949  0.153117
