17
Energy: -13404.4394849 eV PBE+vdW (tier 2 basis)
N    -0.936954  0.654309  0.288975
C    -0.591739  0.214821  1.649899
C    0.914557  0.250347  1.903183
O    1.462443  -0.286725  2.838529
H    -1.941250  0.821282  0.223795
H    -0.462051  1.526265  0.058426
H    -0.993316  0.897596  2.427134
C    -1.161638  -1.181211  1.959843
C    -0.654393  -2.374258  1.136671
O    -0.713242  -3.512613  1.587339
N    -0.154972  -2.072559  -0.094616
H    -2.257171  -1.148021  1.848376
H    -0.962487  -1.429087  3.008027
H    -0.288097  -1.130745  -0.470304
H    0.130079  -2.841300  -0.689586
O    1.581243  1.017050  0.993165
H    2.517989  1.001848  1.270145
