17
Energy: -13404.3776295 eV PBE+vdW (tier 2 basis)
N    0.431593  1.124244  -0.292237
C    -0.139390  0.382547  0.828034
C    0.950799  -0.322970  1.620025
O    0.852117  -0.649495  2.791304
H    -0.310275  1.607703  -0.798474
H    0.891563  0.496103  -0.952023
H    -0.582122  1.115410  1.518655
C    -1.248884  -0.654392  0.443817
C    -2.372784  -0.953702  1.445740
O    -3.516697  -1.149240  1.042732
N    -2.033129  -0.989937  2.761772
H    -0.788679  -1.611071  0.148066
H    -1.760810  -0.271973  -0.447748
H    -1.068645  -0.885510  3.077955
H    -2.761900  -1.221015  3.425964
O    2.038077  -0.628936  0.876877
H    2.644165  -1.117768  1.467541
