17
Energy: -13404.3898965 eV PBE+vdW (tier 2 basis)
N    1.580887  -0.081404  2.935015
C    1.105311  -1.011815  1.923973
C    1.032126  -0.383745  0.538718
O    1.160111  -0.994560  -0.501327
H    1.038938  0.782801  2.900681
H    1.423138  -0.494954  3.857722
H    1.836950  -1.828168  1.824702
C    -0.289935  -1.672729  2.198762
C    -0.209087  -2.568919  3.425227
O    0.033883  -2.129483  4.547918
N    -0.385349  -3.902223  3.191464
H    -0.613004  -2.232528  1.309738
H    -1.025529  -0.881252  2.398162
H    -0.570770  -4.270306  2.268729
H    -0.304998  -4.544566  3.970843
O    0.741219  0.944983  0.583240
H    0.689109  1.239870  -0.346566
