17
Energy: -13404.308199 eV PBE+vdW (tier 2 basis)
N    0.270403  -0.953017  3.006973
C    0.790271  -1.227657  1.678619
C    1.868349  -0.197787  1.354379
O    2.375305  0.550441  2.161840
H    1.004419  -0.576789  3.606314
H    -0.123027  -1.788638  3.434158
H    1.339369  -2.195218  1.602782
C    -0.342347  -1.225316  0.632896
C    -1.447153  -2.253587  0.870206
O    -2.630092  -1.982917  0.722513
N    -1.034138  -3.505874  1.265394
H    0.072987  -1.402688  -0.370526
H    -0.834020  -0.245962  0.628850
H    -0.068871  -3.797324  1.171494
H    -1.740446  -4.232892  1.280978
O    2.244909  -0.242162  0.047957
H    2.957080  0.419387  -0.047830
