17
Energy: -13404.3771935 eV PBE+vdW (tier 2 basis)
N    0.745935  -0.334221  -0.525867
C    -0.187000  -0.097052  0.585150
C    0.484233  0.756384  1.662673
O    0.417564  1.963612  1.740101
H    1.589980  -0.805501  -0.195612
H    1.035038  0.551476  -0.942785
H    -1.018243  0.507061  0.198761
C    -0.740388  -1.435723  1.093306
C    -1.875092  -1.242578  2.098226
O    -3.016304  -0.970333  1.745577
N    -1.524361  -1.393700  3.412219
H    0.072967  -2.046679  1.509582
H    -1.157312  -1.961581  0.226359
H    -0.553857  -1.462747  3.690068
H    -2.218083  -1.172759  4.117060
O    1.276762  0.015248  2.507483
H    1.725163  0.667093  3.080700
