17
Energy: -13404.4153909 eV PBE+vdW (tier 2 basis)
N    1.718098  -1.956092  1.387875
C    0.396452  -1.411625  1.059196
C    0.525028  0.110552  1.124311
O    0.521174  0.785813  2.140463
H    1.898013  -1.875153  2.390251
H    1.751844  -2.948954  1.157767
H    0.207996  -1.654129  0.005343
C    -0.808428  -1.946151  1.883978
C    -0.546754  -2.250343  3.365017
O    -0.734075  -3.375852  3.820001
N    -0.106804  -1.207373  4.120562
H    -1.124119  -2.901583  1.449706
H    -1.660637  -1.252556  1.800244
H    0.091134  -0.298147  3.701362
H    0.077771  -1.376275  5.101845
O    0.661187  0.659617  -0.102578
H    0.777120  1.621251  0.034658
