17
Energy: -13404.5022916 eV PBE+vdW (tier 2 basis)
N    -0.744141  -0.009227  0.208761
C    -0.541062  0.111855  1.658939
C    0.494016  1.153688  2.088901
O    0.394198  1.877275  3.055305
H    -1.092086  0.868812  -0.177067
H    0.145298  -0.201886  -0.255534
H    -1.488045  0.442776  2.107971
C    -0.146479  -1.242844  2.287516
C    -1.202889  -2.358945  2.270373
O    -1.238700  -3.196109  3.166044
N    -2.048908  -2.351636  1.206368
H    0.116970  -1.097890  3.341821
H    0.756900  -1.627897  1.786046
H    -1.920681  -1.658037  0.466357
H    -2.737912  -3.090318  1.135860
O    1.584049  1.162757  1.264757
H    2.198471  1.823626  1.638583
