17
Energy: -13404.3886855 eV PBE+vdW (tier 2 basis)
N    1.694823  0.852940  2.935219
C    1.100362  -0.353310  2.362082
C    0.940073  -0.152277  0.863138
O    1.543268  0.671201  0.206043
H    2.236272  1.331343  2.212922
H    2.331546  0.610427  3.692473
H    1.744967  -1.251654  2.454680
C    -0.221032  -0.714256  3.069087
C    -0.551937  -2.201827  2.976709
O    0.307609  -3.068074  3.101359
N    -1.874376  -2.500369  2.815592
H    -1.042195  -0.073362  2.719943
H    -0.082604  -0.491956  4.137525
H    -2.551709  -1.790775  2.571945
H    -2.134556  -3.474538  2.716858
O    0.056800  -1.027333  0.311481
H    0.070690  -0.851181  -0.649056
