17
Energy: -13404.3329245 eV PBE+vdW (tier 2 basis)
N    1.521363  -1.634994  -0.064649
C    0.581641  -0.762783  0.617169
C    1.105743  -0.519198  2.029315
O    1.866648  -1.256645  2.616578
H    1.126002  -2.042224  -0.909525
H    1.843910  -2.374386  0.560452
H    0.556410  0.211441  0.104290
C    -0.906325  -1.246957  0.692538
C    -1.124294  -2.410421  1.653437
O    -1.421933  -2.235042  2.829688
N    -0.954632  -3.661226  1.123185
H    -1.224091  -1.498250  -0.330533
H    -1.532756  -0.420784  1.049338
H    -0.605002  -3.803269  0.185479
H    -0.980534  -4.452525  1.755748
O    0.592499  0.616059  2.562549
H    0.895351  0.643204  3.490940
