17
Energy: -13404.5300243 eV PBE+vdW (tier 2 basis)
N    0.057957  0.150323  -0.001868
C    0.041588  -0.183554  1.426435
C    1.469164  -0.527822  1.843482
O    2.456199  -0.272744  1.184398
H    -0.706348  0.781573  -0.235772
H    0.942376  0.607514  -0.231315
H    -0.219892  0.686990  2.062638
C    -0.981712  -1.290293  1.757941
C    -0.716989  -2.692794  1.193424
O    -1.041671  -3.697894  1.817579
N    -0.122462  -2.718910  -0.029849
H    -1.967957  -0.963352  1.391526
H    -1.071362  -1.406924  2.842982
H    0.063598  -1.839117  -0.516999
H    0.056883  -3.617608  -0.460597
O    1.516421  -1.108051  3.065640
H    2.460393  -1.269779  3.257611
