17
Energy: -13404.4421567 eV PBE+vdW (tier 2 basis)
N    0.712033  -1.475132  -0.297440
C    0.370760  -0.632418  0.839635
C    1.404010  -0.635035  1.973274
O    1.989442  -1.614023  2.406437
H    0.763231  -2.458149  -0.027773
H    1.617093  -1.216999  -0.689004
H    0.318725  0.406508  0.483886
C    -1.040037  -0.972328  1.375633
C    -1.408790  -2.422859  1.723211
O    -2.578407  -2.782458  1.646136
N    -0.406529  -3.261627  2.116344
H    -1.767787  -0.671434  0.612889
H    -1.252463  -0.365238  2.269700
H    0.538989  -2.933273  2.315030
H    -0.682360  -4.188462  2.419669
O    1.611686  0.609067  2.471757
H    2.252403  0.512861  3.204616
