17
Energy: -13404.3299785 eV PBE+vdW (tier 2 basis)
N    -0.506182  0.608165  0.142606
C    -0.456844  0.462815  1.587746
C    0.034220  -0.945656  1.901850
O    0.729857  -1.611324  1.168184
H    0.339209  0.235160  -0.287025
H    -0.620884  1.582757  -0.128370
H    0.315876  1.096788  2.084125
C    -1.798993  0.871091  2.229377
C    -3.032543  0.226745  1.592282
O    -3.814649  0.865311  0.899588
N    -3.205560  -1.101150  1.865305
H    -1.926746  1.952136  2.096574
H    -1.765834  0.671310  3.308993
H    -2.576287  -1.614415  2.468845
H    -3.985390  -1.581896  1.434746
O    -0.326917  -1.373469  3.152154
H    0.128667  -2.229367  3.275022
