17
Energy: -13404.4306563 eV PBE+vdW (tier 2 basis)
N    0.552080  -0.269416  -0.107844
C    0.152581  -0.177672  1.307407
C    1.426805  -0.367397  2.174292
O    2.117991  0.604217  2.414831
H    1.423467  0.245472  -0.245191
H    -0.144090  0.191276  -0.696763
H    -0.188385  0.833286  1.593108
C    -1.038911  -1.124634  1.570819
C    -0.829033  -2.543572  1.071491
O    0.098966  -3.255702  1.481219
N    -1.729682  -3.019254  0.181073
H    -1.935411  -0.685362  1.107906
H    -1.237245  -1.176065  2.651909
H    -2.452473  -2.434959  -0.214332
H    -1.592471  -3.950692  -0.194511
O    1.737939  -1.584973  2.616336
H    1.122872  -2.291554  2.227250
