17
Energy: -13404.3843621 eV PBE+vdW (tier 2 basis)
N    1.754877  -0.456276  0.257694
C    0.323722  -0.497623  0.602292
C    -0.100802  0.804333  1.284258
O    -0.395875  1.822053  0.695903
H    2.320040  -0.321333  1.098584
H    1.938662  0.341794  -0.352043
H    -0.244812  -0.529442  -0.335650
C    0.032649  -1.759593  1.408733
C    -1.455647  -1.942372  1.690549
O    -2.314136  -1.192277  1.239193
N    -1.766270  -3.015695  2.477615
H    0.587177  -1.747192  2.359805
H    0.405996  -2.621797  0.835358
H    -1.062205  -3.633902  2.856864
H    -2.740268  -3.192479  2.689855
O    0.002225  0.745457  2.646861
H    -0.234332  1.637346  2.967129
