17
Energy: -13404.4125069 eV PBE+vdW (tier 2 basis)
N    1.037963  -0.821160  0.040381
C    -0.031567  -0.392564  0.954299
C    0.590109  0.447565  2.068100
O    0.423499  0.304105  3.263312
H    1.544942  -0.010687  -0.316179
H    0.622028  -1.292282  -0.763529
H    -0.778593  0.272505  0.469759
C    -0.767420  -1.624699  1.505018
C    -2.187097  -1.317024  1.989268
O    -3.157001  -1.427761  1.244400
N    -2.287577  -0.932365  3.294319
H    -0.158691  -2.097118  2.286912
H    -0.884926  -2.340661  0.683196
H    -1.452530  -0.638942  3.793139
H    -3.192913  -0.613106  3.619060
O    1.369393  1.436791  1.560014
H    1.728379  1.926401  2.325533
