17
Energy: -13404.323826 eV PBE+vdW (tier 2 basis)
N    0.009207  0.204361  3.964390
C    0.031737  -0.253154  2.583314
C    0.711322  0.831736  1.762954
O    0.705758  2.013388  2.020949
H    -0.307571  1.174223  4.007963
H    -0.622524  -0.367293  4.523089
H    0.644763  -1.165627  2.525228
C    -1.377820  -0.567544  1.956956
C    -1.494269  -1.805858  1.065528
O    -2.366624  -2.645649  1.265692
N    -0.597693  -1.912093  0.042863
H    -1.758255  0.309510  1.409838
H    -2.073817  -0.745726  2.784303
H    0.159410  -1.250191  -0.088703
H    -0.639003  -2.743829  -0.533220
O    1.305277  0.334429  0.632225
H    1.655101  1.109315  0.149630
