17
Energy: -13404.4494137 eV PBE+vdW (tier 2 basis)
N    -0.018797  -0.288984  -0.073938
C    -0.059837  -0.397177  1.376141
C    1.194686  -0.940119  2.085350
O    1.213543  -1.442664  3.193175
H    0.895225  0.026128  -0.393685
H    -0.210258  -1.202253  -0.493589
H    -0.163348  0.622413  1.796145
C    -1.304375  -1.186333  1.830767
C    -1.234117  -2.651581  1.408849
O    -1.339628  -2.999280  0.233132
N    -1.052939  -3.545636  2.425752
H    -2.175477  -0.740184  1.335226
H    -1.426695  -1.086628  2.914894
H    -0.694385  -3.222761  3.316991
H    -0.871682  -4.508793  2.164461
O    2.325849  -0.741782  1.358980
H    3.062234  -1.069366  1.911349
