17
Energy: -13404.4702058 eV PBE+vdW (tier 2 basis)
N    2.432793  -1.329726  1.488370
C    1.034231  -1.430629  1.095348
C    0.326253  -0.070002  0.970996
O    0.889184  0.994348  0.846468
H    2.919398  -0.706716  0.842606
H    2.471656  -0.865227  2.399227
H    1.002195  -1.847491  0.072762
C    0.286070  -2.424320  1.991290
C    0.142718  -1.926195  3.427306
O    0.500902  -0.805432  3.779485
N    -0.421624  -2.813930  4.296302
H    0.842255  -3.373185  1.987282
H    -0.716562  -2.625988  1.588155
H    -0.708045  -3.741430  4.014451
H    -0.540942  -2.536320  5.262639
O    -1.032948  -0.196599  0.915146
H    -1.377533  0.709844  0.797167
