17
Energy: -13404.3131895 eV PBE+vdW (tier 2 basis)
N    0.839076  0.265360  -0.351780
C    -0.159719  0.203079  0.716558
C    0.473314  0.797039  1.973707
O    0.142914  1.821513  2.521720
H    1.568130  -0.435108  -0.212040
H    0.402764  0.083509  -1.255196
H    -0.978629  0.884525  0.454854
C    -0.754083  -1.207746  0.980790
C    -1.878350  -1.178218  2.011996
O    -3.023503  -0.857242  1.717088
N    -1.509522  -1.508138  3.287956
H    0.053796  -1.894714  1.270707
H    -1.192764  -1.564565  0.040512
H    -0.544469  -1.680347  3.536900
H    -2.190612  -1.390627  4.028751
O    1.501742  0.012951  2.432885
H    1.883917  0.496729  3.190593
