17
Energy: -13404.4355701 eV PBE+vdW (tier 2 basis)
N    0.759776  -0.203308  -0.089369
C    0.411799  0.096207  1.306014
C    1.661129  -0.159273  2.184494
O    2.754751  0.186802  1.789467
H    0.283111  0.442040  -0.718883
H    1.764313  -0.043078  -0.202383
H    0.218230  1.175448  1.465888
C    -0.877573  -0.648142  1.714687
C    -0.632567  -2.132741  1.921451
O    -0.524265  -2.598803  3.063797
N    -0.487421  -2.871398  0.792306
H    -1.632422  -0.475346  0.935145
H    -1.272339  -0.246690  2.655588
H    -0.234250  -2.365889  -0.056519
H    -0.136714  -3.817399  0.905643
O    1.500164  -0.684238  3.411558
H    0.664280  -1.211192  3.500115
