17
Energy: -13404.5998088 eV PBE+vdW (tier 2 basis)
N    -0.361716  -0.022768  -0.143539
C    -0.086525  0.068229  1.303938
C    1.437800  0.282087  1.483228
O    2.059749  0.623736  0.351584
H    -0.390879  -0.996572  -0.449280
H    -1.260557  0.394434  -0.378785
H    -0.550149  1.002970  1.659612
C    -0.632666  -1.109265  2.146086
C    -1.087230  -0.746736  3.569984
O    -2.263139  -0.872610  3.904344
N    -0.108707  -0.297930  4.395534
H    0.113700  -1.917170  2.187887
H    -1.532010  -1.499348  1.656804
H    0.831520  -0.125672  4.032062
H    -0.368608  -0.004284  5.329035
O    2.020309  0.173642  2.546811
H    1.324107  0.585256  -0.331305
