17
Energy: -13404.6185674 eV PBE+vdW (tier 2 basis)
N    0.203271  -0.296819  -0.046266
C    0.034870  -0.108477  1.402711
C    1.421899  -0.127553  2.090422
O    1.593176  0.190887  3.246823
H    -0.610476  -0.796400  -0.422667
H    0.251729  0.602669  -0.523967
H    -0.432525  0.855389  1.664291
C    -0.803971  -1.247196  2.018158
C    -2.228483  -1.253289  1.482937
O    -2.471933  -1.403655  0.284215
N    -3.212715  -1.069014  2.404943
H    -0.765379  -1.150762  3.109995
H    -0.347451  -2.211851  1.748118
H    -3.014796  -0.951603  3.389104
H    -4.177103  -1.071481  2.093863
O    2.395582  -0.564285  1.276514
H    1.908933  -0.721662  0.410795
