17
Energy: -13404.6060539 eV PBE+vdW (tier 2 basis)
N    0.456426  -1.170832  0.063773
C    0.119992  -0.338698  1.229748
C    1.418853  0.067517  1.961021
O    1.444309  0.529395  3.080929
H    0.483096  -2.159746  0.320049
H    -0.270106  -1.071044  -0.645618
H    -0.293798  0.601265  0.830239
C    -0.903665  -0.917647  2.203678
C    -2.299823  -0.988781  1.589473
O    -2.549264  -0.599066  0.451240
N    -3.257298  -1.535482  2.394674
H    -0.923522  -0.292452  3.109478
H    -0.593437  -1.922742  2.534595
H    -3.078020  -1.761095  3.364213
H    -4.213946  -1.548577  2.062154
O    2.517876  -0.108923  1.206269
H    2.160327  -0.527092  0.371084
