17
Energy: -13404.4062315 eV PBE+vdW (tier 2 basis)
N    -0.473624  0.440649  -0.929832
C    -0.706027  -0.089169  0.410251
C    -0.103088  0.715109  1.565118
O    -0.553460  0.744849  2.698718
H    -0.805802  1.402448  -1.003567
H    0.524463  0.458496  -1.144227
H    -1.792008  -0.085358  0.586984
C    -0.207075  -1.555004  0.462960
C    -0.804628  -2.547264  1.468620
O    -0.707876  -3.751449  1.252584
N    -1.437703  -2.040278  2.563018
H    0.886725  -1.582278  0.593383
H    -0.407776  -1.985144  -0.526571
H    -1.358267  -1.058866  2.829207
H    -1.761425  -2.711020  3.250193
O    1.019479  1.392295  1.218769
H    1.336091  1.827983  2.034391
