17
Energy: -13404.4029146 eV PBE+vdW (tier 2 basis)
N    2.187708  -0.625340  2.095948
C    1.152089  -1.347678  1.372067
C    -0.090283  -0.481796  1.109904
O    -1.227742  -0.915005  1.029750
H    2.023789  -0.695737  3.103112
H    3.092817  -1.062442  1.928616
H    1.540111  -1.539889  0.355855
C    0.734372  -2.724605  1.960089
C    0.255739  -2.606978  3.403334
O    1.045913  -2.540260  4.344824
N    -1.099401  -2.572423  3.570223
H    1.622100  -3.368209  1.968191
H    -0.027924  -3.184744  1.319082
H    -1.689608  -2.354825  2.773384
H    -1.444849  -2.353993  4.498263
O    0.203044  0.820319  0.910576
H    -0.649873  1.251606  0.704781
