17
Energy: -13404.4637965 eV PBE+vdW (tier 2 basis)
N    0.544516  0.583640  3.692589
C    0.383871  -0.138317  2.420421
C    -0.320161  0.761638  1.402538
O    -1.520385  0.808275  1.199095
H    1.144093  1.400508  3.571201
H    -0.360566  0.916645  4.030585
H    1.388787  -0.373973  2.043963
C    -0.389446  -1.439590  2.658077
C    -0.386319  -2.357628  1.434823
O    0.536403  -3.132796  1.207472
N    -1.487046  -2.254604  0.629851
H    -1.415143  -1.202369  2.975270
H    0.114793  -1.975271  3.469757
H    -2.109770  -1.459139  0.721565
H    -1.470287  -2.755946  -0.250905
O    0.557171  1.596546  0.783970
H    0.023489  2.184381  0.213728
