17
Energy: -13404.5716901 eV PBE+vdW (tier 2 basis)
N    -1.702354  -0.508565  2.760906
C    -0.394532  -0.216918  2.167702
C    -0.035316  1.268140  2.254615
O    -0.842147  2.170692  2.340872
H    -2.379215  0.181232  2.423554
H    -1.660988  -0.383842  3.773138
H    0.371919  -0.784811  2.715269
C    -0.341092  -0.634169  0.678905
C    -0.429233  -2.137993  0.376651
O    0.200644  -2.625903  -0.556599
N    -1.256849  -2.848368  1.186855
H    0.597106  -0.292879  0.227632
H    -1.159494  -0.130086  0.138294
H    -1.760686  -2.364994  1.934431
H    -1.366175  -3.840122  1.014879
O    1.307182  1.469843  2.196296
H    1.443232  2.437743  2.207599
