24
Energy: -33642.1230993 eV PBE+vdW (tier 2 basis)
N    -0.173472  1.334932  1.054660
C    0.085597  0.644253  2.322150
C    1.585108  0.276106  2.271482
O    2.165637  -0.345558  3.200729
H    -0.507551  2.291789  1.167651
H    -0.813150  0.839215  0.432557
H    -0.030646  1.348188  3.160889
C    -0.818755  -0.596147  2.550916
C    -0.514611  -1.431937  3.775693
C    -0.133294  -2.785245  3.643586
C    -0.640358  -0.906185  5.082028
C    0.103593  -3.590530  4.772122
C    -0.395455  -1.703000  6.212264
C    -0.019378  -3.051120  6.063734
H    -0.773892  -1.237690  1.659107
H    -1.854803  -0.232897  2.627064
H    -0.044825  -3.224991  2.648821
H    -0.959334  0.127592  5.225288
H    0.362947  -4.641902  4.640345
H    -0.526582  -1.280226  7.209221
H    0.137303  -3.678757  6.941413
O    2.187531  0.660625  1.214112
H    1.377848  1.136334  0.704598
Ca    2.050542  -1.620849  4.876573
