24
Energy: -33640.7319675 eV PBE+vdW (tier 2 basis)
N    0.408739  1.079422  0.090580
C    0.264459  0.452654  1.374529
C    1.670245  -0.022632  1.748850
O    2.371034  0.709904  2.534859
H    -0.172622  1.897529  -0.061954
H    0.424886  0.465281  -0.717926
H    0.032120  1.237940  2.104407
C    -0.865975  -0.646473  1.580116
C    -1.020040  -1.676371  0.520927
C    -1.698611  -1.400396  -0.658004
C    -0.453189  -3.029865  0.700312
C    -1.847969  -2.384933  -1.647087
C    -0.660028  -4.021109  -0.364675
C    -1.335870  -3.695439  -1.509304
H    -1.800372  -0.070601  1.641986
H    -0.703289  -1.110344  2.563139
H    -2.155078  -0.422752  -0.812221
H    -0.783237  -3.460192  1.669502
H    -2.397234  -2.130909  -2.555977
H    -0.264372  -5.026399  -0.212850
H    -1.495261  -4.427506  -2.299369
O    2.202447  -1.077744  1.227458
H    0.640004  -2.921443  0.887830
Ca    4.133212  -0.410624  2.067872
