24
Energy: -33640.4509369 eV PBE+vdW (tier 2 basis)
N    -0.999130  -0.632661  0.398751
C    -0.072393  -0.614492  1.495324
C    1.412713  -0.456884  1.120425
O    1.759279  -0.310784  -0.103993
H    -0.780816  -1.319503  -0.320931
H    -1.140233  0.274314  -0.039217
H    -0.294809  0.279628  2.102943
C    -0.305855  -1.881610  2.366171
C    0.121449  -1.795010  3.879731
C    -0.632619  -0.818162  4.680162
C    0.289237  -3.120587  4.493688
C    -1.118643  -1.127032  5.925893
C    -0.210069  -3.413468  5.739235
C    -0.918393  -2.422612  6.447680
H    0.205814  -2.745892  1.919987
H    -1.382066  -2.085924  2.321445
H    -0.797593  0.178897  4.269279
H    0.836326  -3.878640  3.930215
H    -1.671077  -0.389945  6.507101
H    -0.072671  -4.400811  6.178060
H    -1.326540  -2.664805  7.430847
O    2.326728  -0.436286  2.038674
H    1.165266  -1.378107  3.826194
Ca    3.809096  0.009377  0.484337
