24
Energy: -33641.1333138 eV PBE+vdW (tier 2 basis)
N    -0.048480  -0.101419  0.195917
C    -0.077910  0.005679  1.690681
C    1.343436  0.022053  2.204562
O    2.275945  -0.443300  1.501635
H    -0.222322  0.829382  -0.201253
H    -0.899021  -0.647923  -0.052439
H    -0.612006  0.917380  1.997022
C    -0.825215  -1.235632  2.306705
C    -2.144454  -1.453370  1.612978
C    -2.266756  -2.457110  0.635598
C    -3.252079  -0.641258  1.903034
C    -3.476982  -2.648110  -0.036864
C    -4.457826  -0.835111  1.232074
C    -4.570100  -1.833477  0.258816
H    -0.956315  -1.053766  3.382421
H    -0.187543  -2.128371  2.209953
H    -1.435725  -3.144325  0.452139
H    -3.185142  0.126912  2.675988
H    -3.572513  -3.447558  -0.770470
H    -5.318870  -0.214968  1.477793
H    -5.517834  -1.986518  -0.255574
O    1.642533  0.433103  3.403093
H    0.884277  0.798171  3.903817
Ca    2.068351  -1.009822  -0.538765
