24
Energy: -33641.9072367 eV PBE+vdW (tier 2 basis)
N    1.444359  -2.647418  -0.105838
C    1.248917  -1.152023  -0.180364
C    2.476020  -0.443117  0.355113
O    2.614169  0.806795  0.138601
H    1.851328  -3.044213  -0.961503
H    2.062352  -2.887622  0.685254
H    1.096940  -0.883051  -1.232953
C    -0.030886  -0.770643  0.636108
C    -1.174375  -1.675256  0.250954
C    -1.443029  -2.828854  1.013478
C    -1.929388  -1.426639  -0.905602
C    -2.455438  -3.713480  0.625287
C    -2.940532  -2.308171  -1.284174
C    -3.199865  -3.453971  -0.524764
H    -0.244051  0.283653  0.419376
H    0.186299  -0.855059  1.711368
H    -0.912606  -3.000699  1.954403
H    0.490718  -3.071548  0.049901
H    -2.673149  -4.589485  1.234807
H    -3.537379  -2.096499  -2.170442
H    -3.995083  -4.135465  -0.823674
O    3.333623  -1.082084  1.069722
H    -1.746456  -0.528274  -1.498039
Ca    4.445510  0.829122  1.321982
