24
Energy: -33640.3054124 eV PBE+vdW (tier 2 basis)
N    -0.903046  -0.507042  -0.029831
C    -0.515917  -0.632318  1.341523
C    0.971333  -0.352395  1.465284
O    1.683975  0.171890  0.578396
H    -1.818239  -0.083330  -0.153959
H    -0.855914  -1.377182  -0.556418
H    -0.955904  0.212180  1.910488
C    -0.944616  -1.941429  2.100974
C    -0.607448  -1.943623  3.573058
C    -1.317761  -1.132187  4.477073
C    0.458937  -2.732203  4.069026
C    -0.978875  -1.111412  5.827075
C    0.794668  -2.706540  5.433602
C    0.081862  -1.891468  6.307751
H    -0.503181  -2.810634  1.592408
H    -2.031006  -2.008181  1.958461
H    -2.163913  -0.539078  4.125901
H    0.955784  -3.444248  3.405001
H    -1.554579  -0.495793  6.517487
H    1.588572  -3.352658  5.806691
H    0.328245  -1.879915  7.368612
O    1.657319  -0.638148  2.602936
H    1.117246  -1.266463  3.278027
Ca    3.569458  0.297176  1.613436
