24
Energy: -33641.1440351 eV PBE+vdW (tier 2 basis)
N    -0.370804  -0.932838  2.808830
C    1.076618  -0.591036  3.066367
C    1.759081  -0.095402  1.810150
O    1.165921  -0.172812  0.671754
H    -0.572797  -0.885842  1.799183
H    -1.006156  -0.284041  3.290178
H    1.114050  0.199293  3.828127
C    1.696526  -1.894287  3.629116
C    0.518377  -2.561181  4.362141
C    0.222003  -1.964795  5.711184
C    -0.652357  -2.401179  3.388306
C    -1.044424  -1.747412  6.119078
C    -2.018468  -2.444607  3.977166
C    -2.177452  -2.099792  5.273609
H    2.547331  -1.669382  4.280627
H    2.053806  -2.538801  2.813476
H    1.063381  -1.794974  6.384763
H    -0.542392  -3.055778  2.515798
H    -1.240342  -1.370799  7.122337
H    -2.857820  -2.738101  3.349139
H    -3.173478  -2.101602  5.716722
O    2.940320  0.382410  1.892902
H    0.742638  -3.634675  4.492576
Ca    2.962436  0.752631  -0.252532
