24
Energy: -33642.265558 eV PBE+vdW (tier 2 basis)
N    0.077221  -0.594591  -0.148588
C    -0.087757  -0.354368  1.334923
C    1.358535  0.001299  1.801971
O    1.469274  0.346673  3.042527
H    1.144599  -0.500908  -0.244801
H    -0.384702  0.113713  -0.730995
H    -0.739119  0.518144  1.468747
C    -0.668927  -1.599804  2.042705
C    -0.729343  -1.502700  3.555325
C    -1.567797  -0.570424  4.203854
C    0.029767  -2.381612  4.355366
C    -1.642495  -0.517094  5.604829
C    -0.050375  -2.340146  5.758445
C    -0.883754  -1.403189  6.390906
H    -0.066420  -2.479286  1.771502
H    -1.688720  -1.779148  1.667414
H    -2.189306  0.107799  3.617138
H    0.675649  -3.122313  3.881572
H    -2.317049  0.194641  6.082128
H    0.520734  -3.054529  6.352651
H    -0.970104  -1.386380  7.477558
O    2.256231  -0.086581  0.972488
H    -0.231173  -1.521957  -0.464356
Ca    1.043033  0.136763  5.040691
