24
Energy: -33640.9264471 eV PBE+vdW (tier 2 basis)
N    1.447934  -2.972179  2.028748
C    1.100628  -1.596942  2.120570
C    2.174275  -0.764941  1.418704
O    1.846698  0.284495  0.756524
H    0.711388  -3.634794  2.247910
H    2.340851  -3.234545  2.437942
H    0.163460  -1.417276  1.575324
C    0.921686  -0.945516  3.590905
C    -0.247214  -1.502517  4.306172
C    -1.565148  -0.832080  4.208368
C    -0.159341  -2.676336  5.040431
C    -2.718314  -1.465542  4.868251
C    -1.295394  -3.224661  5.655233
C    -2.575394  -2.628637  5.574102
H    0.813871  0.139463  3.453332
H    1.849109  -1.147476  4.142886
H    -1.817707  -0.601223  3.151610
H    0.800728  -3.178395  5.157875
H    -3.686394  -0.968473  4.791188
H    -1.184689  -4.149694  6.224552
H    -3.424188  -3.093181  6.073361
O    3.405050  -1.123714  1.479454
H    -1.473708  0.200340  4.616311
Ca    3.899813  0.431826  0.047249
