24
Energy: -33640.9852003 eV PBE+vdW (tier 2 basis)
N    -0.372592  -1.153755  1.253133
C    0.578359  -0.627528  2.228876
C    1.824741  -0.121919  1.493042
O    1.826635  1.073876  1.015465
H    0.014101  -1.906520  0.682655
H    -0.756740  -0.430255  0.646202
H    0.118621  0.252114  2.702289
C    0.936268  -1.678968  3.298291
C    -0.142386  -2.030101  4.282565
C    0.279399  -2.425093  5.646604
C    -1.494963  -2.034132  3.990247
C    -0.748805  -2.854220  6.605337
C    -2.431835  -2.428057  4.961946
C    -2.072938  -2.853406  6.259974
H    1.833111  -1.355743  3.846974
H    1.242492  -2.611491  2.788539
H    0.843388  -1.585014  6.111606
H    -1.832488  -1.753961  2.993187
H    -0.423652  -3.155632  7.602160
H    -3.490185  -2.410977  4.693661
H    -2.841853  -3.163213  6.965859
O    2.826943  -0.897377  1.258374
H    1.082482  -3.191061  5.594873
Ca    3.750899  0.705435  0.107139
