37
Energy: -39740.2447908 eV PBE+vdW (tier 2 basis)
C    -0.216453  2.149181  2.471956
C    -0.161636  0.668329  2.318000
O    0.987546  0.046004  2.399736
H    -0.573984  2.624055  1.544734
H    0.771110  2.553085  2.709020
H    -0.922568  2.444525  3.261923
N    -1.254929  -0.039160  2.098058
C    -2.618784  0.523231  1.969283
C    -3.260204  0.985121  3.320536
O    -3.791971  2.087442  3.318589
H    -1.141467  -1.051466  2.029104
H    -2.511231  1.466735  1.420450
C    -3.557815  -0.391423  1.151534
C    -4.798134  0.391751  0.676328
C    -5.764590  -0.389418  -0.233724
N    -6.731531  -1.256925  0.453191
C    -8.022811  -0.950540  0.689375
N    -8.437682  0.320946  0.686596
N    -8.898859  -1.931720  0.940468
H    -3.852190  -1.271304  1.743991
H    -3.008694  -0.758026  0.269403
H    -4.455715  1.265179  0.101246
H    -5.343467  0.798591  1.540203
H    -5.212914  -1.021146  -0.943710
H    -6.333112  0.319283  -0.850274
H    -6.475253  -2.227593  0.597455
H    -9.426169  0.547322  0.669081
H    -7.791777  1.098339  0.731696
H    -9.823103  -1.730856  1.306820
H    -8.716565  -2.890425  0.666732
N    -3.242022  0.166702  4.402931
C    -2.702098  -1.176340  4.562949
H    -3.694557  0.583771  5.214669
H    -3.171366  -1.634694  5.439399
H    -1.614912  -1.177075  4.735928
H    -2.937425  -1.821643  3.706484
Ca    2.959257  -0.388626  2.523383
