37
Energy: -39741.4356693 eV PBE+vdW (tier 2 basis)
C    1.843180  0.863263  2.038767
C    1.225628  1.729297  3.077355
O    1.863329  2.713379  3.567055
H    2.137503  1.450154  1.157437
H    1.218736  0.017864  1.738345
H    2.782770  0.472464  2.462626
N    -0.027673  1.477666  3.546806
C    -1.186096  1.320278  2.660794
C    -1.348941  2.666755  1.883919
O    -0.674384  3.688474  2.262812
H    -0.244685  2.030261  4.379155
H    -0.977729  0.521060  1.934526
C    -2.444934  0.990057  3.499222
C    -2.404116  -0.331918  4.297084
C    -2.958351  -1.560405  3.556770
N    -3.034148  -2.694372  4.484352
C    -3.252600  -3.983147  4.150582
N    -3.114261  -4.934184  5.078988
N    -3.571137  -4.315887  2.893077
H    -3.326884  1.009726  2.844971
H    -2.597062  1.821216  4.205200
H    -3.017210  -0.174455  5.197122
H    -1.383496  -0.540028  4.651408
H    -2.312914  -1.846892  2.711904
H    -3.960295  -1.322795  3.159417
H    -3.081646  -2.475381  5.475279
H    -2.657098  -4.754699  5.965957
H    -3.472560  -5.872273  4.932434
H    -3.610712  -5.290659  2.612717
H    -4.006446  -3.651264  2.265565
N    -2.160506  2.765855  0.849316
C    -2.984829  1.740746  0.202515
H    -2.220312  3.702384  0.443496
H    -4.033515  1.845042  0.509746
H    -2.622154  0.737489  0.441946
H    -2.922834  1.882393  -0.882172
Ca    1.053978  4.670012  3.123919
