37
Energy: -39742.0355412 eV PBE+vdW (tier 2 basis)
C    -2.455874  -0.611545  0.045672
C    -1.981319  -0.515894  1.457640
O    -1.302691  -1.463055  1.966770
H    -3.052070  0.246736  -0.280875
H    -3.049661  -1.530036  -0.066478
H    -1.589050  -0.718129  -0.622090
N    -2.289578  0.590667  2.154624
C    -2.048842  0.931801  3.576570
C    -0.551058  0.988953  3.933694
O    0.158791  -0.071416  3.965990
H    -2.813667  1.288062  1.632039
H    -2.436161  1.953526  3.666342
C    -2.833554  0.052367  4.583432
C    -4.353809  0.296507  4.543289
C    -5.108797  -0.555727  5.582782
N    -6.565129  -0.402215  5.501952
C    -7.399205  0.011009  6.480488
N    -8.688431  -0.336456  6.428996
N    -6.958165  0.764912  7.494832
H    -2.445467  0.281886  5.588377
H    -2.610575  -1.009143  4.400965
H    -4.745296  0.062539  3.541197
H    -4.567861  1.361762  4.721403
H    -4.789366  -0.310018  6.603707
H    -4.875959  -1.622259  5.439470
H    -7.019349  -0.822257  4.696016
H    -9.386509  0.138526  6.992488
H    -9.013618  -1.109720  5.859034
H    -7.539732  0.928162  8.310131
H    -6.106072  1.305407  7.428435
N    -0.003136  2.146619  4.258958
C    -0.592991  3.494234  4.286062
H    0.977267  2.079723  4.540317
H    -1.282545  3.606464  5.131872
H    -1.098765  3.725199  3.342031
H    0.223223  4.211203  4.413559
Ca    0.435020  -1.974395  3.063311
