37
Energy: -39739.7919389 eV PBE+vdW (tier 2 basis)
C    0.016830  1.465344  -0.721094
C    0.508186  0.731502  0.496822
O    1.673787  0.384107  0.641416
H    -0.186253  0.752855  -1.535334
H    0.826427  2.114766  -1.073310
H    -0.876861  2.073245  -0.538486
N    -0.401120  0.447530  1.523883
C    -1.756042  -0.018744  1.285764
C    -2.824095  0.930007  1.849157
O    -3.887431  1.180683  1.123587
H    0.087169  -0.020609  2.286188
H    -1.929266  -0.015475  0.201658
C    -1.991315  -1.476546  1.823327
C    -0.766707  -2.416131  1.794224
C    -0.167223  -2.760962  0.417881
N    0.910236  -3.742398  0.526717
C    2.238185  -3.528103  0.397626
N    3.046390  -4.591520  0.292003
N    2.756602  -2.299564  0.372489
H    -2.333056  -1.431789  2.867381
H    -2.820568  -1.919760  1.253436
H    -1.098848  -3.350906  2.270538
H    0.033047  -2.038895  2.449467
H    0.229660  -1.880235  -0.101800
H    -0.939867  -3.188076  -0.238838
H    0.632474  -4.703714  0.699146
H    2.691163  -5.517325  0.083180
H    4.052446  -4.498905  0.377255
H    3.727748  -2.170601  0.109494
H    2.250149  -1.446090  0.621978
N    -2.730124  1.505395  3.025334
C    -1.684249  1.382318  4.055489
H    -3.492428  2.140205  3.264644
H    -1.390375  0.337510  4.191994
H    -0.813802  1.992691  3.787774
H    -2.106180  1.747305  4.996568
Ca    -5.574244  1.645059  0.099302
