37
Energy: -39742.0395103 eV PBE+vdW (tier 2 basis)
C    -1.463142  0.344145  0.395419
C    -0.837446  0.007575  1.706353
O    0.194272  -0.735384  1.750947
H    -2.323760  1.016151  0.475089
H    -1.781987  -0.591222  -0.088762
H    -0.710590  0.796627  -0.265026
N    -1.391060  0.506538  2.823406
C    -1.079790  0.232154  4.248809
C    0.346251  0.701549  4.621971
O    1.373585  0.061369  4.230479
H    -2.200612  1.102995  2.669436
H    -1.785865  0.872411  4.795435
C    -1.349320  -1.238674  4.649718
C    -1.575446  -1.481267  6.160875
C    -3.058054  -1.462183  6.572345
N    -3.197960  -1.834291  7.983676
C    -4.321229  -1.710683  8.723418
N    -4.269512  -1.944571  10.038036
N    -5.470174  -1.323551  8.156621
H    -0.514942  -1.862978  4.305814
H    -2.225951  -1.577725  4.079524
H    -1.009124  -0.760083  6.770971
H    -1.165315  -2.472071  6.404707
H    -3.613251  -2.168398  5.931367
H    -3.496993  -0.461828  6.433884
H    -2.459748  -2.403939  8.386790
H    -3.389266  -2.010853  10.536520
H    -5.114472  -2.062901  10.587587
H    -6.279276  -1.103003  8.728713
H    -5.642416  -1.449309  7.166744
N    0.455207  1.777414  5.381886
C    1.716507  2.368091  5.844588
H    -0.399002  2.267736  5.637700
H    2.042821  3.153585  5.150133
H    2.482827  1.591733  5.912155
H    1.553747  2.813062  6.831179
Ca    2.113487  -1.054221  2.555491
