37
Energy: -39742.3073107 eV PBE+vdW (tier 2 basis)
C    2.275014  2.111865  3.204570
C    1.261830  2.006291  2.116553
O    1.572421  1.508514  0.988066
H    1.889197  2.569007  4.121575
H    3.139009  2.690219  2.849196
H    2.648221  1.102618  3.433569
N    0.011608  2.438380  2.351363
C    -1.146972  2.307982  1.446484
C    -1.022988  3.325137  0.279628
O    -0.223830  3.049764  -0.674228
H    -0.157062  2.868750  3.258033
H    -1.065121  1.323028  0.960449
C    -2.468758  2.361072  2.237534
C    -2.718762  1.140961  3.147170
C    -4.101098  1.214118  3.819919
N    -4.346817  0.028141  4.644542
C    -5.237967  -0.052404  5.656634
N    -5.239089  -1.134037  6.442194
N    -6.092862  0.948121  5.895875
H    -3.286527  2.427099  1.504129
H    -2.509177  3.284904  2.841209
H    -1.945075  1.060276  3.924935
H    -2.659583  0.224299  2.538420
H    -4.883177  1.315120  3.048113
H    -4.152536  2.098035  4.472610
H    -3.962978  -0.854277  4.319476
H    -6.012932  -1.330584  7.068555
H    -4.462827  -1.785614  6.457057
H    -6.651431  0.959864  6.743417
H    -6.353894  1.610421  5.175748
N    -1.729086  4.437596  0.293209
C    -1.706935  5.481837  -0.738573
H    -2.345871  4.597416  1.086513
H    -1.254633  5.085142  -1.649818
H    -1.131455  6.345697  -0.381572
H    -2.735607  5.797439  -0.943504
Ca    1.505746  1.865802  -1.105051
