37
Energy: -39742.1012021 eV PBE+vdW (tier 2 basis)
C    -1.959141  2.059322  0.488446
C    -1.980522  0.766350  1.226760
O    -2.658160  -0.219543  0.792948
H    -1.377350  2.840608  0.988216
H    -2.987051  2.413775  0.332171
H    -1.534053  1.880955  -0.511166
N    -1.262267  0.648874  2.355875
C    -1.034764  -0.597482  3.115640
C    -2.320712  -0.972178  3.894049
O    -3.240933  -1.598877  3.275960
H    -0.753485  1.476586  2.659752
H    -0.913861  -1.404653  2.376445
C    0.283734  -0.479255  3.910289
C    0.774643  -1.801846  4.533314
C    2.285592  -1.851051  4.838241
N    2.739845  -1.052291  5.986038
C    3.365114  -1.536649  7.085289
N    3.164941  -2.793117  7.494814
N    4.176598  -0.735935  7.783129
H    0.211169  0.318298  4.670070
H    1.034844  -0.130899  3.183395
H    0.592937  -2.619301  3.818023
H    0.202351  -2.052096  5.438777
H    2.855987  -1.525981  3.954764
H    2.581361  -2.892556  5.012436
H    2.880336  -0.059769  5.823958
H    3.764446  -3.215086  8.196576
H    2.392456  -3.353369  7.159187
H    4.585765  0.098329  7.376839
H    4.492306  -0.987242  8.714718
N    -2.450488  -0.621349  5.158834
C    -3.632683  -0.869474  5.993473
H    -1.686355  -0.101595  5.583559
H    -4.162624  -1.750525  5.623039
H    -4.300900  0.001416  5.971530
H    -3.306923  -1.042049  7.023832
Ca    -4.019154  -1.765345  1.274781
