37
Energy: -39740.7065616 eV PBE+vdW (tier 2 basis)
C    -0.244956  -1.191649  1.191027
C    0.231748  -0.034057  1.996250
O    1.383118  -0.136441  2.615341
H    -1.281792  -1.095602  0.859865
H    -0.153800  -2.111316  1.784177
H    0.395578  -1.308701  0.303401
N    -0.441260  1.088623  2.109690
C    -1.740748  1.474221  1.509828
C    -1.623397  2.994945  1.240543
O    -1.429490  3.745524  2.208673
H    -0.052298  1.824702  2.711086
H    -1.870131  0.917653  0.574042
C    -2.895024  1.184338  2.503572
C    -4.164540  2.039960  2.273664
C    -4.442114  2.957956  3.482078
N    -5.390156  4.033724  3.206551
C    -5.072276  5.322734  2.996324
N    -6.042479  6.246260  3.002323
N    -3.804892  5.695960  2.768609
H    -2.512823  1.368710  3.518301
H    -3.126650  0.112384  2.454934
H    -5.029960  1.389382  2.095767
H    -4.068954  2.657070  1.368820
H    -3.508446  3.409445  3.840719
H    -4.842448  2.370079  4.319661
H    -6.379235  3.804139  3.224900
H    -5.873518  7.194103  2.686073
H    -6.968301  6.044510  3.362113
H    -3.546941  6.672624  2.849439
H    -3.042693  5.028663  2.648209
N    -1.755067  3.389342  -0.033342
C    -1.693961  4.788686  -0.457519
H    -1.939233  2.690939  -0.747207
H    -1.207404  4.846622  -1.436386
H    -1.111107  5.356980  0.273159
H    -2.701338  5.218197  -0.537953
Ca    3.178929  -0.652386  3.381376
