37
Energy: -39739.8885975 eV PBE+vdW (tier 2 basis)
C    -0.832293  0.134869  -1.277292
C    -0.473055  -0.245675  0.133606
O    0.634705  -0.666117  0.434543
H    -1.851746  0.507572  -1.420686
H    -0.693329  -0.757648  -1.904819
H    -0.118072  0.881614  -1.646682
N    -1.458342  -0.204643  1.141571
C    -2.438708  0.863933  1.343382
C    -3.792640  0.492444  0.708745
O    -4.806253  1.308086  0.756388
H    -1.077891  -0.588239  2.007434
H    -2.670893  0.848913  2.424261
C    -1.928617  2.293602  1.024963
C    -0.894903  2.841739  2.036683
C    0.560924  2.348427  2.013888
N    1.305050  2.847662  0.837782
C    2.551102  2.419992  0.489719
N    2.888241  1.137857  0.614917
N    3.422510  3.302973  -0.011847
H    -2.793278  2.972446  1.050270
H    -1.541697  2.338159  -0.001590
H    -1.264338  2.669854  3.059633
H    -0.884110  3.937649  1.927358
H    0.629831  1.256808  2.036604
H    1.046356  2.713207  2.932634
H    1.136707  3.827457  0.620530
H    2.179506  0.400190  0.656955
H    3.851017  0.846590  0.481595
H    3.327562  4.299548  0.148492
H    4.269172  2.998227  -0.481664
N    -3.915074  -0.701977  0.192520
C    -5.116805  -1.300894  -0.385818
H    -3.056387  -1.262234  0.266995
H    -4.837896  -2.238951  -0.874258
H    -5.551596  -0.634622  -1.141499
H    -5.851217  -1.527544  0.399419
Ca    -6.552340  2.330598  0.879573
