37
Energy: -39741.2666508 eV PBE+vdW (tier 2 basis)
C    -0.970373  1.239583  1.389918
C    -0.902000  0.263997  2.517198
O    0.060610  0.334396  3.346653
H    -1.996386  1.511256  1.127747
H    -0.479670  0.827078  0.493650
H    -0.415406  2.139438  1.679188
N    -1.845741  -0.696307  2.714058
C    -2.298022  -1.656546  1.691491
C    -1.048711  -2.509354  1.292624
O    0.119528  -2.125438  1.652115
H    -1.749256  -1.125673  3.636052
H    -2.976656  -2.335967  2.231374
C    -3.100635  -1.064916  0.505383
C    -4.350903  -0.301789  0.983073
C    -5.189947  0.371669  -0.115176
N    -6.065932  -0.571778  -0.826210
C    -6.757979  -0.263646  -1.950091
N    -7.532805  -1.193764  -2.517268
N    -6.640475  0.941059  -2.516109
H    -3.392929  -1.897754  -0.147548
H    -2.461660  -0.418527  -0.110491
H    -4.051843  0.496258  1.677014
H    -4.995623  -0.965496  1.582705
H    -4.530816  0.850676  -0.854704
H    -5.794453  1.161259  0.360013
H    -6.473542  -1.312767  -0.261882
H    -8.199391  -0.955151  -3.244312
H    -7.501665  -2.164905  -2.230518
H    -7.052108  1.130468  -3.424642
H    -6.312510  1.745857  -1.996273
N    -1.182582  -3.644382  0.632661
C    -2.394522  -4.355095  0.212147
H    -0.299907  -4.110683  0.413618
H    -2.214265  -5.429536  0.326201
H    -2.616398  -4.148781  -0.842582
H    -3.247856  -4.083337  0.840355
Ca    1.546738  -1.179210  2.990716
