37
Energy: -39741.3796528 eV PBE+vdW (tier 2 basis)
C    -0.755698  -0.360054  -1.236836
C    0.104553  -0.231788  -0.031072
O    1.367054  -0.145375  -0.154524
H    -0.790484  0.641699  -1.700987
H    -1.783705  -0.660313  -1.023965
H    -0.303340  -1.024199  -1.982010
N    -0.426702  -0.156673  1.219695
C    -1.372482  -1.145954  1.777125
C    -0.776993  -2.564146  1.500469
O    0.450558  -2.678128  1.164937
H    0.261364  0.163083  1.901840
H    -1.273467  -1.013209  2.867047
C    -2.872252  -0.941728  1.447901
C    -3.323860  0.516028  1.653004
C    -4.809865  0.800445  1.383251
N    -5.683375  0.365786  2.483700
C    -7.036099  0.327804  2.408844
N    -7.738518  -0.083371  3.469435
N    -7.667087  0.656160  1.277816
H    -3.451937  -1.597887  2.116699
H    -3.099256  -1.269281  0.423420
H    -2.755711  1.167277  0.974725
H    -3.062234  0.859678  2.667358
H    -5.132148  0.286780  0.465176
H    -4.919760  1.884682  1.219324
H    -5.309247  0.478996  3.422317
H    -7.294933  -0.516870  4.270559
H    -8.744223  0.042851  3.518823
H    -7.226032  1.224644  0.565163
H    -8.665499  0.502707  1.176198
N    -1.534812  -3.627472  1.668492
C    -1.072634  -5.017388  1.534142
H    -2.507353  -3.483958  1.927082
H    -0.241180  -5.207235  2.222588
H    -0.752370  -5.213085  0.504036
H    -1.904287  -5.681339  1.782775
Ca    2.375067  -1.945314  0.473075
