37
Energy: -39740.652703 eV PBE+vdW (tier 2 basis)
C    0.077472  0.471153  0.459193
C    -0.110214  0.394493  1.933492
O    0.961874  0.326687  2.693202
H    0.622204  -0.418815  0.112965
H    0.695136  1.345905  0.211613
H    -0.866852  0.539940  -0.086742
N    -1.273735  0.392503  2.522014
C    -2.653507  0.509384  2.012149
C    -3.371978  1.058938  3.291436
O    -2.857877  0.757467  4.378590
H    -1.366673  0.362130  3.571724
H    -2.686657  1.213014  1.171971
C    -3.169548  -0.908346  1.632613
C    -4.665889  -1.100315  1.321638
C    -5.115421  -0.750692  -0.104039
N    -6.508269  -1.179594  -0.284779
C    -7.315853  -0.857404  -1.312910
N    -8.611556  -1.184419  -1.261751
N    -6.838296  -0.182060  -2.366848
H    -2.932849  -1.556147  2.488482
H    -2.561940  -1.277987  0.791941
H    -5.289105  -0.569444  2.055076
H    -4.866341  -2.171484  1.479261
H    -4.461340  -1.263213  -0.830379
H    -5.057974  0.331162  -0.295900
H    -6.849124  -1.899093  0.346487
H    -9.199255  -1.148398  -2.087779
H    -9.050386  -1.498588  -0.403705
H    -7.465218  0.164822  -3.085175
H    -5.852358  -0.192064  -2.595396
N    -4.486630  1.794788  3.188676
C    -5.143718  2.345481  2.009237
H    -4.873184  2.060498  4.094872
H    -5.398280  3.394990  2.196414
H    -6.070385  1.803274  1.775709
H    -4.478763  2.317238  1.140352
Ca    2.638360  0.293322  3.791815
