37
Energy: -39739.6233728 eV PBE+vdW (tier 2 basis)
C    -0.814938  -0.467468  0.193109
C    -0.091973  -0.361975  1.509355
O    1.097750  -0.617625  1.622279
H    -1.673424  0.205064  0.084034
H    -1.182360  -1.502329  0.097088
H    -0.109695  -0.305667  -0.628133
N    -0.838188  -0.094326  2.694271
C    -1.611391  1.125638  2.965263
C    -3.046355  1.015241  2.440539
O    -3.844769  2.043850  2.425292
H    -0.235285  -0.317825  3.488974
H    -1.797760  1.087344  4.056339
C    -0.832314  2.455169  2.766957
C    -0.209382  2.777901  1.388260
C    1.252801  3.254247  1.444204
N    2.164962  2.162982  1.796537
C    3.475526  2.299734  2.077550
N    4.187964  1.207215  2.377031
N    4.056144  3.504617  2.093598
H    -0.030921  2.403895  3.518354
H    -1.470185  3.287167  3.098951
H    -0.779752  3.575544  0.894831
H    -0.267816  1.927439  0.697740
H    1.351637  4.060914  2.187982
H    1.515652  3.672329  0.458789
H    1.856238  1.204876  1.619824
H    5.197940  1.237983  2.459205
H    3.750998  0.293589  2.426835
H    3.605556  4.320756  1.700824
H    5.024524  3.614989  2.374326
N    -3.483474  -0.177985  2.127300
C    -4.841532  -0.549084  1.734731
H    -2.770748  -0.910534  2.233435
H    -4.831082  -1.583199  1.378419
H    -5.193485  0.092164  0.916747
H    -5.523350  -0.491269  2.594821
Ca    -5.346630  3.399435  2.563573
