37
Energy: -39739.7723554 eV PBE+vdW (tier 2 basis)
C    -0.117676  1.878854  1.252294
C    -0.041831  0.646083  2.077284
O    1.022650  0.475080  2.832372
H    -0.227014  2.755751  1.907967
H    -0.945821  1.867077  0.543053
H    0.824101  1.999611  0.699839
N    -0.959433  -0.296350  2.106041
C    -2.312835  -0.525557  1.510192
C    -2.410121  -1.671651  0.442083
O    -3.491186  -2.237663  0.415731
H    -0.706634  -1.074522  2.718789
H    -2.826182  -1.001764  2.355207
C    -3.198729  0.690022  1.117109
C    -3.391712  0.990940  -0.381549
C    -4.634656  1.871870  -0.593029
N    -4.938746  2.044534  -2.016337
C    -6.166226  2.240980  -2.537094
N    -7.212013  2.501941  -1.745119
N    -6.340075  2.153396  -3.861298
H    -2.886768  1.582940  1.676754
H    -4.186301  0.431516  1.522842
H    -3.547025  0.049821  -0.927060
H    -2.507284  1.479831  -0.823012
H    -4.503818  2.853006  -0.106903
H    -5.497500  1.375461  -0.126266
H    -4.158706  2.139661  -2.659015
H    -8.158670  2.474794  -2.108994
H    -7.094649  2.871682  -0.810058
H    -7.183295  2.499885  -4.305950
H    -5.659519  1.700389  -4.459752
N    -1.378848  -1.994725  -0.378972
C    -0.149282  -1.278723  -0.690622
H    -1.607520  -2.791166  -0.972264
H    -0.323086  -0.202764  -0.822820
H    0.231816  -1.658295  -1.643869
H    0.638272  -1.441740  0.060068
Ca    2.669504  0.497870  3.999153
