37
Energy: -39740.5200592 eV PBE+vdW (tier 2 basis)
C    -1.797412  1.605079  2.121002
C    -1.225672  0.604844  3.078887
O    -0.050928  0.693383  3.493691
H    -1.905840  2.567238  2.642231
H    -2.766744  1.319724  1.698753
H    -1.077705  1.774363  1.310554
N    -2.057681  -0.394702  3.497017
C    -1.741035  -1.562988  4.335193
C    -1.179530  -1.217224  5.723206
O    -1.660822  -1.859277  6.762863
H    -3.009480  -0.364838  3.144164
H    -2.719757  -2.009947  4.553679
C    -0.929111  -2.698870  3.635917
C    0.461995  -2.410757  3.026088
C    0.418357  -2.113282  1.517056
N    1.760501  -1.833088  1.001870
C    2.262220  -2.218659  -0.188017
N    3.575305  -2.096656  -0.415585
N    1.471217  -2.737811  -1.134560
H    -1.595690  -3.110692  2.863236
H    -0.828067  -3.503877  4.379176
H    1.090015  -3.299759  3.173562
H    0.963235  -1.584928  3.548148
H    -0.252142  -1.268634  1.294874
H    0.029777  -2.995973  0.990623
H    2.338874  -1.200525  1.547296
H    3.956262  -2.160909  -1.353581
H    4.237730  -1.962503  0.339453
H    0.474048  -2.565512  -1.149973
H    1.868661  -3.184925  -1.954069
N    -0.236495  -0.332473  5.847936
C    0.380567  0.090556  7.101469
H    0.023922  0.142411  4.907184
H    1.149842  0.833704  6.874061
H    0.856255  -0.759127  7.609372
H    -0.361506  0.558893  7.763228
Ca    -2.398338  -2.616576  8.473734
