37
Energy: -39742.0357458 eV PBE+vdW (tier 2 basis)
C    -1.520166  -1.121265  -0.472286
C    -1.477482  -0.822788  0.988140
O    -0.811097  -1.569428  1.773840
H    -0.495684  -1.161770  -0.867689
H    -2.102665  -0.400138  -1.054760
H    -1.949100  -2.124894  -0.611405
N    -2.154547  0.245210  1.438657
C    -2.419668  0.704480  2.824361
C    -1.119748  1.053903  3.576457
O    -0.344844  0.136600  4.009228
H    -2.647096  0.770806  0.719961
H    -2.970684  1.641225  2.680122
C    -3.349745  -0.253526  3.608463
C    -4.039518  0.413188  4.814277
C    -5.145756  -0.480061  5.404090
N    -5.815554  0.178476  6.528737
C    -7.090257  -0.032951  6.922295
N    -7.638826  0.782995  7.828119
N    -7.812712  -1.028965  6.397396
H    -2.798774  -1.151844  3.921763
H    -4.112416  -0.591115  2.891383
H    -4.493018  1.366530  4.501894
H    -3.299820  0.648087  5.596939
H    -4.724379  -1.448793  5.721294
H    -5.902035  -0.678335  4.631164
H    -5.239833  0.724888  7.162360
H    -8.501101  0.538925  8.304402
H    -7.233070  1.684350  8.052548
H    -8.811810  -1.088284  6.566960
H    -7.376821  -1.842983  5.982038
N    -0.818739  2.322102  3.797682
C    -1.528336  3.540291  3.373759
H    0.043391  2.463609  4.327684
H    -1.662386  3.562498  2.286244
H    -0.911669  4.398512  3.655322
H    -2.495643  3.633455  3.881894
Ca    0.525608  -1.716991  3.391666
