37
Energy: -39740.0272597 eV PBE+vdW (tier 2 basis)
C    0.523492  -0.699138  0.516616
C    0.060419  -0.046775  1.770224
O    0.982338  0.382546  2.602833
H    -0.267266  -1.211038  -0.031446
H    1.311916  -1.423111  0.762559
H    0.971667  0.058731  -0.144615
N    -1.196885  0.140438  2.123362
C    -2.549002  -0.081327  1.510875
C    -3.372480  -1.220359  2.189489
O    -4.556560  -0.959103  2.415849
H    -1.283853  0.588146  3.038274
H    -3.086285  0.813840  1.851372
C    -2.655762  -0.130933  -0.035376
C    -3.741077  0.798810  -0.624933
C    -5.221446  0.547324  -0.317458
N    -5.741783  -0.685533  -0.935695
C    -6.765028  -1.424291  -0.443629
N    -7.575733  -2.064559  -1.296262
N    -6.944415  -1.546342  0.872388
H    -2.804026  -1.166614  -0.372703
H    -1.713253  0.211195  -0.478368
H    -3.598375  0.800620  -1.716727
H    -3.528969  1.832396  -0.310602
H    -5.792263  1.405667  -0.704107
H    -5.404642  0.502719  0.759924
H    -5.628601  -0.743650  -1.945004
H    -8.208543  -2.790152  -0.977209
H    -7.658892  -1.782449  -2.266352
H    -7.801218  -1.943872  1.239885
H    -6.199814  -1.313718  1.534235
N    -2.835352  -2.421764  2.484388
C    -1.553899  -3.010314  2.114240
H    -3.506777  -3.042381  2.934440
H    -1.618208  -4.090420  2.277018
H    -0.727283  -2.635541  2.734237
H    -1.328965  -2.859233  1.051855
Ca    2.633402  1.020340  3.588143
