37
Energy: -39741.216654 eV PBE+vdW (tier 2 basis)
C    -0.941788  -0.084967  -0.647160
C    -0.306656  -0.164469  0.701376
O    0.926037  0.122357  0.830430
H    -0.362094  0.613240  -1.261614
H    -1.982547  0.245807  -0.598393
H    -0.909649  -1.067055  -1.145446
N    -1.004659  -0.516184  1.813860
C    -1.834636  -1.727734  1.933543
C    -0.880964  -2.951670  1.734796
O    0.300967  -2.764195  1.275008
H    -0.472078  -0.321187  2.663684
H    -2.138169  -1.749213  2.992350
C    -3.145393  -1.756284  1.106580
C    -4.079624  -0.587443  1.484726
C    -5.574215  -0.775699  1.182534
N    -5.912028  -0.656449  -0.243765
C    -7.131085  -0.958442  -0.754130
N    -7.340547  -0.830637  -2.068546
N    -8.106649  -1.416816  0.034894
H    -3.647458  -2.705442  1.336860
H    -2.936589  -1.789533  0.030229
H    -3.726553  0.358542  1.045082
H    -4.025091  -0.426486  2.572160
H    -6.124826  -0.018969  1.765474
H    -5.901007  -1.767938  1.527542
H    -5.381102  0.024861  -0.778999
H    -8.275310  -0.872141  -2.461398
H    -6.577890  -0.695857  -2.721402
H    -8.971164  -1.773083  -0.360758
H    -8.101406  -1.263976  1.036205
N    -1.254730  -4.167763  2.084779
C    -2.484283  -4.629474  2.739692
H    -0.556652  -4.891287  1.900790
H    -3.189601  -5.029039  1.999994
H    -2.951979  -3.824564  3.314250
H    -2.216017  -5.433621  3.433457
Ca    2.143443  -1.643555  1.021171
