37
Energy: -39740.4076054 eV PBE+vdW (tier 2 basis)
C    0.119843  -0.248664  -0.141007
C    -0.027699  -0.351665  1.336141
O    1.035809  -0.489501  2.083001
H    0.059742  0.813214  -0.431422
H    -0.678608  -0.779625  -0.673666
H    1.085987  -0.642673  -0.468249
N    -1.207896  -0.290410  1.917299
C    -2.519984  -0.140794  1.254824
C    -2.647509  1.264860  0.620171
O    -2.127961  2.246653  1.175315
H    -1.217755  -0.303811  2.938026
H    -2.570646  -0.905254  0.467306
C    -3.679531  -0.437899  2.242180
C    -3.688069  0.206226  3.641787
C    -3.836753  1.726546  3.792414
N    -5.090996  2.241676  3.221234
C    -5.249982  3.469343  2.674966
N    -6.449264  4.060651  2.739906
N    -4.238309  4.073942  2.045513
H    -3.718639  -1.527382  2.382472
H    -4.607882  -0.178823  1.713789
H    -2.791450  -0.076200  4.220989
H    -4.503169  -0.288800  4.192300
H    -2.999875  2.250480  3.323643
H    -3.811096  1.965682  4.866923
H    -5.943321  1.823699  3.587282
H    -6.671183  4.870140  2.170373
H    -7.151930  3.771744  3.411406
H    -4.301031  5.057150  1.807355
H    -3.396769  3.562486  1.758660
N    -3.364088  1.350273  -0.513754
C    -4.011564  0.283087  -1.284487
H    -3.438758  2.296296  -0.883447
H    -4.504195  0.740682  -2.147110
H    -4.779216  -0.240129  -0.701059
H    -3.282918  -0.442921  -1.669945
Ca    2.902974  -0.769284  2.816970
