37
Energy: -39740.4612748 eV PBE+vdW (tier 2 basis)
C    -2.285657  -0.843578  -1.220193
C    -1.781206  -0.768420  0.183622
O    -0.727580  -0.035787  0.440020
H    -3.171953  -1.479033  -1.319456
H    -1.500877  -1.248718  -1.875949
H    -2.542732  0.163615  -1.579397
N    -2.403460  -1.439869  1.123734
C    -2.157416  -1.575129  2.572109
C    -2.535909  -3.053181  2.863051
O    -3.678698  -3.401601  2.519872
H    -3.223157  -1.990006  0.837416
H    -1.108773  -1.340076  2.782298
C    -3.138461  -0.653696  3.346118
C    -3.314200  -1.007938  4.845761
C    -4.773828  -1.148103  5.295298
N    -5.421190  -2.317371  4.690284
C    -6.593862  -2.836950  5.086573
N    -7.027788  -3.977160  4.530609
N    -7.326801  -2.239028  6.032653
H    -4.107730  -0.720942  2.831711
H    -2.805143  0.385962  3.231415
H    -2.861813  -0.224769  5.466330
H    -2.781363  -1.934240  5.106544
H    -5.329968  -0.229063  5.042798
H    -4.785784  -1.257858  6.390007
H    -4.967603  -2.753344  3.882145
H    -6.436928  -4.518524  3.911843
H    -7.953433  -4.342425  4.721244
H    -8.158542  -2.678689  6.410240
H    -7.106370  -1.313958  6.377432
N    -1.660752  -3.860351  3.472204
C    -0.294335  -3.573172  3.914688
H    -2.004293  -4.810486  3.610561
H    0.053001  -4.420896  4.512350
H    -0.255433  -2.682971  4.554457
H    0.391579  -3.460936  3.064456
Ca    0.817111  1.211458  0.019416
