37
Energy: -39741.933427 eV PBE+vdW (tier 2 basis)
C    0.843644  0.718732  0.032120
C    0.381960  -0.410953  0.890188
O    1.107430  -1.447071  1.024361
H    1.823636  1.069220  0.384824
H    0.149599  1.564905  0.001776
H    0.996030  0.341715  -0.990079
N    -0.805138  -0.293578  1.506865
C    -1.592752  -1.273058  2.293766
C    -0.853631  -1.747141  3.561662
O    0.159140  -2.520105  3.481423
H    -1.284826  0.586738  1.333855
H    -2.459560  -0.691535  2.629249
C    -2.137614  -2.444263  1.437619
C    -3.220352  -3.257721  2.169670
C    -3.912990  -4.350164  1.337906
N    -4.883454  -3.800179  0.380477
C    -5.485996  -4.521686  -0.594653
N    -6.327992  -3.912056  -1.434926
N    -5.215976  -5.821984  -0.746390
H    -1.313494  -3.101020  1.123581
H    -2.546096  -1.996471  0.520126
H    -3.989790  -2.582636  2.580920
H    -2.783674  -3.768425  3.040803
H    -4.416669  -5.037743  2.036615
H    -3.165765  -4.928934  0.774805
H    -5.385464  -2.966372  0.673179
H    -6.936568  -4.441830  -2.050536
H    -6.397595  -2.902434  -1.485316
H    -5.562196  -6.332795  -1.552634
H    -4.841909  -6.380718  0.010999
N    -1.298033  -1.379720  4.751190
C    -2.416702  -0.492728  5.108226
H    -0.776326  -1.779659  5.533951
H    -3.381245  -0.991220  4.951504
H    -2.373219  0.447191  4.547441
H    -2.324415  -0.253561  6.171714
Ca    1.937006  -2.858740  2.349719
