37
Energy: -39740.8490361 eV PBE+vdW (tier 2 basis)
C    0.422631  1.078871  -0.340352
C    0.206895  1.024242  1.131463
O    1.233248  0.726557  1.898497
H    0.851221  0.127012  -0.683663
H    1.153132  1.866758  -0.575562
H    -0.494588  1.274396  -0.901519
N    -0.940992  1.260802  1.706338
C    -2.216536  1.762325  1.166788
C    -2.773917  2.527845  2.414526
O    -2.408313  2.121269  3.526416
H    -1.046418  1.263237  2.752095
H    -2.025729  2.443220  0.325825
C    -3.146332  0.597645  0.733555
C    -4.453791  1.074092  0.075111
C    -5.317009  -0.030256  -0.557485
N    -6.117834  -0.773909  0.423404
C    -7.293166  -1.379446  0.161956
N    -8.044590  -1.827335  1.176271
N    -7.722241  -1.523704  -1.096035
H    -3.338866  -0.026782  1.619959
H    -2.589919  -0.029687  0.019689
H    -4.206791  1.768520  -0.742802
H    -5.071546  1.640713  0.786551
H    -4.685593  -0.721611  -1.140340
H    -6.018182  0.448529  -1.254270
H    -5.726062  -0.935534  1.344995
H    -7.910815  -1.497276  2.124595
H    -8.826036  -2.453547  1.015349
H    -8.675789  -1.809686  -1.291767
H    -7.093586  -1.464407  -1.887448
N    -3.611208  3.545295  2.192272
C    -4.214440  4.345902  3.262505
H    -3.771451  3.844509  1.235144
H    -5.293285  4.436315  3.094147
H    -3.769691  5.348388  3.283672
H    -4.030942  3.847803  4.217735
Ca    2.914903  0.410725  2.943440
