37
Energy: -39741.9399328 eV PBE+vdW (tier 2 basis)
C    0.690962  1.763652  0.780949
C    0.274860  1.147423  2.070043
O    1.098649  1.023714  3.032000
H    -0.103335  1.781707  0.027725
H    1.560771  1.224932  0.379972
H    1.023893  2.794253  0.976195
N    -0.993109  0.724991  2.217473
C    -1.567853  0.236523  3.483281
C    -0.951687  -1.141176  3.848237
O    0.035504  -1.132793  4.659699
H    -1.621895  0.858649  1.428317
H    -1.180034  0.892407  4.277471
C    -3.104345  0.399368  3.483300
C    -3.761982  -0.025768  4.810499
C    -5.130677  0.607074  5.109753
N    -6.212418  0.109370  4.248043
C    -7.426946  0.702297  4.140071
N    -8.334007  0.185658  3.304749
N    -7.709911  1.812158  4.827420
H    -3.560442  -0.122777  2.631769
H    -3.284021  1.473112  3.317559
H    -3.118937  0.276252  5.651376
H    -3.836415  -1.122853  4.881506
H    -5.064514  1.696534  4.974582
H    -5.367532  0.411755  6.168375
H    -6.201812  -0.884459  4.035597
H    -8.088437  -0.511544  2.611969
H    -9.304401  0.481827  3.329268
H    -8.557865  2.337898  4.639020
H    -7.198172  2.070242  5.662502
N    -1.365884  -2.292341  3.347474
C    -2.388959  -2.575736  2.336692
H    -0.860135  -3.103844  3.708848
H    -2.128667  -3.522363  1.852558
H    -2.410728  -1.798803  1.567590
H    -3.378402  -2.687715  2.797370
Ca    1.873377  -0.011261  4.715938
