37
Energy: -39740.6319823 eV PBE+vdW (tier 2 basis)
C    -1.060204  -0.194398  -1.087692
C    -0.373119  -0.186123  0.231353
O    0.833775  0.315252  0.297646
H    -1.400234  0.826211  -1.317974
H    -1.932360  -0.852837  -1.119064
H    -0.354618  -0.511723  -1.866285
N    -0.900642  -0.704932  1.323040
C    -2.322126  -1.045368  1.502883
C    -3.146702  0.274406  1.258800
O    -2.559540  1.350502  1.178509
H    -0.339155  -0.611168  2.169293
H    -2.585898  -1.784367  0.732283
C    -2.573400  -1.695009  2.882260
C    -2.515234  -0.749025  4.092678
C    -2.747519  -1.434440  5.448487
N    -4.149754  -1.829273  5.644896
C    -4.577731  -2.705507  6.580021
N    -5.873848  -3.034500  6.628341
N    -3.716443  -3.271265  7.431718
H    -1.862029  -2.526961  3.007881
H    -3.562895  -2.170847  2.830215
H    -3.230465  0.079935  3.970326
H    -1.529731  -0.263750  4.167784
H    -2.435043  -0.743737  6.248013
H    -2.127277  -2.340156  5.519793
H    -4.854333  -1.189198  5.288977
H    -6.263587  -3.530969  7.422463
H    -6.512124  -2.803909  5.876467
H    -4.005744  -4.036303  8.032347
H    -2.812651  -2.859267  7.627705
N    -4.478114  0.101197  1.165803
C    -5.409139  1.206216  0.917156
H    -4.849927  -0.842612  1.120526
H    -6.325021  1.051700  1.496986
H    -5.667318  1.267748  -0.147920
H    -4.933804  2.141683  1.223907
Ca    2.508451  1.351661  -0.127726
