37
Energy: -39740.3434833 eV PBE+vdW (tier 2 basis)
C    -2.352243  -0.913023  1.362638
C    -1.583607  -0.722263  2.627604
O    -1.032757  -1.759046  3.199729
H    -2.771543  0.020852  0.972807
H    -3.181098  -1.615868  1.533038
H    -1.699982  -1.344765  0.589437
N    -1.478316  0.484350  3.146847
C    -0.783940  0.932196  4.371893
C    -1.728577  1.850991  5.225816
O    -1.363686  2.990088  5.519008
H    -1.931207  1.221146  2.604851
H    -0.561256  0.029488  4.957355
C    0.533416  1.659904  4.045776
C    0.427930  2.871709  3.085501
C    1.321347  4.056346  3.473568
N    0.806824  4.707707  4.680263
C    1.230378  5.883267  5.164635
N    0.561493  6.460374  6.172971
N    2.307753  6.489977  4.650867
H    1.242122  0.925436  3.638293
H    0.942618  1.968726  5.017289
H    -0.604240  3.247722  3.021129
H    0.713882  2.569428  2.069659
H    1.334070  4.776810  2.641659
H    2.355967  3.706804  3.633051
H    0.024807  4.237894  5.147345
H    0.915163  7.286259  6.641104
H    -0.335080  6.104899  6.480337
H    2.577347  7.421588  4.945093
H    2.917986  6.028150  3.989728
N    -2.915568  1.353441  5.630413
C    -3.457168  0.007150  5.503262
H    -3.463362  2.019728  6.174035
H    -4.154513  -0.165944  6.329316
H    -2.663074  -0.746884  5.585084
H    -4.009206  -0.132001  4.562312
Ca    -0.411819  -3.678337  3.459239
