37
Energy: -39740.2352666 eV PBE+vdW (tier 2 basis)
C    0.186711  0.673613  0.448157
C    0.037535  -0.115057  1.699738
O    1.108416  -0.547805  2.318398
H    0.156872  1.749249  0.690801
H    -0.631407  0.507009  -0.263211
H    1.143257  0.454622  -0.036060
N    -1.145783  -0.372318  2.228910
C    -2.452807  0.024970  1.652230
C    -2.684376  1.575252  1.661532
O    -2.859568  2.107271  0.573167
H    -1.148342  -0.886040  3.111483
H    -2.391433  -0.192091  0.578646
C    -3.622175  -0.801720  2.221117
C    -4.898599  -0.553514  1.391420
C    -6.083411  -1.488694  1.698909
N    -6.915334  -1.116266  2.851455
C    -8.127163  -0.529145  2.781582
N    -8.959373  -0.607420  3.827733
N    -8.502983  0.142575  1.687876
H    -3.790379  -0.573128  3.283853
H    -3.354585  -1.868665  2.153482
H    -4.653373  -0.695190  0.328016
H    -5.217629  0.495219  1.486724
H    -5.734674  -2.516832  1.869801
H    -6.738909  -1.543660  0.820024
H    -6.663485  -1.498715  3.756611
H    -9.789684  -0.027441  3.884018
H    -8.858816  -1.326626  4.534838
H    -9.470332  0.413690  1.548231
H    -7.844397  0.414048  0.969507
N    -2.665823  2.264636  2.831480
C    -2.645720  1.790973  4.209495
H    -2.852214  3.257217  2.694558
H    -2.324818  2.615806  4.854203
H    -1.925643  0.976128  4.352661
H    -3.634772  1.458662  4.556798
Ca    3.020605  -1.011798  2.782426
