37
Energy: -39740.5059742 eV PBE+vdW (tier 2 basis)
C    0.300085  -0.901199  -0.164723
C    -0.219902  -0.769082  1.238119
O    -0.036845  -1.612322  2.120248
H    1.383437  -0.709028  -0.159384
H    -0.163354  -0.207610  -0.875388
H    0.163293  -1.932565  -0.509353
N    -0.937863  0.384348  1.521060
C    -1.214790  0.724509  2.911846
C    -2.656611  1.212232  3.018666
O    -3.625219  0.430417  2.638112
H    -0.882896  1.142727  0.843920
H    -1.198234  -0.250595  3.433531
C    -0.159912  1.659341  3.549527
C    1.279302  1.106297  3.558027
C    1.530324  -0.014164  4.583246
N    2.913038  -0.487884  4.564446
C    3.354103  -1.671719  4.098181
N    2.577285  -2.454665  3.341367
N    4.598258  -2.064364  4.400940
H    -0.455917  1.879775  4.589002
H    -0.141645  2.617151  3.003300
H    1.947160  1.948630  3.787651
H    1.568530  0.767535  2.552929
H    0.873467  -0.876136  4.414880
H    1.319746  0.349902  5.599729
H    3.609962  0.113199  4.994134
H    2.854765  -3.411835  3.157589
H    1.697542  -2.141391  2.928482
H    5.135958  -1.618402  5.135398
H    5.038611  -2.842195  3.922841
N    -2.930443  2.400605  3.500604
C    -4.264037  2.983199  3.687646
H    -2.131678  2.971469  3.776761
H    -4.146664  3.982353  4.115688
H    -4.853347  2.371352  4.381982
H    -4.780372  3.073473  2.723834
Ca    -5.041634  -0.863436  2.015922
