37
Energy: -39742.0142452 eV PBE+vdW (tier 2 basis)
C    -0.716650  -2.230626  -0.352489
C    -0.565008  -1.550626  0.962648
O    0.578180  -1.171812  1.374834
H    -0.064079  -3.114100  -0.386925
H    -0.363776  -1.549796  -1.141825
H    -1.745847  -2.531049  -0.574132
N    -1.655363  -1.329451  1.716189
C    -1.675196  -0.541838  2.963409
C    -0.928962  -1.315471  4.083030
O    0.302618  -1.022472  4.262648
H    -2.548961  -1.639756  1.339558
H    -1.031049  0.334726  2.796154
C    -3.104739  -0.026583  3.230198
C    -3.247951  0.906648  4.445832
C    -4.701208  1.402014  4.587367
N    -4.902621  2.258695  5.761177
C    -5.533615  3.453969  5.796979
N    -6.088090  3.863579  6.941800
N    -5.599085  4.237785  4.714880
H    -3.808208  -0.866314  3.316757
H    -3.396004  0.521113  2.319878
H    -2.573189  1.770413  4.349227
H    -2.955458  0.382801  5.370179
H    -5.386890  0.542915  4.663852
H    -5.009876  1.955730  3.692203
H    -4.778839  1.814516  6.666769
H    -6.354596  4.833026  7.082114
H    -6.312502  3.217840  7.690833
H    -6.212570  5.045758  4.695761
H    -4.963122  4.131147  3.935713
N    -1.479166  -2.265767  4.819328
C    -2.815727  -2.869471  4.759383
H    -0.844918  -2.660775  5.516593
H    -3.143548  -3.003304  3.724407
H    -3.546821  -2.272737  5.318506
H    -2.754869  -3.858553  5.223707
Ca    1.982701  -0.848171  2.928456
