37
Energy: -39741.9807853 eV PBE+vdW (tier 2 basis)
C    0.565422  -0.424429  1.173363
C    0.102771  0.436278  2.297766
O    0.781347  1.448233  2.661081
H    -0.082792  -1.286259  0.984127
H    1.587666  -0.774603  1.370703
H    0.616164  0.192007  0.262920
N    -1.051652  0.132997  2.916345
C    -1.744593  0.965058  3.917548
C    -1.035800  0.861110  5.292084
O    0.037972  1.526002  5.458483
H    -1.531992  -0.700850  2.587986
H    -1.563822  2.010539  3.623321
C    -3.281748  0.776226  3.835578
C    -3.908510  -0.623320  4.027915
C    -5.296756  -0.777995  3.366336
N    -6.385886  -0.029967  4.006616
C    -7.548168  -0.556106  4.463969
N    -8.634596  0.218945  4.525914
N    -7.618901  -1.826889  4.871747
H    -3.550692  1.140286  2.831321
H    -3.727339  1.492611  4.541159
H    -4.006496  -0.886212  5.093422
H    -3.282605  -1.410654  3.577714
H    -5.573679  -1.838497  3.349005
H    -5.239336  -0.465570  2.311909
H    -6.416045  0.970094  3.831800
H    -8.718420  1.070817  3.981932
H    -9.453002  -0.061108  5.057691
H    -8.516111  -2.270148  5.041580
H    -6.795238  -2.370616  5.093744
N    -1.535899  0.116296  6.258105
C    -0.949569  -0.043806  7.594869
H    -2.384552  -0.405095  6.057739
H    -0.376095  0.850185  7.852240
H    -0.292530  -0.922979  7.617877
H    -1.758676  -0.181099  8.318700
Ca    1.603159  2.468520  4.327391
