37
Energy: -39742.2070774 eV PBE+vdW (tier 2 basis)
C    1.290803  1.002009  0.839370
C    1.010920  1.200696  2.288562
O    1.245016  2.319462  2.848893
H    1.083980  -0.013957  0.487622
H    2.338574  1.254600  0.626809
H    0.675089  1.711746  0.266113
N    0.495662  0.182880  2.996589
C    0.007006  0.242734  4.390501
C    1.216008  0.320070  5.357489
O    1.752079  1.456086  5.568426
H    0.347585  -0.690604  2.494539
H    -0.510405  1.207289  4.510657
C    -1.009183  -0.896705  4.610034
C    -1.843331  -0.801444  5.901196
C    -2.848146  -1.967841  5.997178
N    -3.635656  -1.949669  7.234303
C    -4.981706  -2.014576  7.341361
N    -5.523672  -2.496570  8.463552
N    -5.777204  -1.593868  6.351215
H    -0.505582  -1.877867  4.549143
H    -1.690333  -0.870294  3.744976
H    -2.386864  0.154829  5.927990
H    -1.191194  -0.814765  6.788517
H    -2.315553  -2.930766  5.945103
H    -3.538430  -1.958764  5.144359
H    -3.128202  -2.143416  8.093130
H    -6.502589  -2.343976  8.684996
H    -4.996727  -3.075243  9.108569
H    -6.770220  -1.802420  6.359322
H    -5.452117  -0.956315  5.636521
N    1.679857  -0.778924  5.919769
C    2.843889  -0.853358  6.811519
H    1.220844  -1.656475  5.687144
H    2.975005  0.103847  7.322309
H    3.747020  -1.093291  6.235061
H    2.672813  -1.644140  7.548388
Ca    2.099963  3.299002  4.515775
