37
Energy: -39741.3924735 eV PBE+vdW (tier 2 basis)
C    0.051917  0.042956  -0.083276
C    0.069004  -0.065333  1.398102
O    1.158737  -0.251545  2.027314
H    0.744137  0.817729  -0.439256
H    -0.944536  0.191325  -0.508525
H    0.448581  -0.911531  -0.470364
N    -1.086360  -0.010434  2.120419
C    -2.016867  1.112854  1.992230
C    -1.411196  2.283829  2.838565
O    -0.203515  2.209284  3.247612
H    -0.947361  -0.320786  3.083181
H    -1.959184  1.462812  0.949298
C    -3.491184  0.714731  2.247110
C    -3.843160  0.202216  3.655854
C    -5.123017  -0.652191  3.741801
N    -6.370618  0.099126  3.562814
C    -7.563190  -0.256701  4.097450
N    -8.599893  0.581735  3.993649
N    -7.707304  -1.415691  4.745852
H    -3.707573  -0.064339  1.500671
H    -4.128761  1.567801  1.964284
H    -3.902428  1.029768  4.378133
H    -3.048361  -0.468243  4.017964
H    -5.153487  -1.096131  4.745460
H    -5.062764  -1.477435  3.012070
H    -6.424170  0.763780  2.797693
H    -8.475530  1.560281  3.762104
H    -9.546909  0.276293  4.193588
H    -8.540777  -1.602783  5.294743
H    -7.085704  -2.199907  4.589135
N    -2.143702  3.354476  3.066507
C    -1.675040  4.563617  3.760521
H    -3.087241  3.372496  2.688192
H    -0.928822  5.087557  3.150507
H    -1.238863  4.296280  4.728907
H    -2.531666  5.223311  3.920270
Ca    1.779961  1.321369  3.362062
