37
Energy: -39742.2640393 eV PBE+vdW (tier 2 basis)
C    1.203567  -0.787876  -0.250620
C    0.797235  0.013693  0.936880
O    0.762748  1.284916  0.882880
H    2.186304  -0.450200  -0.606809
H    0.489815  -0.588410  -1.064512
H    1.236228  -1.865899  -0.062238
N    0.454919  -0.625882  2.066812
C    -0.127641  -0.012516  3.278849
C    0.972267  0.766704  4.043785
O    1.254553  1.948532  3.661655
H    0.519272  -1.641976  2.050795
H    -0.835612  0.760375  2.941209
C    -0.908897  -1.093138  4.054263
C    -1.827790  -0.568031  5.172836
C    -2.645576  -1.712679  5.798521
N    -3.551305  -1.213630  6.835992
C    -4.676573  -1.831490  7.256770
N    -5.515593  -1.179982  8.068485
N    -4.969480  -3.070764  6.848205
H    -0.219090  -1.860168  4.448244
H    -1.527568  -1.615178  3.307707
H    -2.520165  0.182459  4.762863
H    -1.237392  -0.067588  5.957072
H    -1.965610  -2.475631  6.214726
H    -3.255917  -2.193759  5.020304
H    -3.233089  -0.433912  7.403443
H    -6.249510  -1.668533  8.570979
H    -5.469355  -0.174956  8.191235
H    -5.883379  -3.473369  7.030448
H    -4.254999  -3.707434  6.517108
N    1.605575  0.194756  5.049302
C    2.695712  0.800931  5.824042
H    1.349071  -0.760932  5.285435
H    3.666572  0.514286  5.398848
H    2.638604  0.438221  6.854934
H    2.593295  1.888931  5.810004
Ca    1.288801  3.094130  1.840549
