37
Energy: -39740.4590923 eV PBE+vdW (tier 2 basis)
C    0.183410  -0.916572  -0.845679
C    0.459812  -0.341286  0.496916
O    1.580069  -0.649590  1.098381
H    0.652833  -0.270693  -1.605386
H    -0.886127  -0.972595  -1.072052
H    0.615358  -1.919948  -0.926897
N    -0.381364  0.466732  1.106620
C    -1.619990  1.044249  0.537826
C    -1.229570  1.881006  -0.718429
O    -0.097084  2.354384  -0.797483
H    -0.069448  0.841898  2.002547
H    -2.277969  0.207073  0.264887
C    -2.348084  1.893531  1.605773
C    -1.684325  3.243391  1.978394
C    -2.330524  4.501278  1.381650
N    -3.620508  4.798846  2.023727
C    -4.473427  5.766394  1.627273
N    -5.644045  5.913838  2.257844
N    -4.172126  6.550916  0.586076
H    -2.472776  1.265292  2.499945
H    -3.369598  2.059768  1.237446
H    -0.633716  3.264285  1.653847
H    -1.656666  3.351601  3.072917
H    -2.498115  4.374238  0.301625
H    -1.634766  5.344611  1.520211
H    -3.744102  4.463467  2.974758
H    -6.223292  6.733899  2.113782
H    -5.987039  5.223766  2.915674
H    -4.853367  7.203861  0.213403
H    -3.217480  6.663627  0.267846
N    -2.192431  2.065723  -1.648730
C    -3.513518  1.441089  -1.737632
H    -1.882406  2.621985  -2.443441
H    -3.989934  1.784584  -2.660327
H    -4.166185  1.727587  -0.902814
H    -3.451774  0.345151  -1.789807
Ca    3.422070  -1.323534  1.569140
