37
Energy: -39741.8070971 eV PBE+vdW (tier 2 basis)
C    0.733369  1.587693  1.397899
C    0.337575  0.222206  1.845678
O    1.223189  -0.614085  2.211751
H    1.396572  1.491359  0.525191
H    1.323926  2.073725  2.187043
H    -0.113284  2.229560  1.133778
N    -0.967860  -0.095335  1.851654
C    -1.618129  -1.404368  2.114399
C    -1.311631  -1.885206  3.550836
O    -0.215868  -2.478224  3.818781
H    -1.593063  0.644105  1.539733
H    -2.689806  -1.177562  2.065283
C    -1.284075  -2.458979  1.034077
C    -2.249109  -3.658409  0.902529
C    -3.515936  -3.378736  0.059910
N    -4.042479  -4.589652  -0.584599
C    -5.295102  -5.087946  -0.511652
N    -5.767638  -5.821164  -1.522244
N    -6.066721  -4.857390  0.560560
H    -0.271814  -2.844974  1.211592
H    -1.234129  -1.926375  0.073013
H    -2.519444  -4.072986  1.886046
H    -1.685517  -4.456589  0.399369
H    -3.273667  -2.662759  -0.741343
H    -4.323951  -2.923728  0.646010
H    -3.474138  -4.969136  -1.337583
H    -6.576207  -6.424310  -1.405701
H    -5.352392  -5.791046  -2.447581
H    -7.052677  -5.097609  0.544864
H    -5.659553  -4.675369  1.468462
N    -2.199730  -1.681748  4.510211
C    -3.487243  -0.974046  4.448306
H    -1.923150  -2.041029  5.425820
H    -3.908969  -0.959533  5.457282
H    -4.196578  -1.492397  3.791924
H    -3.353999  0.063821  4.121329
Ca    1.879225  -2.176782  3.463375
