37
Energy: -39742.1703473 eV PBE+vdW (tier 2 basis)
C    -0.913972  0.594546  0.572147
C    -0.401058  0.357887  1.951059
O    0.747135  0.780691  2.296990
H    -1.899343  0.154243  0.387985
H    -0.198299  0.200332  -0.162130
H    -0.968259  1.680597  0.402977
N    -1.177442  -0.300770  2.828715
C    -0.895588  -0.503918  4.262676
C    0.187291  -1.601114  4.440027
O    1.401688  -1.285006  4.218503
H    -2.062683  -0.655098  2.474340
H    -0.407095  0.416169  4.620925
C    -2.199671  -0.694979  5.065051
C    -3.067869  0.580344  5.117582
C    -4.164654  0.604840  6.194241
N    -5.320445  -0.245923  5.874253
C    -6.299366  -0.553138  6.760786
N    -7.306501  -1.343036  6.374632
N    -6.245618  -0.108651  8.019283
H    -1.910331  -0.966600  6.091439
H    -2.780962  -1.543427  4.665438
H    -3.513784  0.801902  4.134945
H    -2.418576  1.440020  5.341669
H    -4.487187  1.651686  6.317203
H    -3.747087  0.266874  7.154139
H    -5.604441  -0.272221  4.898589
H    -8.141314  -1.450563  6.941586
H    -7.278098  -1.860707  5.504227
H    -6.898117  -0.448346  8.719061
H    -5.685105  0.693364  8.280834
N    -0.156833  -2.818436  4.809547
C    0.760954  -3.946010  5.013021
H    -1.144822  -3.001742  4.968389
H    0.683252  -4.646039  4.171180
H    0.484527  -4.465038  5.937105
H    1.784328  -3.573506  5.091832
Ca    2.578348  0.184772  3.193753
