37
Energy: -39741.8919714 eV PBE+vdW (tier 2 basis)
C    -1.420106  -0.409219  -0.348986
C    -1.426396  -0.477152  1.140375
O    -0.808670  -1.412596  1.741087
H    -0.382113  -0.382506  -0.708982
H    -1.964419  0.449330  -0.755455
H    -1.864132  -1.335426  -0.743409
N    -2.095904  0.469636  1.818763
C    -2.383613  0.574554  3.271212
C    -1.079201  0.695097  4.090382
O    -0.370192  -0.334205  4.341395
H    -2.549663  1.171947  1.239271
H    -2.914156  1.529644  3.360740
C    -3.313774  -0.552507  3.781639
C    -4.051189  -0.264286  5.109957
C    -5.367836  0.520675  4.935691
N    -6.087535  0.735978  6.194506
C    -7.284508  0.216889  6.545132
N    -8.002893  0.817905  7.497754
N    -7.759666  -0.885764  5.953677
H    -2.733606  -1.477801  3.890355
H    -4.043913  -0.750730  2.983213
H    -3.393950  0.264196  5.819180
H    -4.278602  -1.226556  5.589232
H    -6.040060  -0.002375  4.242424
H    -5.187403  1.510652  4.488857
H    -5.725206  1.452682  6.816044
H    -8.777248  0.344693  7.952792
H    -7.833417  1.779502  7.772047
H    -8.724415  -1.170689  6.087924
H    -7.153773  -1.543609  5.481265
N    -0.701950  1.877429  4.547636
C    -1.324282  3.195282  4.349543
H    0.159395  1.861833  5.097224
H    -0.658692  3.946668  4.783913
H    -2.290812  3.260248  4.863956
H    -1.441044  3.423180  3.283889
Ca    0.411944  -2.055598  3.333755
