37
Energy: -39741.1482521 eV PBE+vdW (tier 2 basis)
C    -0.118197  -0.002280  -0.582543
C    0.302700  -0.699229  0.664974
O    1.474906  -1.192318  0.732577
H    -0.996398  0.631604  -0.457823
H    -0.287725  -0.721305  -1.398180
H    0.732529  0.618993  -0.900179
N    -0.480434  -0.773723  1.780175
C    -1.820287  -1.390008  1.868766
C    -1.565095  -2.930080  1.827668
O    -0.558552  -3.374459  1.168480
H    0.087171  -1.012483  2.596750
H    -2.192615  -1.130531  2.869736
C    -2.847106  -0.872677  0.828516
C    -4.310108  -1.259951  1.108665
C    -5.337464  -0.633020  0.149668
N    -5.588798  0.786180  0.438661
C    -6.301688  1.611873  -0.365400
N    -6.458304  2.891940  -0.013994
N    -6.811427  1.168713  -1.518389
H    -2.573652  -1.217511  -0.178435
H    -2.753970  0.222769  0.834728
H    -4.590423  -1.008138  2.144048
H    -4.439593  -2.346625  1.013138
H    -6.272878  -1.209459  0.234911
H    -4.984162  -0.717089  -0.888868
H    -5.559322  1.059323  1.417397
H    -7.127711  3.491687  -0.485366
H    -5.928208  3.309091  0.742211
H    -7.231994  1.812234  -2.181585
H    -6.967535  0.182917  -1.690434
N    -2.327863  -3.781576  2.490206
C    -3.425519  -3.561734  3.439045
H    -2.064950  -4.760969  2.356948
H    -3.240702  -4.181032  4.324601
H    -4.380583  -3.865906  2.994325
H    -3.478665  -2.515948  3.749044
Ca    1.564719  -3.339296  0.713080
