37
Energy: -39741.7390813 eV PBE+vdW (tier 2 basis)
C    1.295213  -3.361604  3.647571
C    0.611739  -2.144898  4.162362
O    0.663024  -1.834879  5.396058
H    1.148355  -3.524153  2.574883
H    0.940881  -4.242774  4.200697
H    2.372665  -3.275600  3.853677
N    -0.067050  -1.353880  3.311298
C    -0.652059  -0.069676  3.724355
C    -1.812262  -0.300408  4.733589
O    -1.552728  -0.014488  5.955038
H    -0.065644  -1.610779  2.327337
H    0.100995  0.400759  4.372619
C    -0.808320  0.956226  2.569711
C    -1.676922  0.660325  1.334753
C    -1.386376  1.569723  0.126086
N    -1.839164  2.953260  0.322914
C    -1.477368  3.991366  -0.469543
N    -1.913560  5.220319  -0.175477
N    -0.664001  3.803962  -1.512744
H    0.224121  1.145580  2.234720
H    -1.133044  1.893820  3.043751
H    -2.747694  0.716719  1.576398
H    -1.508963  -0.362016  0.962456
H    -1.880094  1.128387  -0.755044
H    -0.303763  1.590240  -0.068159
H    -2.712788  3.079949  0.826652
H    -1.824623  5.984991  -0.836782
H    -2.343605  5.436971  0.716012
H    -0.277014  4.595069  -2.018027
H    -0.548052  2.895624  -1.945588
N    -2.997104  -0.805530  4.436590
C    -3.525316  -1.381891  3.199541
H    -3.626093  -0.857103  5.241524
H    -4.271417  -0.715194  2.750530
H    -4.017527  -2.330016  3.446702
H    -2.724400  -1.584902  2.487589
Ca    -0.010178  -0.882070  7.182904
