37
Energy: -39741.2251766 eV PBE+vdW (tier 2 basis)
C    -0.337533  0.370875  0.996493
C    -0.682429  0.250708  2.442151
O    -0.086790  0.998449  3.284348
H    0.551196  -0.233785  0.756296
H    -0.063517  1.417317  0.809207
H    -1.154378  0.084396  0.331507
N    -1.648729  -0.586233  2.915928
C    -1.709597  -2.048402  2.722600
C    -0.572964  -2.630853  3.621245
O    0.458872  -1.909785  3.864650
H    -1.913863  -0.325017  3.868309
H    -2.675730  -2.352557  3.149353
C    -1.678210  -2.503102  1.238857
C    -2.279389  -3.890236  0.943543
C    -2.456005  -4.097400  -0.572835
N    -3.117312  -5.374083  -0.855354
C    -3.056017  -6.048402  -2.025114
N    -3.573549  -7.278542  -2.097751
N    -2.456705  -5.511680  -3.093747
H    -0.654273  -2.449937  0.843823
H    -2.274764  -1.756340  0.696085
H    -3.265738  -3.972257  1.428231
H    -1.646035  -4.696116  1.338676
H    -1.472653  -4.107183  -1.064974
H    -3.040208  -3.261036  -0.993253
H    -3.847550  -5.669908  -0.213962
H    -3.740830  -7.729086  -2.991616
H    -3.811104  -7.809706  -1.267784
H    -2.274070  -6.072762  -3.919828
H    -2.352339  -4.509971  -3.198533
N    -0.665427  -3.827913  4.172548
C    -1.772666  -4.788245  4.207777
H    0.157410  -4.097442  4.716545
H    -1.924471  -5.099325  5.248105
H    -1.524929  -5.674519  3.611572
H    -2.697610  -4.339927  3.839140
Ca    1.355379  -0.029266  4.495822
