37
Energy: -39740.3565436 eV PBE+vdW (tier 2 basis)
C    -0.287160  -0.506201  -0.091695
C    -0.298391  -0.043473  1.317739
O    0.816503  0.423148  1.833432
H    -0.034818  0.341924  -0.745768
H    -1.234898  -0.960377  -0.398398
H    0.504776  -1.259538  -0.213737
N    -1.360653  -0.067599  2.100322
C    -2.772602  -0.500394  1.852365
C    -2.831707  -2.004957  1.440118
O    -2.805658  -2.299530  0.243346
H    -1.194190  0.286952  3.042741
H    -3.238993  -0.373992  2.837334
C    -3.528783  0.392557  0.851812
C    -5.058225  0.136734  0.904853
C    -5.665554  -0.713709  -0.220114
N    -5.887261  0.081228  -1.438587
C    -6.276086  -0.434780  -2.622339
N    -6.499416  0.382136  -3.659949
N    -6.406301  -1.755884  -2.778685
H    -3.147228  0.225880  -0.163961
H    -3.323526  1.438823  1.114657
H    -5.584860  1.101536  0.948293
H    -5.323577  -0.354579  1.852589
H    -6.625905  -1.122559  0.133768
H    -4.994913  -1.549810  -0.464934
H    -6.095057  1.066121  -1.298716
H    -6.947588  0.050489  -4.506680
H    -6.294176  1.372589  -3.612099
H    -6.434479  -2.384339  -1.986276
H    -6.593647  -2.160060  -3.689482
N    -2.923389  -2.914391  2.430301
C    -3.013388  -2.700570  3.874876
H    -2.975031  -3.875719  2.096887
H    -2.141141  -2.159559  4.266324
H    -3.030536  -3.679949  4.361925
H    -3.934806  -2.174863  4.159717
Ca    2.699776  1.012924  2.252047
