37
Energy: -39740.2616487 eV PBE+vdW (tier 2 basis)
C    0.632255  0.094828  1.545825
C    0.078456  0.025373  2.923146
O    0.900971  0.064021  3.943353
H    0.690330  1.151234  1.233564
H    -0.000627  -0.398721  0.799984
H    1.640540  -0.331310  1.516474
N    -1.219282  -0.042382  3.164987
C    -2.301517  -0.030398  2.153010
C    -2.405045  1.372600  1.449920
O    -2.089760  1.409643  0.267344
H    -1.496504  -0.036985  4.148120
H    -1.967691  -0.669710  1.327544
C    -3.614988  -0.616226  2.704993
C    -4.760342  -0.452250  1.687030
C    -6.120250  -1.026549  2.128259
N    -6.292829  -2.473522  1.944745
C    -6.996735  -3.058038  0.954335
N    -7.422910  -4.318351  1.103721
N    -7.265438  -2.400017  -0.178686
H    -3.896879  -0.128044  3.650253
H    -3.445493  -1.680889  2.929799
H    -4.467990  -0.890100  0.720168
H    -4.918302  0.619414  1.494770
H    -6.925011  -0.522799  1.577219
H    -6.309117  -0.810276  3.189281
H    -6.021587  -3.081381  2.710138
H    -7.779933  -4.850016  0.317057
H    -7.507817  -4.746736  2.018378
H    -7.950181  -2.753969  -0.837972
H    -6.783097  -1.548406  -0.434538
N    -2.786388  2.468204  2.153194
C    -3.318243  2.585835  3.505451
H    -2.825628  3.304795  1.572565
H    -3.278739  3.639791  3.798328
H    -2.715254  2.030742  4.235925
H    -4.365291  2.258835  3.580108
Ca    2.566033  0.161645  5.083607
