37
Energy: -39741.9649281 eV PBE+vdW (tier 2 basis)
C    0.119723  -0.037603  0.011605
C    -0.241183  -0.279471  1.438300
O    0.595083  -0.828526  2.224301
H    -0.667895  0.455851  -0.566973
H    0.359206  -1.003590  -0.457275
H    1.035447  0.568051  -0.036342
N    -1.459160  0.098456  1.859002
C    -2.136175  -0.126190  3.160212
C    -1.386535  0.554980  4.329753
O    -0.291041  0.086086  4.775752
H    -2.035574  0.544577  1.149342
H    -3.094945  0.399063  3.046851
C    -2.437427  -1.620804  3.427761
C    -3.440550  -1.870779  4.576941
C    -4.931392  -1.919511  4.201827
N    -5.287130  -3.194259  3.562194
C    -6.499122  -3.476697  3.029167
N    -6.694319  -4.657847  2.435464
N    -7.482219  -2.570496  3.056016
H    -1.495731  -2.142968  3.642639
H    -2.811093  -2.051637  2.487691
H    -3.329451  -1.104996  5.359118
H    -3.178526  -2.811733  5.083128
H    -5.196086  -1.102869  3.511769
H    -5.517580  -1.780363  5.124906
H    -4.727057  -4.001288  3.822758
H    -5.926243  -5.282689  2.219322
H    -7.625503  -4.980746  2.193074
H    -8.349689  -2.732850  2.553959
H    -7.492266  -1.816790  3.732438
N    -1.944748  1.625265  4.868168
C    -1.401122  2.396418  5.992453
H    -2.805003  1.974196  4.451127
H    -0.809455  3.242513  5.618539
H    -0.774649  1.750310  6.612488
H    -2.234679  2.783025  6.587354
Ca    1.525941  -0.831744  4.114495
