37
Energy: -39742.1466606 eV PBE+vdW (tier 2 basis)
C    1.209990  0.314958  0.767609
C    0.341299  -0.210871  1.861198
O    0.454063  -1.420504  2.239232
H    2.264822  0.211087  1.059222
H    1.013806  1.360928  0.510371
H    1.071228  -0.310752  -0.125816
N    -0.545237  0.625481  2.424517
C    -1.589038  0.370097  3.445997
C    -1.008504  -0.097337  4.798489
O    -0.469067  -1.243354  4.931721
H    -0.524034  1.575714  2.062557
H    -2.026830  1.362729  3.620209
C    -2.732278  -0.556263  2.960261
C    -3.618736  0.092269  1.880016
C    -4.784872  -0.822212  1.454763
N    -5.587415  -0.260842  0.363296
C    -6.904983  0.034123  0.385706
N    -7.580786  0.090741  -0.765662
N    -7.541769  0.274031  1.538470
H    -3.342712  -0.809131  3.841304
H    -2.311125  -1.503132  2.591460
H    -3.014185  0.332390  0.991809
H    -4.022353  1.047490  2.250501
H    -5.450422  -1.035577  2.301204
H    -4.399043  -1.796628  1.117745
H    -5.159073  -0.258501  -0.557960
H    -8.491657  0.535173  -0.822207
H    -7.231718  -0.340587  -1.614595
H    -8.554756  0.323203  1.570323
H    -7.046421  0.550979  2.375493
N    -1.140905  0.722831  5.825343
C    -0.714563  0.447194  7.201958
H    -1.556498  1.636383  5.655223
H    0.253338  0.927144  7.397470
H    -0.631833  -0.631715  7.351871
H    -1.460684  0.859738  7.889133
Ca    0.662951  -2.717277  3.896772
