37
Energy: -39742.0497919 eV PBE+vdW (tier 2 basis)
C    -0.281999  -0.013852  -0.121718
C    -0.253761  -0.295216  1.340620
O    0.842678  -0.281568  1.985060
H    -1.284852  -0.061968  -0.558349
H    0.373297  -0.724890  -0.644175
H    0.140846  0.986516  -0.296296
N    -1.407586  -0.559856  1.977833
C    -1.549654  -0.756693  3.431727
C    -0.901744  -2.105142  3.852900
O    0.325649  -2.061442  4.212346
H    -2.253625  -0.583794  1.412911
H    -0.897850  -0.012734  3.914352
C    -2.995147  -0.495751  3.903715
C    -3.366425  0.998737  3.979154
C    -4.840630  1.188969  4.387001
N    -5.253819  2.596889  4.389923
C    -5.907762  3.252810  5.374125
N    -6.650305  4.319823  5.064211
N    -5.814241  2.862191  6.650533
H    -3.107117  -0.950881  4.899234
H    -3.706913  -1.022023  3.250537
H    -3.200998  1.481520  3.002826
H    -2.714256  1.516594  4.698293
H    -5.028158  0.766456  5.381925
H    -5.497730  0.639619  3.693940
H    -5.266058  3.060815  3.485765
H    -6.978085  4.489544  4.119640
H    -6.955189  4.975842  5.776348
H    -6.432768  3.246583  7.357021
H    -5.053609  2.281985  6.978798
N    -1.525880  -3.268873  3.844096
C    -2.878637  -3.637892  3.408796
H    -0.949020  -4.040306  4.186771
H    -3.606919  -3.490849  4.215530
H    -2.863759  -4.700417  3.146953
H    -3.174004  -3.075277  2.518653
Ca    2.109032  -1.148468  3.460003
