37
Energy: -39739.9310327 eV PBE+vdW (tier 2 basis)
C    1.121390  -1.229168  1.624633
C    0.350755  0.059436  1.689338
O    0.854574  1.164423  1.505867
H    1.804207  -1.269111  2.485819
H    1.750669  -1.228739  0.726582
H    0.496326  -2.129258  1.627919
N    -1.012656  -0.069042  1.960070
C    -1.825112  1.069353  2.391895
C    -3.253981  0.649913  2.712968
O    -3.797385  1.178597  3.783432
H    -1.272131  -0.976209  2.340337
H    -1.439663  1.442323  3.358136
C    -1.840496  2.347346  1.474816
C    -2.130771  2.259501  -0.033873
C    -1.000187  1.772834  -0.962201
N    0.237745  2.545016  -0.859603
C    0.778920  3.333889  -1.803264
N    0.051010  3.811328  -2.821553
N    2.076011  3.655117  -1.717685
H    -2.593461  3.016006  1.921595
H    -0.876381  2.839891  1.640832
H    -2.407878  3.279231  -0.341372
H    -3.021431  1.649416  -0.244349
H    -1.355485  1.797480  -2.000368
H    -0.745818  0.723309  -0.762753
H    0.823675  2.291828  -0.059702
H    -0.959637  3.790196  -2.815902
H    0.494217  4.263843  -3.613210
H    2.476694  4.397537  -2.280009
H    2.706032  3.151883  -1.104174
N    -3.994505  -0.171043  2.002563
C    -3.717868  -0.894477  0.751631
H    -4.932550  -0.329485  2.377093
H    -4.468036  -0.599491  0.007709
H    -2.714958  -0.668770  0.390580
H    -3.816451  -1.971584  0.938313
Ca    -4.477090  1.965862  5.522036
