37
Energy: -39740.1520998 eV PBE+vdW (tier 2 basis)
C    0.951711  0.454950  0.320553
C    0.418255  0.022509  1.652015
O    1.015778  -0.747959  2.413963
H    1.943732  0.904458  0.459184
H    0.305306  1.161361  -0.211436
H    1.100604  -0.436987  -0.303741
N    -0.808649  0.537030  2.031809
C    -1.400188  0.164550  3.309831
C    -2.634625  -0.708650  3.040291
O    -3.853075  -0.261672  3.136732
H    -1.260109  1.228683  1.440586
H    -0.657615  -0.529201  3.743041
C    -1.610286  1.332894  4.287245
C    -0.424815  1.640329  5.230271
C    0.878053  2.241517  4.652970
N    1.912131  1.251913  4.341765
C    3.218456  1.354988  4.645881
N    3.745434  2.491076  5.119415
N    4.005808  0.282940  4.482619
H    -2.459847  1.090479  4.944495
H    -1.897289  2.238547  3.730118
H    -0.174733  0.745635  5.820197
H    -0.804793  2.370105  5.958111
H    1.285832  2.908310  5.422014
H    0.667632  2.864646  3.768781
H    1.654155  0.441689  3.769341
H    4.686408  2.509416  5.497368
H    3.285392  3.385013  5.006303
H    3.616314  -0.635301  4.306187
H    5.016273  0.360384  4.504978
N    -2.419309  -1.952712  2.676381
C    -3.430476  -2.942557  2.296494
H    -1.441120  -2.245940  2.633397
H    -2.919113  -3.858059  1.986333
H    -4.029590  -2.576653  1.452704
H    -4.073967  -3.183048  3.153202
Ca    -5.794289  0.270162  3.367149
