37
Energy: -39741.7173565 eV PBE+vdW (tier 2 basis)
C    2.130655  -0.995792  1.887851
C    1.286404  -0.548271  3.027910
O    1.799892  0.034194  4.036856
H    1.565675  -1.502521  1.098762
H    2.919065  -1.666525  2.257455
H    2.641073  -0.120201  1.459688
N    -0.043232  -0.755408  2.994325
C    -0.936372  -0.230009  4.036851
C    -0.642824  -0.921102  5.398575
O    -0.063324  -0.193520  6.279504
H    -0.433264  -1.202564  2.168956
H    -0.581154  0.791358  4.234744
C    -2.407703  -0.005427  3.599207
C    -3.323085  -1.169767  3.190811
C    -4.774653  -0.748532  2.890776
N    -4.926672  -0.003273  1.633803
C    -6.028841  0.715625  1.307220
N    -6.051443  1.386110  0.150832
N    -7.069540  0.790251  2.141278
H    -2.354207  0.731787  2.782908
H    -2.875087  0.529627  4.440398
H    -3.407993  -1.894243  4.009370
H    -2.924608  -1.729526  2.328044
H    -5.141998  -0.111905  3.709015
H    -5.392855  -1.660488  2.869242
H    -4.381466  -0.332997  0.841792
H    -5.213740  1.532652  -0.399813
H    -6.913235  1.775722  -0.217291
H    -7.230801  0.095538  2.860530
H    -7.828630  1.441807  1.967479
N    -0.892839  -2.187798  5.683056
C    -1.355830  -3.301495  4.853183
H    -0.645508  -2.440338  6.643093
H    -0.660761  -4.139946  4.983992
H    -1.373083  -3.026715  3.797947
H    -2.352180  -3.629318  5.173748
Ca    1.884252  0.697491  6.069832
