37
Energy: -39740.6273926 eV PBE+vdW (tier 2 basis)
C    -1.287015  -1.751957  0.644487
C    -0.323076  -0.908350  1.403113
O    0.808013  -1.446363  1.790642
H    -0.892238  -1.940720  -0.365912
H    -2.278010  -1.301307  0.549438
H    -1.392620  -2.725075  1.141546
N    -0.547962  0.353141  1.693152
C    -1.712522  1.201805  1.348015
C    -1.115514  2.620991  1.161246
O    -0.534075  3.116720  2.141843
H    0.154893  0.857186  2.247516
H    -2.166432  0.817842  0.428981
C    -2.718864  1.231420  2.519861
C    -3.831113  2.299111  2.356628
C    -4.039542  3.191342  3.584582
N    -2.895521  4.083344  3.809739
C    -2.922445  5.187150  4.572272
N    -1.855796  6.000406  4.589548
N    -3.999957  5.492093  5.304168
H    -2.140873  1.417137  3.436691
H    -3.159923  0.231507  2.629537
H    -4.787848  1.804182  2.149503
H    -3.640870  2.947753  1.488465
H    -4.220850  2.566981  4.475816
H    -4.937063  3.803893  3.414824
H    -1.997452  3.827878  3.390530
H    -1.786538  6.770268  5.244458
H    -1.095463  5.882744  3.931780
H    -4.077500  6.383946  5.779809
H    -4.754209  4.833220  5.447884
N    -1.269957  3.243494  -0.013557
C    -1.929599  2.764005  -1.233306
H    -0.855698  4.174325  -0.045172
H    -1.412798  1.894575  -1.659438
H    -2.986033  2.524878  -1.058219
H    -1.891597  3.567408  -1.974323
Ca    2.427773  -2.593014  2.165914
