37
Energy: -39740.1836076 eV PBE+vdW (tier 2 basis)
C    0.026986  -0.178537  0.292136
C    -0.149629  -0.479553  1.745874
O    0.750530  -0.954575  2.463882
H    0.307387  -1.102902  -0.231326
H    0.873049  0.511716  0.170057
H    -0.860912  0.252012  -0.183114
N    -1.376734  -0.212422  2.312020
C    -1.536777  -0.375510  3.752532
C    -2.046418  -1.800252  4.029703
O    -3.266488  -2.069836  4.394802
H    -2.116759  0.199354  1.751058
H    -0.504420  -0.400819  4.134421
C    -2.259762  0.769160  4.458298
C    -1.679043  2.167220  4.137459
C    -0.157052  2.345520  4.053113
N    0.568534  2.026242  5.298335
C    1.868461  1.639340  5.347342
N    2.395602  0.865048  4.393328
N    2.618293  2.009136  6.391489
H    -2.194146  0.575723  5.539547
H    -3.331219  0.786941  4.205136
H    -2.091619  2.874948  4.871293
H    -2.065415  2.514223  3.168336
H    0.040237  3.394181  3.781669
H    0.268586  1.740075  3.246968
H    0.255794  2.540084  6.119322
H    1.831747  0.343716  3.721665
H    3.399322  0.725443  4.346975
H    2.369676  2.802927  6.971986
H    3.520034  1.580388  6.573824
N    -1.169573  -2.757392  3.840227
C    -1.403298  -4.197230  3.951920
H    -0.246767  -2.429813  3.507109
H    -1.750408  -4.453675  4.961190
H    -0.457500  -4.715840  3.772711
H    -2.130047  -4.532243  3.199446
Ca    -5.123711  -2.647295  4.952278
