37
Energy: -39739.5146418 eV PBE+vdW (tier 2 basis)
C    -0.397946  1.387295  1.417165
C    -0.217876  0.483940  2.616953
O    0.510700  0.734315  3.553131
H    0.287878  2.232498  1.523876
H    -1.423259  1.787752  1.364791
H    -0.171171  0.865700  0.475937
N    -0.930502  -0.730839  2.634284
C    -1.987944  -1.157403  1.763725
C    -3.318704  -0.407040  2.002210
O    -4.014386  -0.056051  0.945339
H    -0.720052  -1.276964  3.465197
H    -1.733988  -0.856821  0.734543
C    -2.120166  -2.708854  1.713170
C    -2.350820  -3.450330  3.040768
C    -2.235547  -4.982387  2.942703
N    -0.839472  -5.426400  2.828019
C    -0.456534  -6.685048  2.512335
N    0.845482  -6.960955  2.385630
N    -1.366276  -7.639204  2.290468
H    -2.924812  -2.970282  1.009417
H    -1.183247  -3.051255  1.249975
H    -3.359133  -3.240204  3.426191
H    -1.652243  -3.111674  3.823528
H    -2.787164  -5.347520  2.063584
H    -2.701846  -5.418489  3.840901
H    -0.142657  -4.870025  3.315631
H    1.545918  -6.230008  2.340679
H    1.181372  -7.917463  2.341907
H    -1.089385  -8.544963  1.925365
H    -2.310891  -7.569105  2.648810
N    -3.759306  -0.013694  3.176133
C    -3.200643  -0.199624  4.528663
H    -4.615506  0.541126  3.147104
H    -2.917254  -1.239877  4.699318
H    -2.336111  0.458357  4.681270
H    -3.985479  0.067634  5.242285
Ca    -4.927540  0.709070  -0.689612
