37
Energy: -39740.4234585 eV PBE+vdW (tier 2 basis)
C    -1.724621  -0.743111  -0.085162
C    -1.411487  -0.531010  1.364681
O    -0.235230  -0.450987  1.775113
H    -1.485686  0.180049  -0.633369
H    -2.767425  -1.012003  -0.284627
H    -1.058627  -1.517584  -0.484319
N    -2.473913  -0.401741  2.213545
C    -2.468656  -0.289421  3.682097
C    -1.667501  0.908643  4.218259
O    -2.211256  1.656390  5.151226
H    -3.396031  -0.433905  1.789369
H    -3.509107  -0.047867  3.935657
C    -2.165844  -1.610658  4.459930
C    -0.768861  -2.263949  4.365262
C    -0.587770  -3.389480  3.335838
N    -1.192743  -4.647253  3.802124
C    -1.257121  -5.783671  3.076849
N    -1.886202  -6.852813  3.577131
N    -0.729912  -5.832881  1.847664
H    -2.944515  -2.323568  4.149356
H    -2.383206  -1.390243  5.515969
H    -0.505947  -2.665301  5.356210
H    0.006308  -1.517527  4.156979
H    0.493149  -3.526939  3.171481
H    -1.042032  -3.124753  2.370988
H    -1.306502  -4.755630  4.805702
H    -1.794466  -7.768520  3.150369
H    -2.465849  -6.792541  4.405921
H    -0.010334  -5.182400  1.556619
H    -0.869272  -6.645677  1.256346
N    -0.472888  1.148393  3.767091
C    0.393729  2.246426  4.183166
H    -0.181976  0.478310  2.959155
H    1.346096  2.155040  3.653264
H    0.592059  2.201027  5.262649
H    -0.050786  3.216720  3.919130
Ca    -2.888808  3.055995  6.427272
