37
Energy: -39739.6864338 eV PBE+vdW (tier 2 basis)
C    -1.316912  -0.173621  -0.421941
C    -0.884900  -0.071521  1.013042
O    -0.198549  -0.920318  1.573940
H    -0.532100  -0.698102  -0.978706
H    -1.504783  0.799070  -0.891500
H    -2.222246  -0.795093  -0.499768
N    -1.268624  1.048104  1.760175
C    -2.564508  1.704402  1.715858
C    -2.493090  3.163835  1.236364
O    -3.436483  3.597587  0.435073
H    -0.872602  0.988020  2.697640
H    -3.198198  1.204859  0.968340
C    -3.243910  1.607414  3.113067
C    -3.929212  0.263968  3.456423
C    -3.219557  -1.086564  3.225450
N    -1.916505  -1.297502  3.869852
C    -1.705945  -2.070268  4.956949
N    -0.496047  -2.608258  5.143705
N    -2.676315  -2.289748  5.851525
H    -4.008398  2.392523  3.212736
H    -2.479830  1.846948  3.868609
H    -4.873161  0.193696  2.893830
H    -4.229831  0.347286  4.511810
H    -3.063949  -1.263596  2.152272
H    -3.910251  -1.880726  3.543610
H    -1.110477  -1.217250  3.232161
H    -0.235753  -3.041685  6.023021
H    0.181006  -2.656549  4.390108
H    -3.531943  -1.750993  5.858854
H    -2.564625  -2.977215  6.588935
N    -1.544922  4.003270  1.580501
C    -0.390353  3.821240  2.479247
H    -1.611884  4.930047  1.158349
H    -0.694208  3.338379  3.411981
H    -0.003368  4.816238  2.717790
H    0.392134  3.238505  1.980125
Ca    -4.832657  4.359349  -0.823848
