37
Energy: -39739.7970814 eV PBE+vdW (tier 2 basis)
C    -1.167657  -0.837516  -1.099722
C    -0.609404  -0.825613  0.295655
O    0.235874  -1.627007  0.681531
H    -1.438020  0.159543  -1.468877
H    -2.053579  -1.490202  -1.142612
H    -0.418654  -1.278654  -1.765801
N    -1.063316  0.138305  1.194706
C    -2.399600  0.701465  1.244050
C    -2.475616  2.168665  0.788798
O    -3.518212  2.539258  0.085438
H    -0.612948  0.032411  2.103049
H    -3.043729  0.166286  0.530423
C    -2.996776  0.530628  2.668133
C    -3.415220  -0.909761  3.039507
C    -2.370208  -2.032174  3.138511
N    -1.349012  -1.773411  4.176639
C    -0.205693  -2.511704  4.307849
N    0.237209  -2.799121  5.536901
N    0.475609  -2.899863  3.234193
H    -3.890975  1.164258  2.763107
H    -2.273847  0.927942  3.397988
H    -4.177366  -1.262440  2.328001
H    -3.943799  -0.838658  4.003248
H    -1.863878  -2.207050  2.184636
H    -2.910977  -2.961610  3.377001
H    -1.733735  -1.468100  5.068497
H    1.176191  -3.154140  5.688704
H    -0.374233  -2.778621  6.345580
H    0.361397  -2.450627  2.312685
H    1.243415  -3.556769  3.330287
N    -1.562804  3.071184  1.060738
C    -0.324123  2.961999  1.852688
H    -1.734025  3.995755  0.663566
H    0.008982  3.979461  2.077623
H    0.452034  2.445191  1.277180
H    -0.509780  2.442766  2.796661
Ca    -5.096886  3.177460  -1.018011
