37
Energy: -39740.8309681 eV PBE+vdW (tier 2 basis)
C    -0.246861  0.115758  -0.362460
C    -0.092668  0.239138  1.112997
O    1.126346  0.289493  1.605727
H    0.237493  0.970659  -0.856058
H    -1.290325  0.070278  -0.684088
H    0.268312  -0.791261  -0.709586
N    -1.095744  0.304361  1.946189
C    -2.537110  0.492893  1.706481
C    -2.953342  1.254745  3.010003
O    -2.184959  1.185244  3.980983
H    -0.951690  0.479851  2.976953
H    -2.676908  1.135313  0.826637
C    -3.334416  -0.821280  1.510042
C    -3.383775  -1.754691  2.728662
C    -4.177254  -3.051883  2.513280
N    -5.629763  -2.823144  2.492493
C    -6.542731  -3.725084  2.072310
N    -7.838588  -3.391507  2.053764
N    -6.161359  -4.932571  1.642945
H    -2.912032  -1.355564  0.644650
H    -4.351301  -0.527455  1.209306
H    -3.781122  -1.227065  3.610563
H    -2.365588  -2.059316  3.010860
H    -3.919367  -3.755114  3.321510
H    -3.891629  -3.513982  1.556480
H    -5.981785  -2.096112  3.108985
H    -8.562369  -4.090463  1.925587
H    -8.145050  -2.432581  2.164784
H    -6.822846  -5.558608  1.195719
H    -5.263015  -5.326855  1.892688
N    -4.125140  1.895721  2.993186
C    -4.638476  2.666032  4.131526
H    -4.624752  1.972281  2.111966
H    -5.717097  2.502936  4.225799
H    -4.449153  3.737228  3.987714
H    -4.133006  2.330960  5.040904
Ca    3.029797  0.560622  2.175700
