37
Energy: -39739.9698607 eV PBE+vdW (tier 2 basis)
C    -0.008799  0.775689  -0.051854
C    -0.089399  0.622658  1.441076
O    0.814485  0.956472  2.191959
H    -0.963844  0.670817  -0.577995
H    0.675068  -0.002471  -0.426027
H    0.452366  1.736804  -0.303984
N    -1.208144  -0.043066  2.000098
C    -2.616841  0.219245  1.698989
C    -3.169163  -0.825688  0.715390
O    -4.391543  -0.754384  0.272370
H    -1.034204  -0.206909  2.991648
H    -3.153851  -0.003452  2.636908
C    -2.988822  1.683802  1.300714
C    -2.154737  2.807491  1.952657
C    -2.058756  2.822716  3.489152
N    -1.297771  3.970409  3.981508
C    -0.062496  3.952477  4.529698
N    0.752382  2.904879  4.380482
N    0.334528  5.011098  5.246671
H    -4.050781  1.828885  1.547921
H    -2.900470  1.810505  0.212867
H    -2.608924  3.754013  1.623503
H    -1.141131  2.822443  1.532053
H    -1.578759  1.919192  3.886434
H    -3.061483  2.869322  3.940188
H    -1.773912  4.867250  3.990771
H    1.605012  2.856411  4.928378
H    0.676227  2.230099  3.613597
H    -0.323890  5.692216  5.607552
H    1.310580  5.149062  5.485335
N    -2.384584  -1.812969  0.373698
C    -2.705556  -2.940308  -0.500110
H    -1.460955  -1.762635  0.823087
H    -1.796795  -3.527744  -0.658320
H    -3.058415  -2.581867  -1.475655
H    -3.457656  -3.589543  -0.031536
Ca    -6.275086  -0.895195  -0.460064
