37
Energy: -39741.9486903 eV PBE+vdW (tier 2 basis)
C    -1.552932  1.036560  0.652906
C    -0.933734  0.438178  1.870492
O    -0.156216  -0.563297  1.765866
H    -0.763787  1.323351  -0.055989
H    -2.184335  1.906846  0.859211
H    -2.156723  0.264761  0.152575
N    -1.219038  0.984697  3.063541
C    -0.863543  0.535136  4.432582
C    0.666129  0.544063  4.663454
O    1.418562  -0.337096  4.137447
H    -1.831687  1.795954  3.025346
H    -1.287648  1.317143  5.077848
C    -1.521895  -0.813774  4.813231
C    -1.522451  -1.120736  6.327412
C    -2.661062  -0.489258  7.158593
N    -3.950382  -1.186784  7.078976
C    -4.501156  -1.947631  8.051876
N    -5.819083  -2.169155  8.043367
N    -3.745610  -2.483621  9.016271
H    -1.013529  -1.626610  4.277815
H    -2.548082  -0.799256  4.417614
H    -0.566971  -0.806454  6.776308
H    -1.559001  -2.211335  6.456266
H    -2.841763  0.556454  6.867464
H    -2.367324  -0.449567  8.215394
H    -4.571728  -0.944309  6.314580
H    -6.459898  -1.574945  7.528986
H    -6.235754  -2.894498  8.618525
H    -4.169940  -2.896570  9.840639
H    -2.742525  -2.578566  8.926361
N    1.156810  1.486743  5.449132
C    2.572240  1.654964  5.798491
H    0.511869  2.182345  5.818081
H    2.637586  2.032839  6.823769
H    3.043633  2.380456  5.122312
H    3.085336  0.692772  5.726615
Ca    1.659631  -1.466801  2.334641
