37
Energy: -39740.6404889 eV PBE+vdW (tier 2 basis)
C    -0.175077  -1.017445  -0.167454
C    -0.143535  -0.346604  1.161192
O    0.979297  -0.262687  1.824606
H    -0.776020  -0.454034  -0.893090
H    -0.634791  -2.015195  -0.072337
H    0.836262  -1.144506  -0.563337
N    -1.240120  0.159526  1.698377
C    -2.619429  0.052446  1.155699
C    -2.952137  1.031996  -0.002691
O    -3.827470  0.680012  -0.796458
H    -1.142614  0.582239  2.624067
H    -2.717254  -0.946240  0.710469
C    -3.623279  0.168569  2.327839
C    -5.084740  -0.176576  1.961489
C    -5.959848  1.036482  1.586796
N    -7.296131  0.652191  1.139097
C    -7.676886  0.463746  -0.138389
N    -8.974508  0.267723  -0.409063
N    -6.781987  0.471800  -1.130754
H    -3.564614  1.179199  2.765943
H    -3.291238  -0.533667  3.106235
H    -5.541253  -0.672693  2.828376
H    -5.103497  -0.913344  1.146032
H    -5.500536  1.650752  0.802647
H    -6.089230  1.691648  2.458987
H    -7.997329  0.486446  1.853801
H    -9.285211  -0.015944  -1.330790
H    -9.695829  0.441114  0.280950
H    -5.773815  0.491421  -0.970764
H    -7.093928  0.489423  -2.094515
N    -2.298191  2.205565  -0.062770
C    -2.592183  3.227113  -1.072997
H    -1.655762  2.452826  0.681863
H    -1.687863  3.811735  -1.267073
H    -3.388917  3.901290  -0.732486
H    -2.912280  2.733910  -1.995376
Ca    2.866265  -0.461284  2.546595
