37
Energy: -39741.9397904 eV PBE+vdW (tier 2 basis)
C    -0.491599  0.330553  -0.139533
C    -0.327762  -0.109840  1.273757
O    0.822382  -0.386360  1.740149
H    -0.080381  -0.435619  -0.811730
H    0.108510  1.238800  -0.297475
H    -1.530898  0.532607  -0.418200
N    -1.415036  -0.206771  2.059660
C    -1.388893  -0.526380  3.497470
C    -0.999179  -2.015993  3.709113
O    0.245449  -2.262120  3.870312
H    -2.314700  0.006194  1.635181
H    -0.522941  0.007687  3.917289
C    -2.640801  -0.006269  4.237283
C    -2.615535  1.519787  4.462271
C    -3.626163  2.042292  5.503749
N    -5.029634  2.105472  5.071510
C    -5.768264  3.233518  4.955900
N    -7.099279  3.158908  5.057126
N    -5.188796  4.415149  4.721695
H    -2.668871  -0.512567  5.214616
H    -3.556390  -0.306430  3.707413
H    -2.749431  2.058568  3.512036
H    -1.621722  1.803928  4.842350
H    -3.325913  3.048861  5.819804
H    -3.583992  1.423817  6.412982
H    -5.570226  1.248965  5.138827
H    -7.693821  3.930655  4.771693
H    -7.558851  2.378504  5.513234
H    -5.709050  5.280674  4.821873
H    -4.233232  4.492520  4.399117
N    -1.857397  -3.019710  3.715505
C    -3.305055  -3.048699  3.481403
H    -1.422690  -3.925676  3.904337
H    -3.857181  -2.858248  4.409858
H    -3.564560  -4.050507  3.125006
H    -3.593476  -2.330624  2.708500
Ca    2.068376  -1.631649  2.938917
