37
Energy: -39742.0356978 eV PBE+vdW (tier 2 basis)
C    -1.339371  -0.940423  -0.367282
C    -1.351604  -0.659946  1.097280
O    -0.693221  -1.400518  1.895371
H    -1.739529  -1.951953  -0.532521
H    -0.301895  -0.951879  -0.729258
H    -1.919626  -0.225735  -0.959845
N    -2.068980  0.385549  1.538105
C    -2.392290  0.819406  2.919627
C    -1.128269  1.193839  3.719264
O    -0.340597  0.292291  4.161923
H    -2.550038  0.908605  0.809846
H    -2.963780  1.742648  2.768235
C    -3.321077  -0.173523  3.660814
C    -4.073534  0.460835  4.846390
C    -5.169098  -0.472700  5.391814
N    -5.902112  0.156764  6.493389
C    -7.182503  -0.100441  6.838178
N    -7.792637  0.691759  7.725455
N    -7.849804  -1.118324  6.283009
H    -2.755148  -1.058166  3.986140
H    -4.047090  -0.526412  2.913697
H    -4.547377  1.400994  4.524408
H    -3.369450  0.714105  5.655738
H    -4.726499  -1.427988  5.720667
H    -5.889309  -0.692934  4.590890
H    -5.369417  0.719203  7.150186
H    -8.662757  0.415467  8.168727
H    -7.426787  1.605316  7.968448
H    -8.851897  -1.212876  6.414712
H    -7.370684  -1.914981  5.881889
N    -0.872556  2.466240  3.971229
C    -1.604282  3.670424  3.545062
H    -0.032395  2.623504  4.531244
H    -2.589919  3.725830  4.022536
H    -1.703587  3.708379  2.454252
H    -1.023111  4.541191  3.861448
Ca    0.597229  -1.530551  3.551933
