37
Energy: -39740.509639 eV PBE+vdW (tier 2 basis)
C    -0.401358  0.629403  -0.500848
C    -0.375460  0.769899  0.989369
O    0.568826  1.342559  1.572366
H    -0.491080  1.630016  -0.947102
H    -1.210422  -0.004695  -0.878403
H    0.564935  0.229724  -0.834271
N    -1.442331  0.263383  1.679967
C    -1.627240  0.145240  3.137083
C    -1.521109  1.484607  3.887802
O    -2.463278  1.791421  4.752885
H    -2.184423  -0.144616  1.119713
H    -2.679987  -0.142192  3.254450
C    -0.814204  -1.011298  3.802522
C    0.720322  -0.944929  3.768297
C    1.424760  -2.148095  4.416464
N    1.383219  -3.344904  3.562843
C    1.768931  -4.578773  3.954744
N    1.649298  -5.606635  3.106552
N    2.233894  -4.786274  5.191042
H    -1.165952  -1.930190  3.309660
H    -1.155148  -1.085849  4.848403
H    1.077361  -0.056186  4.307254
H    1.090923  -0.824823  2.740533
H    0.953104  -2.396677  5.379185
H    2.470860  -1.862936  4.613576
H    1.378133  -3.185089  2.559527
H    2.093271  -6.499617  3.292160
H    1.114037  -5.532881  2.249826
H    2.598977  -4.029491  5.755995
H    2.398980  -5.727046  5.533623
N    -0.514466  2.273991  3.669582
C    -0.300165  3.572856  4.297454
H    0.124093  1.928132  2.839103
H    0.671046  3.958269  3.973845
H    -0.290239  3.483042  5.392263
H    -1.071045  4.291751  3.982952
Ca    -3.868500  2.628206  5.919470
