37
Energy: -39740.9045548 eV PBE+vdW (tier 2 basis)
C    -0.584715  0.518514  -0.894179
C    -0.123520  0.654644  0.515105
O    1.166054  0.805048  0.730404
H    -0.307360  1.419288  -1.460974
H    -1.663456  0.368176  -0.983034
H    -0.071582  -0.331204  -1.366471
N    -0.924447  0.638644  1.546138
C    -2.393065  0.727621  1.610838
C    -2.586960  1.458878  2.981122
O    -1.633154  1.439044  3.774940
H    -0.580697  0.826435  2.526097
H    -2.748764  1.360353  0.786761
C    -3.135425  -0.631268  1.554996
C    -3.054643  -1.509658  2.814134
C    -3.924024  -2.766832  2.660729
N    -3.939609  -3.554634  3.897931
C    -4.879403  -4.457298  4.238136
N    -4.893409  -4.960051  5.478742
N    -5.810324  -4.837319  3.355470
H    -2.777679  -1.186514  0.674147
H    -4.189820  -0.393528  1.346774
H    -3.401907  -0.942937  3.690633
H    -2.011201  -1.800703  3.013944
H    -3.556845  -3.380583  1.820870
H    -4.959619  -2.470987  2.435351
H    -3.123688  -3.502401  4.499572
H    -4.383884  -4.522616  6.237397
H    -5.447868  -5.777018  5.710543
H    -6.608672  -5.390862  3.647637
H    -5.680288  -4.718898  2.358595
N    -3.776389  2.020834  3.205248
C    -4.118484  2.738275  4.437457
H    -4.460401  2.030252  2.453965
H    -4.212692  3.812320  4.236201
H    -3.323796  2.575239  5.169636
H    -5.069114  2.363253  4.832682
Ca    3.116817  1.255316  0.828719
