37
Energy: -39740.2190406 eV PBE+vdW (tier 2 basis)
C    0.041441  -0.435323  0.317042
C    -0.174248  -0.296695  1.780754
O    0.892542  -0.293837  2.549213
H    -0.879350  -0.505709  -0.260061
H    0.647029  -1.334186  0.132534
H    0.618398  0.426830  -0.049244
N    -1.343158  -0.185042  2.380669
C    -2.776030  -0.038805  1.963171
C    -3.676569  -1.214976  2.449176
O    -4.741040  -0.896028  2.984797
H    -1.258588  -0.123990  3.398070
H    -3.113864  0.785193  2.606706
C    -3.081463  0.383385  0.512840
C    -4.515030  0.955511  0.360845
C    -5.591802  -0.073941  -0.040499
N    -6.938755  0.490466  -0.035673
C    -7.826984  0.412556  0.974546
N    -9.083641  0.828545  0.767137
N    -7.472902  -0.069884  2.168629
H    -2.939172  -0.448123  -0.192678
H    -2.373583  1.175401  0.232294
H    -4.482585  1.735035  -0.412089
H    -4.816421  1.462506  1.288673
H    -5.590261  -0.954397  0.613274
H    -5.400073  -0.443414  -1.057260
H    -7.232350  1.001972  -0.861585
H    -9.741792  0.922430  1.531893
H    -9.438348  1.013620  -0.163709
H    -6.506714  -0.281521  2.423370
H    -8.182009  -0.273960  2.863251
N    -3.325991  -2.501271  2.243966
C    -2.201591  -3.070379  1.509561
H    -4.006300  -3.158797  2.623381
H    -2.451849  -4.103626  1.249579
H    -1.280969  -3.094405  2.110345
H    -2.022102  -2.538216  0.568432
Ca    2.730748  -0.197583  3.392346
