37
Energy: -39740.7315813 eV PBE+vdW (tier 2 basis)
C    -0.690615  -2.486771  0.004987
C    -0.225752  -1.253330  0.696759
O    1.060054  -1.127720  0.944183
H    -0.248901  -2.532429  -1.001377
H    -1.778106  -2.542777  -0.088124
H    -0.337075  -3.370288  0.554271
N    -1.019429  -0.285297  1.067144
C    -2.452823  -0.050721  0.811602
C    -2.486415  1.513524  0.792862
O    -1.650624  2.079678  1.515112
H    -0.654977  0.588621  1.519877
H    -2.734611  -0.495167  -0.150155
C    -3.319713  -0.620646  1.966952
C    -4.833718  -0.451735  1.750565
C    -5.726275  -1.131475  2.802438
N    -5.854047  -0.354978  4.042426
C    -6.914918  -0.392290  4.872460
N    -7.028163  0.526326  5.840750
N    -7.861052  -1.326138  4.729336
H    -2.986704  -0.136650  2.898502
H    -3.084950  -1.691931  2.065972
H    -5.109613  -0.898595  0.784284
H    -5.108712  0.610940  1.689316
H    -5.353607  -2.146023  3.021903
H    -6.733466  -1.231680  2.376007
H    -5.057367  0.188100  4.357642
H    -7.695109  0.414355  6.596604
H    -6.511164  1.396988  5.812145
H    -8.742495  -1.255178  5.226670
H    -7.694040  -2.185028  4.219935
N    -3.384522  2.170902  0.049246
C    -4.339838  1.683792  -0.943726
H    -3.313170  3.184215  0.148269
H    -5.371940  1.844520  -0.607162
H    -4.196293  0.618132  -1.141725
H    -4.193544  2.226272  -1.885247
Ca    3.054606  -1.012047  1.114536
