37
Energy: -39742.0811801 eV PBE+vdW (tier 2 basis)
C    -0.236898  0.698688  0.529569
C    -0.531261  0.211325  1.908506
O    -0.405859  -1.022351  2.189245
H    -0.376110  1.777083  0.401533
H    -0.886660  0.163559  -0.178410
H    0.796505  0.436199  0.262765
N    -0.926465  1.108105  2.828562
C    -1.380511  0.904025  4.225905
C    -0.270981  0.313659  5.125356
O    0.111510  -0.893052  4.991992
H    -0.951623  2.070358  2.501314
H    -1.578921  1.921849  4.588748
C    -2.686159  0.079128  4.337738
C    -3.949811  0.733023  3.737114
C    -4.721518  1.651591  4.700231
N    -5.975504  2.084037  4.074309
C    -6.779009  3.076850  4.511191
N    -7.794768  3.484003  3.744505
N    -6.543661  3.675768  5.685359
H    -2.849181  -0.150078  5.402105
H    -2.530312  -0.888421  3.843311
H    -4.621972  -0.084839  3.437229
H    -3.706427  1.279202  2.813084
H    -4.137742  2.549821  4.954618
H    -4.927248  1.102570  5.635159
H    -6.359952  1.485163  3.349372
H    -7.864149  3.227673  2.766058
H    -8.537859  4.066337  4.116961
H    -7.063432  4.505523  5.953510
H    -6.035698  3.207024  6.425367
N    0.232053  1.094137  6.064814
C    1.251209  0.702224  7.045591
H    -0.090139  2.058468  6.106767
H    1.023444  1.187213  8.000404
H    2.243295  1.028917  6.707255
H    1.240528  -0.382933  7.172089
Ca    0.361286  -2.446849  3.552777
