37
Energy: -39740.5128599 eV PBE+vdW (tier 2 basis)
C    -0.533936  0.983173  2.301752
C    0.205620  -0.079730  1.567106
O    1.487894  0.047099  1.348819
H    -1.150495  1.566263  1.597871
H    0.159004  1.668619  2.797177
H    -1.214850  0.558351  3.050989
N    -0.413929  -1.155212  1.112973
C    -1.877787  -1.419960  1.155981
C    -2.404087  -1.906874  2.530079
O    -3.591559  -1.686676  2.784484
H    0.156477  -1.827027  0.594871
H    -2.384831  -0.462482  0.978313
C    -2.233449  -2.398678  0.006057
C    -3.680645  -2.355154  -0.545847
C    -4.720373  -3.364536  -0.019769
N    -5.484384  -2.887472  1.130883
C    -6.763350  -3.192257  1.389015
N    -7.408964  -2.534661  2.364363
N    -7.416948  -4.125317  0.683137
H    -1.963700  -3.425897  0.298728
H    -1.576553  -2.132914  -0.836242
H    -3.591025  -2.565988  -1.619582
H    -4.091816  -1.336954  -0.484251
H    -4.233537  -4.328502  0.206878
H    -5.430799  -3.546975  -0.837236
H    -4.963638  -2.355420  1.838825
H    -8.300845  -2.857931  2.719797
H    -7.027568  -1.687767  2.766663
H    -8.421833  -4.231680  0.763432
H    -6.928019  -4.819008  0.132565
N    -1.560933  -2.548176  3.356948
C    -1.986005  -3.116296  4.640735
H    -0.624301  -2.766616  3.035611
H    -1.145001  -3.093801  5.340529
H    -2.325568  -4.152937  4.518296
H    -2.808774  -2.516100  5.039260
Ca    3.401637  0.689023  1.127876
