37
Energy: -39741.3861938 eV PBE+vdW (tier 2 basis)
C    1.328242  0.206208  2.120618
C    0.450104  0.618679  3.244603
O    0.925964  1.216025  4.262287
H    1.906697  1.054430  1.730263
H    0.803374  -0.308913  1.311381
H    2.072031  -0.491451  2.542732
N    -0.883411  0.335673  3.237067
C    -1.758705  0.735729  2.133485
C    -1.935196  2.285497  2.245950
O    -1.408771  2.903692  3.240023
H    -1.305798  0.485992  4.154138
H    -1.210826  0.564289  1.193744
C    -3.038998  -0.130595  2.055772
C    -4.005879  -0.128889  3.253032
C    -5.141956  -1.137197  2.994763
N    -6.089491  -1.195510  4.110785
C    -7.341917  -1.698911  4.037929
N    -8.165056  -1.559291  5.082256
N    -7.771089  -2.303788  2.925398
H    -2.679921  -1.154901  1.877085
H    -3.588201  0.153280  1.148631
H    -4.434251  0.871678  3.418399
H    -3.480764  -0.423511  4.176863
H    -4.704558  -2.132790  2.807789
H    -5.698507  -0.838578  2.094193
H    -5.721498  -1.058064  5.047121
H    -7.975485  -0.900666  5.828719
H    -9.027396  -2.090043  5.149054
H    -8.751182  -2.542294  2.810809
H    -7.128833  -2.708534  2.255042
N    -2.564075  2.973023  1.311756
C    -3.126309  2.529025  0.029617
H    -2.622415  3.976632  1.495260
H    -4.200638  2.327598  0.124266
H    -2.606783  1.641813  -0.344313
H    -2.988086  3.337387  -0.696176
Ca    0.197192  3.204899  4.669685
