37
Energy: -39741.5160655 eV PBE+vdW (tier 2 basis)
C    -1.063784  0.912527  0.084882
C    -0.580653  0.381625  1.392485
O    0.650302  0.109293  1.556559
H    -0.211087  1.311265  -0.474796
H    -1.820062  1.693782  0.212177
H    -1.507826  0.103960  -0.518987
N    -1.429178  0.172692  2.434870
C    -2.689886  -0.583513  2.328953
C    -2.340801  -1.983317  1.714355
O    -1.118184  -2.317149  1.550878
H    -0.924211  -0.015715  3.301442
H    -2.966874  -0.793808  3.374824
C    -3.888888  0.156570  1.693126
C    -4.231467  1.475398  2.411018
C    -5.541075  2.092106  1.890925
N    -5.865167  3.316165  2.628779
C    -6.707515  4.285300  2.210879
N    -6.782214  5.429260  2.898411
N    -7.439925  4.122150  1.103215
H    -4.762435  -0.510481  1.763664
H    -3.723821  0.322904  0.620221
H    -3.413130  2.200366  2.292917
H    -4.329365  1.281382  3.491787
H    -6.359998  1.358458  1.985976
H    -5.439998  2.350754  0.826408
H    -5.582553  3.361618  3.603357
H    -7.539777  6.087373  2.747808
H    -6.082686  5.687921  3.584859
H    -7.956702  4.900125  0.705764
H    -7.662423  3.202810  0.741948
N    -3.314560  -2.820857  1.426547
C    -3.125261  -4.193502  0.932232
H    -4.271483  -2.516719  1.586950
H    -2.607772  -4.799589  1.685506
H    -2.545908  -4.184068  0.002235
H    -4.109665  -4.626535  0.737803
Ca    1.029490  -2.016114  1.560593
