37
Energy: -39740.6803526 eV PBE+vdW (tier 2 basis)
C    -0.781996  -1.701368  0.585066
C    -0.264615  -0.439465  1.180998
O    1.039160  -0.275318  1.252989
H    -0.348672  -2.561355  1.114226
H    -0.460230  -1.771541  -0.464237
H    -1.871845  -1.775046  0.622820
N    -1.025326  0.518703  1.633249
C    -2.481971  0.741082  1.568629
C    -2.512398  2.305936  1.467902
O    -1.569124  2.900867  2.013705
H    -0.621180  1.422203  1.993613
H    -2.897434  0.254266  0.678909
C    -3.162635  0.236623  2.872971
C    -4.641887  0.638146  3.017015
C    -5.271690  0.354357  4.391337
N    -5.725464  -1.032110  4.562861
C    -6.713740  -1.419667  5.393086
N    -7.207730  -2.661560  5.298505
N    -7.213361  -0.573352  6.299275
H    -2.594215  0.651205  3.719572
H    -3.035770  -0.857149  2.910787
H    -5.261572  0.182629  2.230161
H    -4.723689  1.725198  2.882737
H    -6.156167  0.997369  4.494590
H    -4.564206  0.628723  5.191700
H    -5.210992  -1.773523  4.100588
H    -7.806242  -3.045253  6.021913
H    -7.086498  -3.219958  4.462151
H    -8.069939  -0.789808  6.798105
H    -6.708170  0.251386  6.599137
N    -3.508730  2.933537  0.832727
C    -4.623212  2.402243  0.051554
H    -3.417129  3.949924  0.858244
H    -5.581828  2.630907  0.534491
H    -4.540120  1.318565  -0.068517
H    -4.619489  2.857012  -0.946189
Ca    3.028206  -0.036538  1.186626
