37
Energy: -39739.8092201 eV PBE+vdW (tier 2 basis)
C    -0.137305  0.793078  0.333545
C    -0.075294  0.275228  1.744509
O    0.976952  0.116699  2.354903
H    0.786181  1.342993  0.126722
H    -0.997352  1.451440  0.155797
H    -0.179115  -0.046380  -0.377821
N    -1.267840  -0.039178  2.398692
C    -2.508477  -0.477995  1.794220
C    -3.609475  0.596555  1.772059
O    -4.375737  0.667713  0.710639
H    -1.078376  -0.424844  3.323211
H    -2.334943  -0.701363  0.730861
C    -3.024095  -1.775887  2.477602
C    -2.120923  -3.021533  2.261045
C    -1.195692  -3.466207  3.405863
N    -0.020298  -2.602275  3.554626
C    0.845075  -2.603427  4.600789
N    1.815079  -1.688168  4.601721
N    0.691030  -3.456790  5.617809
H    -4.025212  -1.996925  2.081328
H    -3.168694  -1.584030  3.552342
H    -1.532449  -2.914123  1.335294
H    -2.783969  -3.876846  2.076425
H    -0.888363  -4.503841  3.195778
H    -1.750266  -3.472139  4.356157
H    0.380039  -2.221412  2.700918
H    2.603067  -1.746592  5.237455
H    1.793127  -0.931627  3.913952
H    0.160588  -4.314088  5.516456
H    1.265005  -3.379036  6.451367
N    -3.828245  1.445484  2.748653
C    -3.164937  1.576966  4.058316
H    -4.573195  2.122085  2.577989
H    -3.064454  0.602429  4.543631
H    -3.800528  2.211216  4.683137
H    -2.182818  2.048961  3.942523
Ca    -5.592189  0.832969  -0.905248
