37
Energy: -39740.7355017 eV PBE+vdW (tier 2 basis)
C    -0.629877  -1.057751  0.084292
C    -0.454053  -0.138517  1.247360
O    0.746386  0.304151  1.528899
H    -1.671917  -1.361326  -0.059092
H    -0.026206  -1.965219  0.232519
H    -0.282187  -0.566487  -0.836029
N    -1.497632  0.199980  1.962888
C    -1.619854  1.025629  3.172655
C    -2.820815  0.381716  3.913930
O    -3.727760  -0.105473  3.212771
H    -2.412817  -0.227885  1.740682
H    -0.690254  0.948725  3.751421
C    -1.901459  2.517503  2.833888
C    -3.252352  2.838793  2.158835
C    -4.396535  3.138381  3.149642
N    -5.692286  3.312333  2.497198
C    -6.670266  2.390276  2.416392
N    -6.441265  1.111809  2.737342
N    -7.889037  2.768155  2.009522
H    -1.082018  2.861513  2.187235
H    -1.798050  3.086711  3.770501
H    -3.557900  2.030714  1.478764
H    -3.111763  3.724273  1.524063
H    -4.180145  4.066018  3.697653
H    -4.505723  2.355075  3.909412
H    -5.894912  4.225163  2.101756
H    -7.218048  0.467185  2.828104
H    -5.504400  0.728477  2.875157
H    -8.603279  2.087981  1.775757
H    -8.161551  3.743817  1.974533
N    -2.820466  0.437497  5.246560
C    -3.903957  -0.083168  6.085728
H    -2.024417  0.857354  5.717898
H    -4.466759  -0.829020  5.517696
H    -4.575956  0.725470  6.401790
H    -3.473324  -0.553503  6.975447
Ca    2.761308  0.481150  1.396775
