37
Energy: -39742.1436288 eV PBE+vdW (tier 2 basis)
C    2.374350  1.640980  2.227562
C    1.552926  0.420596  2.471783
O    2.063004  -0.586461  3.060357
H    2.788622  2.001494  3.179226
H    1.824926  2.454320  1.742560
H    3.232952  1.363019  1.597976
N    0.276965  0.419455  2.057520
C    -0.724708  -0.675168  2.018870
C    -1.076299  -1.201379  3.427587
O    -0.252843  -1.900556  4.101821
H    -0.026586  1.282140  1.611156
H    -1.625039  -0.179338  1.630556
C    -0.351680  -1.790438  1.010642
C    -1.559398  -2.628055  0.548896
C    -1.202895  -3.537741  -0.640395
N    -2.373580  -4.289719  -1.099941
C    -2.578774  -4.740526  -2.356373
N    -3.780659  -5.220868  -2.690943
N    -1.603717  -4.686179  -3.270673
H    0.434741  -2.435048  1.429208
H    0.093772  -1.281953  0.143037
H    -2.377544  -1.958832  0.240384
H    -1.941298  -3.241835  1.380765
H    -0.387547  -4.226668  -0.362599
H    -0.850706  -2.918797  -1.478034
H    -3.018945  -4.631060  -0.393928
H    -3.915552  -5.760449  -3.539802
H    -4.604373  -5.042387  -2.127830
H    -1.801900  -4.868210  -4.249472
H    -0.626711  -4.651376  -3.007249
N    -2.281315  -0.920605  3.891959
C    -2.814165  -1.338467  5.193258
H    -2.885256  -0.332837  3.320907
H    -2.676904  -0.536823  5.931058
H    -2.300069  -2.242681  5.528174
H    -3.884861  -1.539667  5.085934
Ca    1.835063  -2.056881  4.545045
