37
Energy: -39740.6564804 eV PBE+vdW (tier 2 basis)
C    0.045907  -0.233689  0.769515
C    0.073740  0.627640  1.983379
O    1.198978  0.709999  2.657992
H    0.818856  0.100593  0.062902
H    -0.920269  -0.231277  0.258962
H    0.290332  -1.268221  1.051119
N    -0.955880  1.307561  2.414199
C    -2.277285  1.539488  1.800757
C    -2.660450  2.919426  2.412442
O    -2.130850  3.227834  3.490671
H    -0.885740  1.944151  3.243365
H    -2.162925  1.608946  0.711593
C    -3.311563  0.430501  2.134109
C    -3.720057  0.282437  3.617780
C    -5.024325  0.969757  4.046417
N    -6.201446  0.241429  3.546633
C    -7.477667  0.660922  3.671784
N    -8.467525  -0.066563  3.141736
N    -7.754143  1.816756  4.287032
H    -2.894332  -0.519414  1.771860
H    -4.195767  0.613724  1.506594
H    -2.932353  0.666699  4.279644
H    -3.796242  -0.787509  3.863173
H    -5.067109  2.002305  3.669670
H    -5.045097  1.010269  5.147552
H    -6.078153  -0.750732  3.365825
H    -8.284793  -0.840003  2.513294
H    -9.439005  0.116335  3.368834
H    -8.697713  2.189583  4.292027
H    -7.096550  2.244609  4.927229
N    -3.561129  3.681913  1.775665
C    -4.106345  3.501575  0.427269
H    -3.726396  4.579705  2.228648
H    -4.878340  4.260034  0.269198
H    -4.579008  2.519660  0.307127
H    -3.338249  3.638009  -0.345949
Ca    3.045537  0.811847  3.440417
