37
Energy: -39740.4345035 eV PBE+vdW (tier 2 basis)
C    1.629333  0.877921  0.440648
C    0.973539  0.803792  1.784758
O    1.544379  1.200221  2.817381
H    1.853897  1.928848  0.213007
H    1.033543  0.452615  -0.374163
H    2.597909  0.362818  0.495232
N    -0.299080  0.291004  1.838548
C    -1.042843  -0.041575  3.061149
C    -1.399926  1.212519  3.886932
O    -2.638754  1.433103  4.256724
H    -0.751729  0.075960  0.956598
H    -1.997469  -0.462768  2.720848
C    -0.323323  -1.068690  3.989615
C    0.231958  -2.352500  3.346678
C    -0.803150  -3.411603  2.917723
N    -0.259082  -4.776017  2.902573
C    0.095061  -5.511050  1.832810
N    0.322640  -4.929885  0.644955
N    0.202483  -6.837875  1.951957
H    -1.028726  -1.331897  4.794122
H    0.520683  -0.563464  4.474936
H    0.882216  -2.806982  4.108011
H    0.899561  -2.100241  2.509390
H    -1.235464  -3.206547  1.928945
H    -1.643218  -3.425631  3.627915
H    -0.198472  -5.246910  3.800745
H    0.430856  -5.494581  -0.190901
H    0.624082  -3.966438  0.584925
H    -0.208310  -7.340071  2.731543
H    0.702392  -7.391904  1.264241
N    -0.438552  2.019930  4.226865
C    -0.592715  3.239008  5.009387
H    0.522570  1.740972  3.795593
H    0.392232  3.696698  5.141209
H    -0.997612  3.014799  6.007289
H    -1.233291  3.965268  4.486120
Ca    -4.328740  2.267255  4.964516
