37
Energy: -39741.4384174 eV PBE+vdW (tier 2 basis)
C    -1.093348  0.701177  -0.581986
C    -0.611820  0.421004  0.795334
O    0.555446  -0.040380  0.997898
H    -1.026434  -0.246618  -1.142120
H    -0.424982  1.400241  -1.103560
H    -2.126598  1.055333  -0.627672
N    -1.417719  0.621753  1.876131
C    -2.077586  1.904448  2.135485
C    -0.948816  2.941361  2.440791
O    0.256669  2.527524  2.583949
H    -1.029017  0.204291  2.724029
H    -2.579099  2.231210  1.211603
C    -3.137535  1.764843  3.254366
C    -4.344454  0.914900  2.805832
C    -5.616526  1.033331  3.664816
N    -5.593409  0.236624  4.896759
C    -6.688736  -0.274406  5.502231
N    -6.535855  -1.152198  6.500827
N    -7.915996  0.071477  5.103305
H    -3.481144  2.769796  3.534332
H    -2.651456  1.352870  4.154089
H    -4.066618  -0.143814  2.703194
H    -4.642297  1.246451  1.799204
H    -6.453168  0.661613  3.058397
H    -5.819622  2.093003  3.895340
H    -4.734847  0.199112  5.435466
H    -7.311719  -1.401128  7.105631
H    -5.668957  -1.657895  6.639008
H    -8.730852  -0.442106  5.423934
H    -8.093716  0.923668  4.585738
N    -1.211592  4.231321  2.518145
C    -2.471840  4.950060  2.298603
H    -0.404452  4.815862  2.746142
H    -2.248663  5.870482  1.747718
H    -2.930667  5.220921  3.258142
H    -3.168952  4.353130  1.704069
Ca    1.917668  1.224520  2.101818
