37
Energy: -39741.9536151 eV PBE+vdW (tier 2 basis)
C    -1.667338  1.529634  1.481100
C    -1.020705  0.632477  2.482265
O    -0.489907  -0.461668  2.110275
H    -2.467318  0.970451  0.973777
H    -0.936361  1.798815  0.705747
H    -2.085964  2.445257  1.911363
N    -1.017755  1.015348  3.770402
C    -0.555316  0.294218  4.981969
C    0.963656  0.013937  4.952318
O    1.459861  -0.850365  4.160168
H    -1.434301  1.926741  3.943244
H    -0.728581  1.014969  5.793344
C    -1.369719  -0.987992  5.290396
C    -2.866214  -0.742937  5.580201
C    -3.236147  -0.322137  7.019763
N    -3.351073  -1.427762  7.979052
C    -4.463879  -2.160121  8.213876
N    -4.425816  -3.135451  9.126349
N    -5.586575  -1.944221  7.519527
H    -0.887983  -1.496649  6.139907
H    -1.282057  -1.676552  4.439440
H    -3.420146  -1.658567  5.331791
H    -3.255277  0.022943  4.892566
H    -4.174076  0.251943  7.008079
H    -2.498149  0.371797  7.444466
H    -2.616429  -1.515187  8.672256
H    -3.569815  -3.393930  9.603134
H    -5.267829  -3.619454  9.420336
H    -6.413678  -2.509065  7.683441
H    -5.726025  -1.097335  6.983655
N    1.721679  0.677863  5.806758
C    3.173180  0.523476  5.959611
H    1.276570  1.380445  6.393357
H    3.427896  0.636081  7.018418
H    3.696126  1.298221  5.383532
H    3.475962  -0.466729  5.610854
Ca    1.210503  -1.711498  2.224264
