37
Energy: -39741.2435875 eV PBE+vdW (tier 2 basis)
C    0.444654  0.105017  0.883224
C    -0.202276  0.014620  2.224100
O    0.502173  -0.173987  3.265913
H    1.518626  0.271935  1.014379
H    0.017395  0.912809  0.279510
H    0.317077  -0.839117  0.328668
N    -1.548858  0.123908  2.374131
C    -2.533042  -0.626377  1.578101
C    -2.185584  -2.144663  1.737085
O    -1.282876  -2.509226  2.563144
H    -1.819668  0.234877  3.351812
H    -3.478683  -0.492104  2.127918
C    -2.779527  -0.074361  0.143241
C    -4.220249  -0.290270  -0.381270
C    -4.750424  0.785245  -1.349573
N    -4.245716  0.670178  -2.721661
C    -4.909760  1.099038  -3.820676
N    -4.445617  0.773808  -5.032317
N    -6.028206  1.820113  -3.706900
H    -2.035276  -0.473386  -0.559437
H    -2.598084  1.006960  0.223692
H    -4.917677  -0.271493  0.470202
H    -4.342081  -1.273627  -0.863725
H    -4.536342  1.786211  -0.937916
H    -5.841827  0.672424  -1.396630
H    -3.266232  0.445869  -2.861539
H    -4.791440  1.232722  -5.868934
H    -3.792813  0.010743  -5.167567
H    -6.624023  1.985366  -4.512344
H    -6.250562  2.341573  -2.867388
N    -2.874184  -3.034007  1.050881
C    -2.718377  -4.491645  1.171797
H    -3.602608  -2.693878  0.428285
H    -3.383888  -4.969820  0.448706
H    -2.990755  -4.820098  2.182097
H    -1.683963  -4.781302  0.955995
Ca    0.287926  -2.174072  4.037476
