37
Energy: -39740.6585327 eV PBE+vdW (tier 2 basis)
C    0.436287  0.427702  0.812801
C    0.033248  0.107627  2.205235
O    0.959984  0.138920  3.138179
H    -0.329066  0.151170  0.083771
H    1.347374  -0.134263  0.566663
H    0.680808  1.499754  0.749079
N    -1.191963  -0.191550  2.596838
C    -2.480499  -0.368399  1.856975
C    -2.379146  -1.612956  0.921313
O    -1.683214  -1.542815  -0.089830
H    -1.267850  -0.376218  3.597329
H    -3.202053  -0.556051  2.664107
C    -2.935451  0.879286  1.078700
C    -4.365119  0.716644  0.531932
C    -4.828581  1.972182  -0.229050
N    -6.228860  1.910722  -0.658839
C    -6.686371  1.770339  -1.916484
N    -7.949479  2.110111  -2.197836
N    -5.897676  1.296613  -2.889862
H    -2.245267  1.061447  0.244325
H    -2.886066  1.750205  1.749479
H    -5.064374  0.526126  1.361141
H    -4.419107  -0.159101  -0.132405
H    -4.202434  2.158417  -1.112074
H    -4.726950  2.861440  0.409935
H    -6.931595  2.103719  0.048636
H    -8.396999  1.814076  -3.058549
H    -8.490930  2.707523  -1.583203
H    -5.050954  0.782133  -2.687875
H    -6.173492  1.366671  -3.863017
N    -3.097205  -2.685367  1.306158
C    -3.150384  -3.930847  0.539531
H    -3.650892  -2.631581  2.154932
H    -2.825977  -4.771317  1.164407
H    -2.482710  -3.836099  -0.320928
H    -4.172658  -4.121154  0.190771
Ca    2.682571  0.213508  4.179368
