37
Energy: -39740.0848329 eV PBE+vdW (tier 2 basis)
C    -0.124572  0.247656  -0.226542
C    0.315952  -0.162788  1.148050
O    1.470431  -0.460507  1.427790
H    0.720497  0.731934  -0.728124
H    -0.987429  0.924348  -0.230043
H    -0.372035  -0.644777  -0.822344
N    -0.642479  -0.194875  2.185170
C    -2.027483  -0.618190  2.027894
C    -2.992730  0.523618  2.390620
O    -4.277970  0.387384  2.231225
H    -0.207220  -0.544181  3.042104
H    -2.226532  -0.838998  0.966304
C    -2.295206  -1.901427  2.857269
C    -1.521785  -3.153402  2.354987
C    -0.360994  -3.676526  3.215793
N    0.836914  -2.837563  3.118602
C    1.958866  -2.972326  3.864642
N    2.975161  -2.139872  3.621369
N    2.030827  -3.875625  4.846549
H    -3.371673  -2.117122  2.829379
H    -2.057222  -1.691082  3.912372
H    -1.168350  -3.001978  1.322379
H    -2.233864  -3.985688  2.287870
H    -0.138548  -4.703547  2.882471
H    -0.674688  -3.729786  4.269682
H    0.998669  -2.343277  2.241064
H    3.892274  -2.284624  4.028568
H    2.871555  -1.401737  2.928186
H    1.376986  -4.645915  4.911114
H    2.840354  -3.919618  5.456721
N    -2.477264  1.635274  2.843051
C    -3.184419  2.850064  3.246756
H    -1.449107  1.616580  2.867351
H    -2.488346  3.491866  3.794498
H    -4.022011  2.602433  3.909938
H    -3.540977  3.399174  2.364604
Ca    -6.282652  0.379121  1.929698
