37
Energy: -39742.1034805 eV PBE+vdW (tier 2 basis)
C    -1.232498  -0.893880  -0.375004
C    -0.816083  -0.869422  1.054805
O    0.408242  -0.740939  1.374480
H    -2.311972  -1.010808  -0.515574
H    -0.710759  -1.710110  -0.894260
H    -0.904477  0.040471  -0.853896
N    -1.754762  -0.979593  2.011257
C    -1.505207  -0.873488  3.459932
C    -0.719172  -2.118057  3.958705
O    0.556557  -2.021254  3.968991
H    -2.716723  -1.105591  1.704135
H    -0.778157  -0.058239  3.593903
C    -2.782983  -0.495272  4.237327
C    -3.171805  0.990422  4.104583
C    -4.441323  1.312522  4.912467
N    -4.800569  2.727752  4.789099
C    -5.554039  3.425894  5.665770
N    -6.178836  2.807669  6.674016
N    -5.648662  4.753146  5.535367
H    -2.605648  -0.729754  5.297635
H    -3.623218  -1.130857  3.921767
H    -3.340248  1.244881  3.045508
H    -2.348098  1.626588  4.461837
H    -4.264012  1.099700  5.976914
H    -5.274004  0.673322  4.572535
H    -4.617995  3.181719  3.899204
H    -6.611567  3.342603  7.420312
H    -6.405990  1.821633  6.636521
H    -6.360096  5.282450  6.028764
H    -5.003691  5.281645  4.959230
N    -1.279379  -3.249512  4.345679
C    -2.683710  -3.676509  4.362738
H    -0.604699  -3.944289  4.673446
H    -2.698022  -4.769997  4.319829
H    -3.222018  -3.297755  3.489270
H    -3.180876  -3.360174  5.287751
Ca    2.047502  -1.303917  2.611955
