37
Energy: -39740.3189536 eV PBE+vdW (tier 2 basis)
C    -0.345166  0.626106  -0.667593
C    0.106718  -0.093585  0.554870
O    1.371671  -0.424647  0.645989
H    -0.027800  1.679376  -0.609734
H    -1.427902  0.597996  -0.812597
H    0.142434  0.188441  -1.548456
N    -0.691459  -0.436902  1.551994
C    -2.130672  -0.126474  1.841087
C    -3.180406  -0.973953  1.065972
O    -4.345409  -0.902019  1.464215
H    -0.222228  -0.950080  2.299768
H    -2.246298  -0.472323  2.878225
C    -2.377769  1.408438  1.815671
C    -3.756782  1.972365  2.215280
C    -4.271906  1.738493  3.647371
N    -5.113637  0.542914  3.734310
C    -6.133834  0.375981  4.585408
N    -7.026634  -0.599682  4.359812
N    -6.277459  1.166805  5.657752
H    -2.177256  1.792837  0.807683
H    -1.613850  1.848828  2.475313
H    -4.527406  1.666415  1.496506
H    -3.654099  3.059208  2.088798
H    -4.877087  2.609773  3.935350
H    -3.432102  1.678932  4.361297
H    -4.989764  -0.138337  2.972991
H    -7.706689  -0.868281  5.061110
H    -7.086894  -1.055569  3.457763
H    -7.123546  1.145924  6.215398
H    -5.530102  1.765240  5.983914
N    -2.809942  -1.734206  0.022835
C    -3.776707  -2.567445  -0.705156
H    -1.828305  -1.878777  -0.173196
H    -3.311023  -2.915982  -1.631088
H    -4.663225  -1.972923  -0.946946
H    -4.082457  -3.431138  -0.101238
Ca    3.378789  -0.675664  0.466480
