37
Energy: -39740.5194454 eV PBE+vdW (tier 2 basis)
C    0.196633  -0.157440  -0.484990
C    0.144759  0.135286  0.972187
O    1.249821  0.359722  1.635415
H    1.219623  -0.363720  -0.809936
H    -0.186294  0.708772  -1.049343
H    -0.446316  -1.006685  -0.754330
N    -1.007329  0.198354  1.616580
C    -2.349710  -0.043667  1.034759
C    -2.813926  1.028530  -0.000804
O    -3.394624  0.621137  -1.000283
H    -0.964662  0.424841  2.612439
H    -2.279098  -0.963382  0.440772
C    -3.377080  -0.228907  2.175039
C    -4.852703  -0.264250  1.729400
C    -5.248282  -1.467172  0.852425
N    -6.601227  -1.344203  0.301820
C    -7.713635  -1.970296  0.723325
N    -8.784540  -2.019232  -0.077942
N    -7.764264  -2.553956  1.928150
H    -3.274715  0.609723  2.883261
H    -3.123116  -1.145722  2.729736
H    -5.097649  0.661041  1.188420
H    -5.468156  -0.247872  2.640530
H    -5.177479  -2.414132  1.405410
H    -4.577549  -1.550224  -0.012769
H    -6.694747  -0.777071  -0.535707
H    -9.699145  -2.274642  0.277954
H    -8.716427  -1.828438  -1.071048
H    -8.528938  -3.172650  2.174052
H    -7.113545  -2.315529  2.664247
N    -2.568945  2.325900  0.286021
C    -3.050227  3.420718  -0.562898
H    -2.207343  2.569070  1.202461
H    -2.348596  4.258967  -0.507223
H    -4.043861  3.762181  -0.244411
H    -3.114307  3.063424  -1.594687
Ca    3.167319  0.553721  2.253976
