37
Energy: -39740.4062368 eV PBE+vdW (tier 2 basis)
C    -1.186908  -1.937667  -0.698828
C    -0.784611  -1.525203  0.676316
O    0.329637  -1.980452  1.188607
H    -1.567698  -1.092344  -1.286042
H    -1.991213  -2.690064  -0.647350
H    -0.341157  -2.383249  -1.230273
N    -1.533696  -0.709295  1.399066
C    -2.881929  -0.202606  1.049083
C    -2.933903  1.197326  0.365625
O    -4.054477  1.647526  0.130955
H    -1.192368  -0.489417  2.337086
H    -3.278390  -0.884231  0.284871
C    -3.843080  -0.299896  2.255785
C    -3.706272  0.684242  3.432456
C    -4.128804  2.149901  3.192163
N    -5.428746  2.309949  2.542923
C    -6.559749  2.775921  3.097209
N    -6.723975  2.810645  4.426334
N    -7.545934  3.211163  2.302615
H    -3.779033  -1.326741  2.643974
H    -4.852326  -0.218821  1.830126
H    -2.678944  0.708863  3.834605
H    -4.316145  0.266112  4.246693
H    -3.394706  2.672487  2.564287
H    -4.132248  2.687726  4.148865
H    -5.406196  2.192986  1.527462
H    -7.497273  3.315986  4.843908
H    -6.125197  2.291781  5.054303
H    -7.384630  3.417760  1.323978
H    -8.480775  3.373999  2.659496
N    -1.781777  1.803079  0.026459
C    -1.740370  3.092512  -0.671918
H    -0.901257  1.390580  0.309737
H    -1.640949  3.922965  0.039058
H    -2.667012  3.215349  -1.239388
H    -0.888928  3.104454  -1.359639
Ca    2.022705  -3.035567  1.571537
