37
Energy: -39741.688073 eV PBE+vdW (tier 2 basis)
C    -0.281979  -2.936008  2.528838
C    -0.205895  -1.540595  2.019648
O    0.874639  -1.088064  1.524192
H    0.550148  -3.066643  3.238916
H    -0.101492  -3.662312  1.723165
H    -1.219865  -3.170749  3.039129
N    -1.279603  -0.707460  2.092376
C    -2.595314  -1.089544  1.577500
C    -2.471040  -1.135910  0.012057
O    -1.342457  -0.910145  -0.542443
H    -1.033658  0.263545  1.887716
H    -2.806505  -2.119830  1.904407
C    -3.705296  -0.150675  2.097252
C    -3.938830  -0.254648  3.615465
C    -5.095091  0.648247  4.078093
N    -5.329979  0.497043  5.516757
C    -5.977308  1.382973  6.303280
N    -5.970553  1.209418  7.628951
N    -6.596460  2.443008  5.771623
H    -4.641663  -0.390466  1.571674
H    -3.461494  0.885796  1.811924
H    -3.024592  0.016306  4.163018
H    -4.171499  -1.301135  3.872663
H    -6.009748  0.401514  3.512132
H    -4.848355  1.702016  3.881370
H    -5.154021  -0.416023  5.925282
H    -6.607834  1.719630  8.231519
H    -5.321578  0.576566  8.082395
H    -6.949673  3.187189  6.364521
H    -6.898125  2.454958  4.805225
N    -3.533138  -1.441212  -0.702993
C    -3.560246  -1.556150  -2.169321
H    -4.400257  -1.643033  -0.210586
H    -4.602017  -1.647707  -2.487296
H    -3.007598  -2.447464  -2.491490
H    -3.120795  -0.662084  -2.624035
Ca    0.810698  -0.660569  -0.589376
