37
Energy: -39742.1273049 eV PBE+vdW (tier 2 basis)
C    -1.574919  2.187065  0.543575
C    -1.819181  0.916364  1.280643
O    -2.590490  0.024548  0.801977
H    -0.926088  2.887415  1.079479
H    -2.533322  2.675799  0.321252
H    -1.115249  1.943492  -0.426399
N    -1.203250  0.716882  2.457769
C    -1.204855  -0.538793  3.235002
C    -2.586086  -0.730663  3.911542
O    -3.526454  -1.251670  3.229331
H    -0.609238  1.471490  2.795538
H    -1.138408  -1.363750  2.508587
C    0.051393  -0.592870  4.131136
C    0.278525  -1.961707  4.804697
C    1.728193  -2.273868  5.210352
N    2.202825  -1.488737  6.358875
C    3.506140  -1.393277  6.721613
N    4.457948  -2.018751  6.023721
N    3.838372  -0.631162  7.768452
H    0.042314  0.224101  4.872376
H    0.902441  -0.375591  3.467118
H    0.001397  -2.760043  4.099559
H    -0.386929  -2.098023  5.671552
H    2.396051  -2.069060  4.360912
H    1.789005  -3.351261  5.435015
H    1.538354  -1.344597  7.114441
H    5.440035  -1.832536  6.202091
H    4.252829  -2.814478  5.431565
H    3.186114  0.024365  8.182346
H    4.763869  -0.676205  8.182528
N    -2.769086  -0.337953  5.157381
C    -4.032325  -0.422929  5.901087
H    -1.982131  0.097085  5.632412
H    -4.647009  -1.224501  5.484362
H    -4.572912  0.530603  5.838551
H    -3.810357  -0.638551  6.950932
Ca    -4.169516  -1.334233  1.176628
