37
Energy: -39740.1235384 eV PBE+vdW (tier 2 basis)
C    1.036438  0.073678  0.333931
C    0.583292  -0.074513  1.754769
O    1.300385  0.191831  2.729086
H    0.319488  -0.302175  -0.404214
H    1.991493  -0.452890  0.209476
H    1.231725  1.135380  0.127962
N    -0.708807  -0.525908  1.943562
C    -1.261022  -0.667301  3.281948
C    -1.786664  -2.091083  3.502073
O    -1.265658  -2.807708  4.466607
H    -1.303393  -0.590533  1.123982
H    -0.381637  -0.584637  3.936356
C    -2.304918  0.406658  3.707479
C    -1.914919  1.881869  3.472453
C    -1.005379  2.588688  4.494247
N    0.425178  2.397934  4.252875
C    1.376857  3.330666  4.417073
N    2.592750  3.106954  3.896447
N    1.136483  4.469846  5.077445
H    -2.540582  0.247640  4.771907
H    -3.246952  0.234043  3.170196
H    -2.863191  2.436765  3.485270
H    -1.515222  2.024351  2.457542
H    -1.269243  2.277905  5.519103
H    -1.221433  3.663517  4.421094
H    0.734971  1.528263  3.800030
H    2.753446  2.317073  3.281429
H    3.387866  3.688578  4.132904
H    0.308625  4.596261  5.644981
H    1.812907  5.225065  5.084120
N    -2.737550  -2.642490  2.782202
C    -3.493686  -2.126054  1.632441
H    -2.974532  -3.603179  3.037163
H    -3.421164  -1.039757  1.560017
H    -4.547979  -2.394995  1.765710
H    -3.124028  -2.597020  0.711731
Ca    -0.397016  -3.987588  5.865334
