37
Energy: -39740.2125802 eV PBE+vdW (tier 2 basis)
C    -0.017921  1.656276  -0.030300
C    -0.068934  1.214815  1.388959
O    0.980204  1.373653  2.154394
H    -0.426126  2.678275  -0.104360
H    -0.630284  1.028767  -0.688449
H    1.012704  1.672938  -0.397031
N    -1.160199  0.690839  1.916000
C    -2.442334  0.395219  1.226326
C    -3.233761  1.658678  0.780663
O    -3.622154  1.672005  -0.393211
H    -1.117742  0.454706  2.909392
H    -2.177863  -0.060297  0.265356
C    -3.247966  -0.643782  2.054530
C    -4.789729  -0.582599  2.048684
C    -5.576020  -0.648711  0.730187
N    -5.221002  -1.772183  -0.148752
C    -5.084068  -1.681678  -1.490501
N    -5.327346  -2.761472  -2.245203
N    -4.665321  -0.548559  -2.062302
H    -2.955403  -0.557252  3.113480
H    -2.913947  -1.640573  1.736055
H    -5.136229  0.328518  2.559030
H    -5.116655  -1.409221  2.696900
H    -5.471861  0.275427  0.156960
H    -6.642902  -0.729073  0.987413
H    -5.443283  -2.700703  0.201471
H    -5.060156  -2.792089  -3.222916
H    -5.889056  -3.533187  -1.903474
H    -4.786275  -0.407679  -3.058885
H    -4.310848  0.240991  -1.513676
N    -3.487530  2.660057  1.642655
C    -3.196691  2.753945  3.069735
H    -4.013629  3.427356  1.224961
H    -3.913464  3.445366  3.524417
H    -2.187700  3.146466  3.261946
H    -3.322506  1.788221  3.573379
Ca    2.818404  1.696695  2.949050
