37
Energy: -39742.1412208 eV PBE+vdW (tier 2 basis)
C    -1.238507  0.601598  -0.512242
C    -1.656805  -0.046865  0.761752
O    -2.632335  -0.863594  0.785518
H    -0.411425  1.309158  -0.394010
H    -2.096753  1.118043  -0.963489
H    -0.938833  -0.185281  -1.220970
N    -0.980296  0.235250  1.887264
C    -1.150385  -0.422211  3.199518
C    -2.471152  0.062476  3.853622
O    -3.560150  -0.497718  3.502917
H    -0.225532  0.913487  1.805341
H    -1.312908  -1.493782  3.004752
C    0.145751  -0.260834  4.022165
C    0.210663  -1.131978  5.290199
C    1.433846  -0.867263  6.192235
N    2.726414  -1.335718  5.674297
C    3.490108  -2.310137  6.220835
N    2.943732  -3.275210  6.967316
N    4.807406  -2.313948  5.995365
H    0.305090  0.801691  4.279716
H    0.974581  -0.529453  3.348763
H    0.181063  -2.195739  5.009187
H    -0.675008  -0.953401  5.919392
H    1.269374  -1.338612  7.169062
H    1.530196  0.209779  6.396832
H    3.216057  -0.720258  5.032528
H    3.522792  -3.891971  7.527854
H    1.950329  -3.465551  6.959417
H    5.302731  -1.480764  5.697077
H    5.375724  -3.129126  6.202880
N    -2.450571  1.045505  4.732138
C    -3.626776  1.624240  5.393998
H    -1.549336  1.463167  4.951709
H    -3.959633  2.520920  4.854930
H    -3.352972  1.904903  6.415931
H    -4.432304  0.886375  5.418170
Ca    -4.421175  -1.426178  1.767030
