37
Energy: -39742.139537 eV PBE+vdW (tier 2 basis)
C    -1.219081  1.063565  0.954127
C    -0.583793  0.617456  2.226306
O    0.586070  1.006838  2.537371
H    -1.283167  2.161878  0.962251
H    -2.218308  0.646450  0.792096
H    -0.574324  0.795527  0.105827
N    -1.271747  -0.196515  3.044927
C    -0.855792  -0.635234  4.390643
C    0.257100  -1.711366  4.278208
O    1.443660  -1.322201  4.024644
H    -2.183603  -0.506550  2.716961
H    -0.353029  0.223688  4.862700
C    -2.076647  -1.008422  5.257106
C    -2.957485  0.201341  5.637075
C    -3.933624  -0.043653  6.806439
N    -5.138823  -0.823639  6.491946
C    -6.412332  -0.371419  6.568232
N    -7.407576  -1.244212  6.754724
N    -6.690469  0.929616  6.439337
H    -1.685927  -1.459942  6.182052
H    -2.681486  -1.782319  4.752720
H    -3.513169  0.576656  4.764915
H    -2.299404  1.022308  5.961898
H    -4.255196  0.923763  7.211141
H    -3.413111  -0.549091  7.633871
H    -5.046660  -1.834518  6.494435
H    -8.376359  -0.978109  6.609181
H    -7.245357  -2.167604  7.141157
H    -7.606483  1.293760  6.680581
H    -6.023109  1.589380  6.061841
N    -0.033781  -2.986050  4.443905
C    0.918424  -4.101003  4.367340
H    -1.002097  -3.227738  4.640407
H    1.937115  -3.716799  4.451323
H    0.797181  -4.630294  3.413423
H    0.716672  -4.795057  5.190257
Ca    2.499717  0.334508  3.170632
