37
Energy: -39740.3849835 eV PBE+vdW (tier 2 basis)
C    0.186631  1.261329  0.323642
C    0.028922  0.574536  1.632282
O    1.040035  0.563785  2.459589
H    0.158765  2.349817  0.485127
H    -0.597343  1.002944  -0.393407
H    1.161180  1.003429  -0.110268
N    -1.076922  -0.051672  1.982545
C    -2.422092  0.164540  1.399985
C    -2.661616  1.714394  1.426763
O    -2.087664  2.373778  2.292726
H    -1.070423  -0.454509  2.920542
H    -2.426134  -0.241147  0.379328
C    -3.425052  -0.596964  2.305181
C    -4.921935  -0.448471  1.972805
C    -5.512419  -1.377889  0.901664
N    -5.818687  -2.703995  1.460497
C    -6.314202  -3.743748  0.757319
N    -6.532455  -4.912107  1.371209
N    -6.549704  -3.625462  -0.554552
H    -3.277795  -0.212685  3.326731
H    -3.140608  -1.661265  2.315905
H    -5.144080  0.586906  1.687622
H    -5.490873  -0.591153  2.904198
H    -4.821400  -1.508730  0.054639
H    -6.434565  -0.912827  0.516276
H    -5.951074  -2.746762  2.466978
H    -7.068037  -5.650618  0.927843
H    -6.207783  -5.088987  2.314413
H    -6.661601  -2.719560  -0.992167
H    -6.824223  -4.430560  -1.107639
N    -3.481368  2.263985  0.505211
C    -4.142582  1.682797  -0.658235
H    -3.617105  3.264638  0.650668
H    -3.997033  2.340141  -1.523613
H    -5.223705  1.571334  -0.495564
H    -3.717298  0.705857  -0.908827
Ca    2.638130  1.098962  3.566060
