37
Energy: -39742.2494739 eV PBE+vdW (tier 2 basis)
C    -2.507838  2.635428  4.126936
C    -2.204023  1.376467  3.389211
O    -2.328508  1.320439  2.124669
H    -2.382670  2.550560  5.211326
H    -3.535868  2.954098  3.906311
H    -1.847102  3.429649  3.748576
N    -1.787364  0.303961  4.082587
C    -1.325611  -0.981043  3.522279
C    -2.541667  -1.797097  3.006118
O    -3.052636  -1.470591  1.884923
H    -1.759273  0.401638  5.095183
H    -0.746527  -0.746334  2.615350
C    -0.410469  -1.713500  4.523430
C    0.954480  -1.036499  4.764905
C    1.792631  -1.818518  5.796319
N    3.055709  -1.152684  6.132567
C    4.294642  -1.691416  6.097429
N    4.583642  -2.712851  5.282511
N    5.248337  -1.184501  6.884043
H    -0.240025  -2.727975  4.132506
H    -0.934195  -1.833281  5.488693
H    0.814830  -0.006399  5.127987
H    1.508685  -0.959140  3.817578
H    2.016685  -2.830055  5.434930
H    1.218706  -1.948233  6.727619
H    2.979620  -0.287888  6.660892
H    5.454818  -3.223747  5.380430
H    4.021757  -2.923220  4.468264
H    5.028998  -0.622095  7.699055
H    6.229818  -1.386123  6.721055
N    -3.021538  -2.793505  3.722447
C    -4.164337  -3.640347  3.358696
H    -2.569442  -2.999156  4.610580
H    -4.365900  -3.542604  2.289916
H    -5.049274  -3.339627  3.934388
H    -3.921037  -4.681580  3.595597
Ca    -3.212051  0.196769  0.553694
