37
Energy: -39739.9581962 eV PBE+vdW (tier 2 basis)
C    0.597738  -1.089791  -0.201789
C    0.059165  -1.275657  1.186471
O    0.299635  -2.255084  1.895413
H    0.320388  -0.137865  -0.667766
H    0.240350  -1.916412  -0.831176
H    1.692883  -1.165732  -0.176366
N    -0.734596  -0.254256  1.684117
C    -1.478663  -0.459037  2.926335
C    -2.520138  0.625331  3.162773
O    -3.695296  0.227620  3.589967
H    -1.111763  0.386376  0.991677
H    -2.072760  -1.383249  2.828891
C    -0.617847  -0.672844  4.231764
C    0.672257  0.147793  4.426234
C    1.996435  -0.535311  4.042796
N    2.320192  -1.687438  4.896430
C    2.829432  -2.871135  4.479595
N    2.551144  -3.353438  3.268326
N    3.599364  -3.572742  5.322614
H    -0.382170  -1.742699  4.259973
H    -1.292851  -0.492593  5.082249
H    0.733273  0.439061  5.485107
H    0.642695  1.097588  3.877978
H    2.804341  0.206050  4.137146
H    1.995127  -0.870524  3.003166
H    2.496249  -1.471043  5.874129
H    3.061637  -4.154388  2.913903
H    1.767684  -3.003811  2.705000
H    4.062589  -3.136359  6.111583
H    3.825413  -4.545045  5.143372
N    -2.344106  1.919058  3.011501
C    -1.172340  2.708990  2.602821
H    -3.164502  2.485828  3.237234
H    -1.460743  3.350454  1.760685
H    -0.346186  2.059591  2.313070
H    -0.869375  3.347151  3.442468
Ca    -5.511698  -0.491686  4.125752
