37
Energy: -39741.9306653 eV PBE+vdW (tier 2 basis)
C    0.800278  1.193447  1.418609
C    0.371242  -0.149589  1.903459
O    1.238100  -1.041772  2.167132
H    1.358551  1.064271  0.479278
H    1.501216  1.635615  2.140286
H    -0.028403  1.888538  1.249037
N    -0.943520  -0.383840  2.051561
C    -1.652842  -1.645124  2.381254
C    -1.253205  -2.157922  3.783047
O    -0.148133  -2.768068  3.961661
H    -1.547415  0.400892  1.818647
H    -2.706511  -1.345918  2.429978
C    -1.503621  -2.724597  1.283229
C    -2.562412  -3.852879  1.310427
C    -3.793224  -3.565869  0.431290
N    -4.707653  -4.710907  0.424760
C    -5.515965  -5.078755  -0.592665
N    -6.095975  -6.282702  -0.565249
N    -5.722208  -4.261936  -1.631942
H    -0.504210  -3.172588  1.348888
H    -1.531443  -2.205609  0.314414
H    -2.879344  -4.064228  2.345484
H    -2.093178  -4.776065  0.945129
H    -3.461718  -3.394130  -0.602813
H    -4.320619  -2.657218  0.769746
H    -4.808572  -5.237886  1.286886
H    -6.868302  -6.510382  -1.183158
H    -5.767922  -7.022156  0.045798
H    -6.192046  -4.596599  -2.467283
H    -5.593476  -3.260486  -1.557680
N    -2.073222  -1.974633  4.804327
C    -3.364834  -1.271893  4.848318
H    -1.738985  -2.362964  5.688472
H    -3.691044  -1.240101  5.891740
H    -4.128469  -1.806278  4.270130
H    -3.267224  -0.239593  4.493240
Ca    1.916304  -2.602075  3.410564
