37
Energy: -39740.7683684 eV PBE+vdW (tier 2 basis)
C    0.090576  1.119368  4.122143
C    -0.263765  -0.234114  3.615080
O    0.656302  -1.173698  3.657221
H    -0.744810  1.822617  4.076140
H    0.926217  1.523976  3.533201
H    0.434183  1.044082  5.163325
N    -1.433649  -0.548795  3.132601
C    -2.691236  0.204997  2.979958
C    -3.719018  -0.976990  2.935439
O    -3.294935  -2.074889  2.551085
H    -1.656601  -1.528775  2.812698
H    -2.855658  0.852344  3.852248
C    -2.653953  0.998676  1.643549
C    -3.947207  1.669655  1.146648
C    -4.345850  2.981580  1.838176
N    -5.463470  3.587810  1.104048
C    -6.222302  4.621937  1.513185
N    -7.319284  4.949230  0.822082
N    -5.904501  5.300431  2.623920
H    -2.341869  0.285658  0.867216
H    -1.849402  1.747341  1.713860
H    -4.787467  0.961235  1.176119
H    -3.774625  1.891664  0.081955
H    -3.481559  3.667780  1.853146
H    -4.664488  2.814935  2.879412
H    -5.599751  3.279889  0.145524
H    -7.709284  4.335652  0.115692
H    -7.793251  5.833880  0.969743
H    -4.959090  5.305754  2.985245
H    -6.536046  5.999594  3.000361
N    -4.982543  -0.717071  3.287480
C    -6.044132  -1.729608  3.278134
H    -5.196469  0.187264  3.695049
H    -6.960182  -1.296745  2.862392
H    -6.243016  -2.088345  4.295758
H    -5.721391  -2.568922  2.656866
Ca    2.091396  -2.565024  3.806894
