37
Energy: -39740.2726495 eV PBE+vdW (tier 2 basis)
C    -0.239862  -0.343970  -0.824157
C    -0.082104  0.223616  0.552350
O    0.937154  0.220269  1.199785
H    0.647886  -0.108081  -1.423707
H    -1.146319  -0.021063  -1.351822
H    -0.275545  -1.442978  -0.742620
N    -1.315069  0.814051  1.120219
C    -1.313428  0.990011  2.620677
C    -2.722464  1.459789  2.968253
O    -3.238622  2.333350  2.168662
H    -2.072028  0.163857  0.864076
H    -1.071634  0.025251  3.084380
C    -0.300828  2.083723  3.088522
C    0.355550  1.813405  4.456740
C    1.364794  0.651816  4.525083
N    2.606421  0.858285  3.774757
C    3.824140  1.088755  4.311340
N    3.951209  1.588699  5.545045
N    4.918500  0.821671  3.590055
H    -0.821087  3.053206  3.151882
H    0.479523  2.188060  2.326037
H    -0.418286  1.627728  5.217308
H    0.850809  2.743895  4.769388
H    0.923599  -0.286486  4.158904
H    1.621056  0.462821  5.575662
H    2.585547  0.600584  2.791713
H    3.186079  2.044221  6.025298
H    4.850254  1.593668  6.015890
H    4.893734  0.186721  2.800354
H    5.832187  1.161264  3.872789
N    -3.394569  1.069281  4.025816
C    -3.060997  0.079300  5.055472
H    -4.302777  1.531184  4.137277
H    -3.877081  -0.650571  5.119531
H    -2.963420  0.583378  6.025103
H    -2.130960  -0.440905  4.815732
Ca    -2.513063  2.939661  0.308332
