37
Energy: -39741.8654357 eV PBE+vdW (tier 2 basis)
C    -0.241097  -2.578632  0.675192
C    -0.854394  -1.448977  1.435561
O    -1.471920  -0.525896  0.814551
H    -1.020760  -3.098948  0.101081
H    0.281037  -3.306197  1.305125
H    0.463732  -2.166153  -0.061060
N    -0.733281  -1.453431  2.772958
C    -1.100489  -0.448001  3.796412
C    -2.606089  -0.136177  3.865203
O    -3.249518  0.308555  2.857112
H    -0.240896  -2.262299  3.144297
H    -0.849112  -0.949191  4.738916
C    -0.249169  0.852013  3.752549
C    1.223611  0.587280  4.135356
C    2.028658  1.795295  4.652776
N    2.625971  2.625555  3.600853
C    3.754021  3.355674  3.748767
N    4.304272  3.526945  4.953892
N    4.331719  3.896864  2.669292
H    -0.696364  1.548858  4.479028
H    -0.344166  1.325899  2.764699
H    1.770308  0.108343  3.310027
H    1.235441  -0.137930  4.963574
H    2.857855  1.401847  5.255825
H    1.398004  2.409196  5.317954
H    2.097238  2.793027  2.751985
H    5.239997  3.909303  5.048789
H    3.774857  3.410950  5.809538
H    4.145129  3.552044  1.735192
H    5.054547  4.603526  2.759139
N    -3.234155  -0.282301  5.019129
C    -2.729405  -0.778463  6.309131
H    -4.215588  0.001947  4.998653
H    -3.577863  -0.838080  6.996666
H    -1.990702  -0.089934  6.737196
H    -2.306231  -1.784935  6.208123
Ca    -3.341933  0.467693  0.745901
