37
Energy: -39740.2954473 eV PBE+vdW (tier 2 basis)
C    -1.504072  0.873871  -0.261499
C    -1.655694  0.389098  1.153558
O    -1.209827  0.998578  2.117258
H    -1.634044  1.961410  -0.284173
H    -2.194674  0.408860  -0.974482
H    -0.474462  0.665708  -0.590094
N    -2.366215  -0.818651  1.277832
C    -2.377590  -1.753236  2.408327
C    -3.742431  -2.448040  2.462922
O    -3.839183  -3.645276  2.966617
H    -2.472610  -1.282185  0.376680
H    -1.644118  -2.558888  2.227653
C    -2.032240  -1.157217  3.805289
C    -2.977267  -0.071042  4.353143
C    -2.338388  0.810892  5.437895
N    -1.335421  1.700794  4.852972
C    -0.717637  2.704597  5.492102
N    0.079007  3.529577  4.799442
N    -0.887971  2.894095  6.806678
H    -1.004645  -0.785503  3.727891
H    -1.992297  -2.003890  4.507968
H    -3.871177  -0.530503  4.798967
H    -3.332641  0.586871  3.547608
H    -1.881070  0.175599  6.216143
H    -3.132998  1.405968  5.914269
H    -1.157605  1.584807  3.850569
H    0.626468  4.249710  5.255614
H    0.158367  3.459696  3.792368
H    -1.413225  2.246407  7.378051
H    -0.471824  3.686052  7.282944
N    -4.792991  -1.808893  2.017014
C    -6.186468  -2.257231  2.014160
H    -4.572118  -0.895942  1.604603
H    -6.833599  -1.376745  1.957714
H    -6.414049  -2.801799  2.936630
H    -6.383845  -2.889922  1.138208
Ca    -3.919906  -5.597501  3.502982
