37
Energy: -39739.6375423 eV PBE+vdW (tier 2 basis)
C    -0.886371  0.861285  3.126955
C    -0.367424  -0.407607  2.519672
O    0.816902  -0.601026  2.258453
H    -1.804949  0.724583  3.708731
H    -1.061917  1.610906  2.339863
H    -0.107137  1.271523  3.779520
N    -1.269941  -1.454667  2.252572
C    -2.532344  -1.218875  1.574742
C    -3.661557  -2.168625  1.985482
O    -4.886648  -1.718084  1.846302
H    -0.737385  -2.238311  1.875377
H    -2.903152  -0.241236  1.916063
C    -2.351315  -1.107373  0.020996
C    -1.496256  -2.208614  -0.659117
C    -0.293386  -1.703913  -1.472571
N    0.746554  -1.112312  -0.628833
C    1.840019  -0.461396  -1.072988
N    2.655301  0.102448  -0.174754
N    2.091084  -0.349416  -2.382419
H    -3.335616  -1.042188  -0.463418
H    -1.879979  -0.126081  -0.132852
H    -2.121347  -2.781136  -1.355711
H    -1.130423  -2.955769  0.063076
H    -0.634720  -0.954213  -2.204569
H    0.109726  -2.560444  -2.037311
H    0.738312  -1.270692  0.382023
H    3.569406  0.453965  -0.435721
H    2.422146  0.083362  0.814824
H    1.614445  -0.919941  -3.069023
H    2.878418  0.195064  -2.717544
N    -3.516161  -3.378890  2.472726
C    -2.311736  -4.185849  2.755819
H    -4.393939  -3.844920  2.706136
H    -2.653750  -5.167998  3.093684
H    -1.715412  -3.720046  3.546771
H    -1.716970  -4.327763  1.847569
Ca    -6.793709  -1.026487  1.787591
