37
Energy: -39740.4544898 eV PBE+vdW (tier 2 basis)
C    -0.307509  -0.857884  -0.089620
C    -0.078350  -0.491875  1.330642
O    1.053271  -0.838544  1.895180
H    -0.288299  -1.955009  -0.179335
H    0.516511  -0.467463  -0.703847
H    -1.267304  -0.506776  -0.481585
N    -0.956918  0.157873  2.072329
C    -2.279133  0.756317  1.703186
C    -3.273057  -0.314238  1.153628
O    -3.473674  -0.434736  -0.059614
H    -0.659542  0.329991  3.033387
H    -2.675738  1.090208  2.671792
C    -2.073809  2.004485  0.803334
C    -3.266086  2.519173  -0.027539
C    -4.604893  2.691913  0.707926
N    -5.682080  3.107216  -0.191643
C    -6.448503  2.284046  -0.928379
N    -7.520127  2.776548  -1.561508
N    -6.166814  0.975620  -1.012855
H    -1.266375  1.799618  0.088092
H    -1.701396  2.805098  1.459088
H    -3.406564  1.856648  -0.889139
H    -2.965693  3.494433  -0.436686
H    -4.532137  3.457979  1.491193
H    -4.930689  1.766985  1.207197
H    -5.842910  4.103506  -0.299988
H    -8.012564  2.240121  -2.266549
H    -7.887639  3.697479  -1.350775
H    -5.253481  0.590677  -0.777646
H    -6.819036  0.348995  -1.469986
N    -3.886795  -1.051615  2.098560
C    -4.861443  -2.099221  1.790028
H    -3.736327  -0.829133  3.077744
H    -4.773504  -2.903138  2.527852
H    -4.657621  -2.493238  0.790250
H    -5.885603  -1.703785  1.820639
Ca    2.902762  -1.507584  2.368760
