37
Energy: -39741.5085753 eV PBE+vdW (tier 2 basis)
C    -0.543908  -1.160074  0.206922
C    0.327378  -0.518847  1.225036
O    1.594513  -0.561536  1.121844
H    -0.296827  -0.822039  -0.808181
H    -1.614279  -1.048880  0.401607
H    -0.305929  -2.237839  0.228667
N    -0.208707  0.095027  2.319029
C    -1.202449  1.162926  2.176685
C    -0.400190  2.471062  1.867220
O    0.811747  2.386037  1.469869
H    0.497127  0.284339  3.032238
H    -1.755707  0.962616  1.244733
C    -2.257497  1.195397  3.302762
C    -1.774730  1.358105  4.754353
C    -2.968949  1.241016  5.720295
N    -2.550373  1.348681  7.120201
C    -3.370163  1.640130  8.154590
N    -2.844739  1.858409  9.364428
N    -4.690819  1.742312  7.971566
H    -2.812003  0.249956  3.208078
H    -2.998474  1.974985  3.061830
H    -1.274340  2.326976  4.904613
H    -1.046411  0.567287  4.997708
H    -3.483021  0.280619  5.544485
H    -3.686913  2.049706  5.518687
H    -1.641740  0.969056  7.368303
H    -1.855595  2.036783  9.494077
H    -3.425338  1.876954  10.196490
H    -5.288196  2.110433  8.705188
H    -5.159035  1.294385  7.193274
N    -1.008362  3.634908  1.961342
C    -0.414656  4.929718  1.596026
H    -1.982684  3.637270  2.253175
H    -0.306169  5.004534  0.506766
H    0.564403  5.042234  2.073144
H    -1.079999  5.724179  1.943648
Ca    2.596351  1.324819  0.833828
