37
Energy: -39740.6535426 eV PBE+vdW (tier 2 basis)
C    -0.506160  1.076413  -0.180973
C    0.028783  1.027819  1.207610
O    1.277641  1.375489  1.405855
H    -0.562720  2.123684  -0.515054
H    -1.496299  0.626074  -0.283614
H    0.184943  0.554839  -0.856761
N    -0.691191  0.663204  2.242962
C    -2.119768  0.274347  2.303286
C    -2.565137  0.747586  3.706206
O    -1.860873  0.380355  4.665145
H    -0.248159  0.628436  3.171159
H    -2.659227  0.786855  1.499872
C    -2.259619  -1.262399  2.178924
C    -3.694273  -1.807775  2.303906
C    -4.242258  -2.061038  3.717460
N    -3.559078  -3.155224  4.423546
C    -3.101157  -3.120319  5.692895
N    -3.052508  -4.258793  6.396986
N    -2.678095  -1.977355  6.242796
H    -1.605488  -1.731891  2.929154
H    -1.858585  -1.545751  1.195304
H    -3.737741  -2.754733  1.746456
H    -4.407305  -1.149698  1.784641
H    -5.306398  -2.326016  3.629623
H    -4.203011  -1.171405  4.353825
H    -3.713977  -4.086598  4.045724
H    -2.515849  -4.326825  7.254679
H    -3.612029  -5.065663  6.143723
H    -2.522729  -1.925833  7.243099
H    -2.411016  -1.160675  5.685228
N    -3.671099  1.489152  3.832268
C    -4.555519  2.016409  2.785912
H    -3.883816  1.752546  4.794054
H    -5.344936  2.594954  3.273833
H    -5.036168  1.213206  2.214908
H    -4.020316  2.691703  2.106463
Ca    3.183417  2.036653  1.325442
