37
Energy: -39740.7490598 eV PBE+vdW (tier 2 basis)
C    0.125072  0.271243  0.626071
C    -0.156004  1.323671  1.640718
O    0.836134  1.730317  2.401223
H    0.929372  0.609860  -0.042416
H    -0.746278  0.009437  0.020821
H    0.484952  -0.636366  1.132111
N    -1.331733  1.867132  1.815426
C    -2.573615  1.741515  1.030836
C    -3.259914  3.112089  1.318689
O    -2.934728  3.708478  2.355334
H    -1.480240  2.646294  2.500785
H    -2.319065  1.652649  -0.033899
C    -3.452035  0.532605  1.445742
C    -4.022993  0.548296  2.882294
C    -5.464384  1.049943  3.048584
N    -6.434653  0.063488  2.547791
C    -7.765565  0.265795  2.463280
N    -8.547443  -0.684718  1.938998
N    -8.300843  1.425560  2.863850
H    -2.849054  -0.374735  1.300691
H    -4.263905  0.460415  0.706530
H    -3.399310  1.166018  3.542646
H    -3.960205  -0.465981  3.304258
H    -5.617843  1.995411  2.507911
H    -5.638687  1.240491  4.120023
H    -6.131887  -0.906164  2.531804
H    -9.557202  -0.648289  2.028018
H    -8.161886  -1.485798  1.452943
H    -9.283507  1.624140  2.707784
H    -7.815114  2.034367  3.511054
N    -4.179871  3.523672  0.438414
C    -4.899281  4.795241  0.556124
H    -4.301496  2.993912  -0.420042
H    -5.970025  4.633263  0.388645
H    -4.528804  5.513889  -0.185345
H    -4.735873  5.198767  1.558820
Ca    2.519384  2.300426  3.335653
