37
Energy: -39741.5364396 eV PBE+vdW (tier 2 basis)
C    1.042982  -0.669812  1.732146
C    -0.124886  -1.490004  2.149328
O    0.015626  -2.452058  2.969239
H    1.794343  -1.367690  1.327340
H    1.521719  -0.187681  2.596093
H    0.812092  0.074133  0.965092
N    -1.366058  -1.254339  1.639709
C    -1.981986  0.073440  1.687670
C    -2.423290  0.305148  3.176550
O    -2.055679  -0.520124  4.080304
H    -2.020660  -2.010062  1.852378
H    -1.190618  0.815348  1.493868
C    -3.088354  0.246215  0.623739
C    -2.525370  0.186109  -0.809762
C    -3.458340  0.674328  -1.928487
N    -4.536624  -0.273105  -2.246344
C    -5.585978  0.021010  -3.050930
N    -6.524801  -0.906225  -3.268309
N    -5.710348  1.235176  -3.594424
H    -3.568109  1.225573  0.772413
H    -3.878314  -0.503904  0.783479
H    -2.164654  -0.828160  -1.040942
H    -1.635837  0.831746  -0.869234
H    -2.838462  0.855266  -2.821919
H    -3.918231  1.631293  -1.640158
H    -4.303342  -1.260421  -2.185721
H    -7.221814  -0.791947  -3.996794
H    -6.575482  -1.755484  -2.718554
H    -6.559569  1.502010  -4.082450
H    -4.919777  1.860177  -3.695150
N    -3.129860  1.373664  3.478566
C    -3.556201  1.746327  4.836256
H    -3.377960  2.011351  2.726185
H    -2.685920  2.014509  5.447748
H    -4.095437  0.914890  5.303052
H    -4.221065  2.610652  4.762128
Ca    -0.943957  -2.199264  4.884217
