37
Energy: -39742.147349 eV PBE+vdW (tier 2 basis)
C    -1.959984  0.833139  1.194733
C    -1.117122  0.296694  2.303291
O    -0.334019  -0.683560  2.091919
H    -2.610324  1.661549  1.493928
H    -2.575288  0.016023  0.791376
H    -1.310612  1.168096  0.373377
N    -1.210713  0.878650  3.509640
C    -0.583655  0.512603  4.802279
C    0.958393  0.585731  4.768190
O    1.650350  -0.242619  4.092114
H    -1.845632  1.672070  3.551661
H    -0.918972  1.305987  5.484509
C    -1.081796  -0.833944  5.385355
C    -2.550457  -0.786369  5.847887
C    -3.007361  -2.116174  6.480143
N    -4.427541  -2.120467  6.845575
C    -4.954890  -2.303992  8.075099
N    -6.214354  -2.736211  8.187033
N    -4.240496  -2.056494  9.179729
H    -0.430063  -1.080074  6.238290
H    -0.939815  -1.634270  4.644239
H    -3.206260  -0.555647  4.994225
H    -2.687631  0.028150  6.576122
H    -2.417482  -2.352893  7.375084
H    -2.841089  -2.947131  5.777419
H    -5.091596  -2.170238  6.078283
H    -6.695311  -3.192723  7.419677
H    -6.723172  -2.659984  9.062068
H    -4.573596  -2.356142  10.090136
H    -3.430537  -1.451110  9.168524
N    1.532724  1.513478  5.512564
C    2.978035  1.712529  5.668428
H    0.930239  2.165180  6.011071
H    3.317494  2.524040  5.011419
H    3.505094  0.788278  5.420669
H    3.183538  1.987999  6.708097
Ca    1.632901  -1.425156  2.323847
