37
Energy: -39740.2123322 eV PBE+vdW (tier 2 basis)
C    0.727087  0.239134  1.102472
C    0.287060  0.353744  2.520671
O    1.173431  0.484512  3.473097
H    0.304474  1.052130  0.493368
H    0.369405  -0.702400  0.658831
H    1.816736  0.269758  1.026747
N    -0.992279  0.329725  2.846974
C    -2.143953  0.159516  1.926400
C    -2.457691  1.411359  1.055444
O    -2.607620  1.206898  -0.154962
H    -1.213144  0.425478  3.839901
H    -1.829400  -0.569029  1.170883
C    -3.353133  -0.428472  2.707440
C    -4.785391  -0.003458  2.321615
C    -5.312225  -0.209592  0.892863
N    -5.151270  -1.570977  0.362646
C    -4.753724  -1.861627  -0.896014
N    -5.161916  -3.005871  -1.460919
N    -3.925879  -1.048291  -1.558776
H    -3.246301  -0.166065  3.772362
H    -3.265373  -1.522509  2.664651
H    -4.941083  1.061925  2.548180
H    -5.445288  -0.538268  3.020940
H    -4.844991  0.484593  0.190574
H    -6.384240  0.038553  0.899151
H    -5.693881  -2.297176  0.823517
H    -4.743574  -3.348542  -2.318702
H    -5.977519  -3.504135  -1.122746
H    -3.817754  -1.141425  -2.562405
H    -3.459808  -0.256454  -1.105185
N    -2.576636  2.632327  1.607348
C    -2.539323  3.024945  3.012387
H    -2.780300  3.363791  0.926590
H    -3.092951  3.962811  3.123926
H    -1.513284  3.200831  3.366446
H    -3.034882  2.285791  3.653410
Ca    2.843069  0.585218  4.621612
