37
Energy: -39742.1100485 eV PBE+vdW (tier 2 basis)
C    -0.400641  -0.498460  0.602182
C    -0.253910  -0.392998  2.081143
O    0.836389  0.009642  2.595907
H    0.407292  -1.118501  0.191217
H    -0.274860  0.506126  0.170143
H    -1.366773  -0.903625  0.284236
N    -1.298551  -0.718806  2.862168
C    -1.400648  -0.500451  4.315428
C    -0.590667  -1.569689  5.092123
O    0.680387  -1.492546  5.065812
H    -2.128525  -1.057881  2.383629
H    -0.842617  0.426253  4.523824
C    -2.857721  -0.203909  4.749604
C    -4.007824  -1.157376  4.359088
C    -5.356167  -0.559786  4.808665
N    -6.481095  -1.421073  4.437761
C    -7.702391  -1.402038  5.019694
N    -8.591076  -2.347652  4.700734
N    -8.012705  -0.470874  5.927602
H    -3.087347  0.790682  4.338504
H    -2.841641  -0.066609  5.841571
H    -3.904790  -2.161112  4.800415
H    -4.041768  -1.306254  3.266755
H    -5.472743  0.444283  4.366565
H    -5.360129  -0.448152  5.902710
H    -6.424009  -1.911235  3.549882
H    -8.319471  -3.198717  4.221624
H    -9.571369  -2.255377  4.947068
H    -8.862845  -0.547738  6.477386
H    -7.533381  0.420611  5.964885
N    -1.192636  -2.512820  5.788436
C    -0.493932  -3.536145  6.579804
H    -2.207511  -2.534981  5.783435
H    -1.228331  -4.052255  7.203293
H    0.258778  -3.063340  7.219734
H    -0.005939  -4.262092  5.917870
Ca    2.287165  -0.476105  4.064103
