37
Energy: -39741.4517644 eV PBE+vdW (tier 2 basis)
C    0.578001  0.043897  0.178797
C    0.244130  0.087725  1.626784
O    1.159727  0.045719  2.507018
H    1.242833  0.873709  -0.099343
H    -0.296093  0.024832  -0.477320
H    1.163752  -0.874619  0.010559
N    -1.049592  0.152064  2.047384
C    -1.986330  1.171574  1.562023
C    -1.394851  2.560097  1.966214
O    -0.413759  2.602702  2.789802
H    -1.135959  -0.011012  3.052983
H    -2.036324  1.120204  0.464572
C    -3.383414  0.938574  2.187876
C    -4.075955  -0.394308  1.822940
C    -5.001684  -0.325088  0.595978
N    -5.667457  -1.614481  0.388977
C    -6.924249  -1.806708  -0.063432
N    -7.606921  -0.806739  -0.634543
N    -7.496573  -3.005700  0.082624
H    -4.033972  1.786437  1.934488
H    -3.267754  0.987044  3.281722
H    -4.681421  -0.703718  2.685591
H    -3.320096  -1.182653  1.678908
H    -4.444413  -0.036018  -0.311567
H    -5.780650  0.430962  0.769285
H    -5.120009  -2.453969  0.554266
H    -7.136202  -0.027645  -1.077490
H    -8.599913  -0.901678  -0.822576
H    -8.330142  -3.259354  -0.437863
H    -7.137746  -3.695063  0.733798
N    -1.882680  3.680805  1.471220
C    -2.949098  3.884302  0.486404
H    -1.447809  4.531747  1.834675
H    -3.876825  4.189941  0.987283
H    -3.120853  2.976994  -0.098983
H    -2.640539  4.684167  -0.195864
Ca    1.395660  1.834497  3.699953
