37
Energy: -39740.2125137 eV PBE+vdW (tier 2 basis)
C    -1.704207  1.570825  3.779279
C    -0.679185  0.714245  3.126272
O    0.572722  1.098351  3.150324
H    -1.446895  1.687626  4.842753
H    -2.718206  1.166950  3.719957
H    -1.688512  2.573743  3.328481
N    -0.974895  -0.424115  2.528988
C    -2.319069  -1.029866  2.328832
C    -2.964157  -1.594419  3.627206
O    -4.125267  -1.233454  3.856775
H    -0.187614  -0.944765  2.136330
H    -2.993719  -0.206982  2.071014
C    -2.265334  -2.010860  1.125286
C    -3.181521  -3.252605  1.124181
C    -4.702942  -3.110360  1.284846
N    -5.336956  -2.147622  0.372394
C    -6.311750  -1.281892  0.730116
N    -7.198035  -0.880743  -0.191056
N    -6.369727  -0.789401  1.971064
H    -1.239962  -2.403381  1.030708
H    -2.440365  -1.417981  0.217188
H    -2.863218  -3.959631  1.904836
H    -2.972306  -3.768466  0.175265
H    -4.971216  -2.834508  2.307274
H    -5.146071  -4.102417  1.110601
H    -5.313339  -2.387150  -0.615698
H    -7.822534  -0.101067  -0.016803
H    -7.361176  -1.412483  -1.038691
H    -7.214863  -0.335468  2.298706
H    -5.618008  -0.936278  2.652005
N    -2.293591  -2.440528  4.428335
C    -0.969952  -3.030061  4.255957
H    -2.828263  -2.730133  5.246984
H    -0.926315  -3.957378  4.836118
H    -0.171460  -2.369769  4.624189
H    -0.779139  -3.299818  3.210398
Ca    2.333146  2.086252  3.341331
