37
Energy: -39740.4984866 eV PBE+vdW (tier 2 basis)
C    -0.246919  0.136829  -0.325015
C    -0.239246  0.279512  1.166398
O    0.782841  0.341068  1.849545
H    -1.249238  0.118959  -0.766668
H    0.276751  -0.792215  -0.590286
H    0.328987  0.957979  -0.771893
N    -1.487324  0.314323  1.794205
C    -1.551310  0.631792  3.212474
C    -2.480723  -0.350650  3.921422
O    -2.904293  -0.132374  5.133433
H    -2.278276  0.579777  1.208641
H    -0.535348  0.385775  3.584852
C    -1.840085  2.123957  3.512914
C    -0.833453  3.100670  2.873690
C    0.559829  3.126419  3.528775
N    1.487684  4.010948  2.824918
C    2.626905  3.656124  2.194300
N    3.521876  4.608608  1.899578
N    2.872544  2.387376  1.857557
H    -1.851458  2.270321  4.604320
H    -2.848213  2.375314  3.150061
H    -1.273120  4.106814  2.931834
H    -0.728994  2.889540  1.799902
H    1.008295  2.127130  3.562515
H    0.482293  3.477547  4.569449
H    1.308724  5.008663  2.889494
H    4.281922  4.435343  1.251290
H    3.495779  5.522206  2.337461
H    2.151889  1.660597  1.841424
H    3.801993  2.118352  1.554926
N    -2.812875  -1.456035  3.299768
C    -3.622576  -2.551569  3.831071
H    -2.420798  -1.538944  2.356683
H    -3.703674  -3.327646  3.064756
H    -4.635906  -2.201628  4.069672
H    -3.143796  -2.992558  4.715870
Ca    -3.716339  -0.047099  6.983187
