37
Energy: -39740.6031298 eV PBE+vdW (tier 2 basis)
C    0.321484  0.137624  0.280699
C    0.562415  -0.013311  1.742045
O    1.802008  0.048068  2.175627
H    0.647180  1.136941  -0.043675
H    -0.726006  0.003617  -0.000531
H    0.929045  -0.595552  -0.267873
N    -0.388854  -0.196829  2.618784
C    -1.856985  -0.192532  2.465543
C    -2.299437  0.308997  3.874428
O    -1.574338  -0.020351  4.823630
H    -0.184345  -0.275342  3.640352
H    -2.137739  0.497079  1.660970
C    -2.375541  -1.625529  2.167799
C    -3.890865  -1.734132  1.883651
C    -4.802095  -2.129427  3.055127
N    -4.736075  -3.575557  3.315968
C    -5.335486  -4.201597  4.349527
N    -5.171278  -5.520058  4.508436
N    -6.059554  -3.509318  5.236236
H    -2.081477  -2.280652  3.001611
H    -1.826627  -1.984099  1.285732
H    -4.044440  -2.458081  1.069131
H    -4.271805  -0.790009  1.472827
H    -5.835270  -1.843222  2.797699
H    -4.519034  -1.598119  3.975675
H    -4.482983  -4.164941  2.527992
H    -5.752271  -6.051742  5.147488
H    -4.490653  -6.041808  3.969395
H    -6.414656  -3.952749  6.076760
H    -6.435048  -2.595912  5.014567
N    -3.418760  1.035671  4.021402
C    -4.307320  1.630404  3.024360
H    -3.594365  1.290498  4.993571
H    -4.504167  2.673552  3.296911
H    -5.268100  1.100967  2.975392
H    -3.849798  1.628005  2.030770
Ca    3.737873  0.296935  2.642541
