37
Energy: -39742.1735433 eV PBE+vdW (tier 2 basis)
C    0.072315  -0.418665  -0.246800
C    0.198399  0.280036  1.062545
O    0.565020  1.497354  1.117185
H    1.022276  -0.350872  -0.794524
H    -0.677153  0.111446  -0.853756
H    -0.219403  -1.470086  -0.157033
N    -0.091883  -0.391957  2.188850
C    -0.165641  0.178076  3.549415
C    1.267992  0.469309  4.066866
O    1.825015  1.561314  3.721278
H    -0.359050  -1.368386  2.080889
H    -0.633066  1.170931  3.457103
C    -1.068460  -0.710355  4.431370
C    -1.437745  -0.077255  5.785259
C    -2.290467  -0.955304  6.716332
N    -3.684175  -1.082580  6.267782
C    -4.564281  -1.985495  6.764253
N    -5.800380  -2.039222  6.258165
N    -4.197358  -2.842665  7.721376
H    -0.603975  -1.700155  4.586182
H    -1.982718  -0.906319  3.850831
H    -1.948174  0.886152  5.623631
H    -0.528646  0.167797  6.353850
H    -2.253919  -0.511365  7.724356
H    -1.859286  -1.965603  6.777975
H    -4.104129  -0.253490  5.855883
H    -6.538166  -2.561467  6.719580
H    -6.049084  -1.561355  5.400043
H    -4.805561  -3.609024  7.992927
H    -3.408460  -2.659693  8.329617
N    1.886636  -0.413430  4.826411
C    3.252166  -0.281550  5.350114
H    1.392143  -1.274957  5.045870
H    3.959014  -0.811083  4.697922
H    3.290197  -0.724859  6.350202
H    3.520939  0.776033  5.406348
Ca    1.836071  2.911742  2.049702
