37
Energy: -39742.0899951 eV PBE+vdW (tier 2 basis)
C    0.973794  -1.508950  2.091625
C    0.527896  -0.085685  2.061278
O    1.381074  0.847291  1.926515
H    1.687554  -1.635978  2.918828
H    1.523858  -1.738687  1.168239
H    0.155842  -2.227313  2.208369
N    -0.786232  0.171494  2.178779
C    -1.498008  1.468791  2.282935
C    -1.335156  2.331798  1.011515
O    -0.222665  2.881451  0.727236
H    -1.377717  -0.653401  2.236820
H    -2.557123  1.182989  2.341496
C    -1.135671  2.272964  3.556223
C    -1.565180  1.638818  4.898167
C    -2.991391  2.001951  5.348608
N    -3.279035  1.417933  6.661688
C    -4.082840  1.942341  7.611113
N    -4.043004  1.444172  8.850707
N    -4.897306  2.966101  7.329075
H    -1.575127  3.277210  3.454954
H    -0.048401  2.422264  3.578169
H    -0.867958  1.983862  5.673723
H    -1.450065  0.543661  4.853822
H    -3.742038  1.667293  4.611909
H    -3.074868  3.094392  5.439844
H    -2.903838  0.494383  6.855982
H    -3.273611  0.867462  9.172234
H    -4.772741  1.649307  9.525604
H    -5.377736  3.463522  8.072189
H    -5.213592  3.150547  6.385296
N    -2.403785  2.512358  0.256437
C    -2.462136  3.333791  -0.958419
H    -3.259021  2.025801  0.516169
H    -2.342922  2.699641  -1.846719
H    -1.670998  4.086803  -0.930669
H    -3.439020  3.826208  -1.001653
Ca    1.887165  2.633413  0.911911
