37
Energy: -39739.5666089 eV PBE+vdW (tier 2 basis)
C    1.281072  -2.011391  2.801816
C    0.735495  -0.867440  3.633667
O    1.380976  -0.275260  4.469144
H    2.305410  -2.209597  3.130019
H    1.308689  -1.751956  1.731290
H    0.687200  -2.927997  2.941471
N    -0.596568  -0.473371  3.406810
C    -1.570640  -1.084277  2.542674
C    -1.293084  -0.854384  1.042259
O    -1.379312  -1.904026  0.260289
H    -0.911419  0.212057  4.089167
H    -1.499090  -2.182383  2.623083
C    -3.029603  -0.753678  2.977957
C    -3.425892  0.720927  3.184219
C    -4.776883  0.812636  3.919690
N    -5.149926  2.203249  4.191035
C    -5.907304  2.626737  5.226205
N    -5.995930  3.936751  5.478712
N    -6.544243  1.751594  6.011912
H    -3.719802  -1.226859  2.263834
H    -3.158137  -1.295078  3.927604
H    -3.495906  1.241771  2.216692
H    -2.680088  1.259890  3.787224
H    -4.694023  0.294200  4.885577
H    -5.563375  0.310031  3.332510
H    -4.967275  2.889624  3.465226
H    -5.335707  4.601932  5.092767
H    -6.710926  4.307657  6.095944
H    -6.969547  2.052481  6.883077
H    -6.781987  0.821057  5.691098
N    -0.916068  0.278031  0.494096
C    -0.699174  1.604976  1.085021
H    -0.739106  0.228625  -0.511239
H    -1.520783  2.271780  0.795793
H    -0.621168  1.530375  2.169007
H    0.237183  2.007886  0.681995
Ca    -1.188046  -3.645384  -0.752339
