37
Energy: -39739.8595569 eV PBE+vdW (tier 2 basis)
C    -0.936757  0.519582  -0.472191
C    -0.834912  0.532285  1.027375
O    0.233440  0.673931  1.613087
H    -0.076426  -0.016236  -0.887327
H    -0.852501  1.561188  -0.818314
H    -1.856709  0.097066  -0.889104
N    -1.994651  0.462386  1.813890
C    -3.139617  -0.400506  1.547526
C    -4.426518  0.332478  1.964960
O    -5.216597  -0.155092  2.886759
H    -1.747102  0.554969  2.800796
H    -3.217277  -0.512443  0.454073
C    -2.978932  -1.810636  2.156365
C    -1.696653  -2.541355  1.677736
C    -0.502815  -2.454137  2.649744
N    0.673619  -3.147575  2.122453
C    1.946100  -2.687067  2.087321
N    2.943465  -3.576180  1.992138
N    2.221443  -1.383142  2.129323
H    -3.855354  -2.411939  1.872806
H    -2.977959  -1.740860  3.257204
H    -1.391416  -2.176314  0.685928
H    -1.946017  -3.601514  1.531153
H    -0.778006  -2.907761  3.615963
H    -0.220402  -1.416693  2.857368
H    0.567946  -4.141989  1.942450
H    3.882543  -3.288493  1.739100
H    2.810527  -4.557587  2.206966
H    1.526638  -0.655250  1.940513
H    3.179470  -1.074580  2.254046
N    -4.755604  1.476176  1.407376
C    -4.064298  2.212229  0.338516
H    -5.596640  1.923913  1.772645
H    -3.800817  1.540025  -0.484393
H    -3.161142  2.692104  0.733529
H    -4.750850  2.975921  -0.037319
Ca    -6.587188  -0.885080  4.186361
