37
Energy: -39741.9574249 eV PBE+vdW (tier 2 basis)
C    -2.158487  0.872141  1.476574
C    -1.232417  0.387975  2.542665
O    -0.552937  -0.672940  2.362233
H    -2.874845  0.072002  1.241071
H    -1.588074  1.059982  0.555856
H    -2.707201  1.780628  1.745439
N    -1.141381  1.104077  3.673871
C    -0.409183  0.836177  4.934644
C    1.120867  0.733178  4.757953
O    1.662317  -0.205694  4.088530
H    -1.708971  1.948052  3.686917
H    -0.584961  1.746428  5.524521
C    -0.984693  -0.342315  5.766060
C    -2.362503  -0.006191  6.377007
C    -2.779336  -0.847572  7.603117
N    -3.381561  -2.159011  7.327656
C    -4.659291  -2.506793  7.605132
N    -4.962791  -3.795785  7.793089
N    -5.624315  -1.584519  7.672876
H    -0.266010  -0.535852  6.578110
H    -1.023475  -1.253676  5.152232
H    -3.150065  -0.048962  5.610358
H    -2.335238  1.035492  6.734642
H    -3.498330  -0.272970  8.200122
H    -1.914888  -1.009748  8.264014
H    -2.747983  -2.938334  7.182183
H    -4.259860  -4.476785  8.058114
H    -5.926721  -4.114040  7.799593
H    -6.532262  -1.806631  8.068215
H    -5.503442  -0.649340  7.306510
N    1.852891  1.635619  5.386358
C    3.318988  1.679950  5.417432
H    1.368993  2.380833  5.883316
H    3.638886  1.984935  6.419391
H    3.686558  2.413659  4.688041
H    3.722051  0.691355  5.186200
Ca    1.391669  -1.500323  2.427957
