37
Energy: -39740.5061421 eV PBE+vdW (tier 2 basis)
C    -1.080980  -1.610189  0.330734
C    -0.719206  -1.490693  1.769092
O    0.003727  -2.416137  2.345054
H    -0.717779  -0.737433  -0.232853
H    -2.174251  -1.630503  0.202923
H    -0.659071  -2.517749  -0.107811
N    -1.115703  -0.454795  2.486977
C    -1.985285  0.655275  2.018456
C    -1.285270  1.628359  1.019972
O    -1.973034  2.117075  0.130339
H    -0.835060  -0.442880  3.469690
H    -2.801256  0.204472  1.437926
C    -2.575032  1.390062  3.246579
C    -3.910498  2.131810  3.027736
C    -3.852439  3.440086  2.222698
N    -5.122043  4.160473  2.344259
C    -5.691657  4.929552  1.398390
N    -6.922690  5.416502  1.600805
N    -5.054572  5.198090  0.253092
H    -1.821675  2.077093  3.664144
H    -2.774080  0.632328  4.020339
H    -4.291447  2.359098  4.035551
H    -4.645226  1.453592  2.569023
H    -3.673715  3.219478  1.163900
H    -3.024951  4.075044  2.581633
H    -5.535980  4.213154  3.270827
H    -7.300837  6.155138  1.018457
H    -7.515283  5.074132  2.347796
H    -5.538542  5.638814  -0.520908
H    -4.058800  5.051861  0.150347
N    0.028498  1.881741  1.209318
C    0.764770  2.848922  0.389745
H    0.482645  1.540068  2.049517
H    1.817335  2.553389  0.339629
H    0.695920  3.860779  0.810435
H    0.338736  2.855286  -0.617716
Ca    1.028470  -4.090968  2.840505
