37
Energy: -39741.862991 eV PBE+vdW (tier 2 basis)
C    0.707033  -1.383912  0.266913
C    0.455692  -0.951572  1.672508
O    1.295275  -1.229350  2.585263
H    1.673102  -0.984373  -0.071904
H    -0.073766  -1.079301  -0.437637
H    0.800335  -2.479999  0.249147
N    -0.673938  -0.269558  1.933200
C    -1.253238  0.176316  3.223576
C    -0.356113  1.205915  3.939117
O    0.759721  0.854359  4.447907
H    -1.246982  -0.075604  1.116058
H    -2.173876  0.694548  2.930071
C    -1.636393  -0.985178  4.176421
C    -2.665826  -1.978019  3.592546
C    -4.157003  -1.658687  3.786441
N    -4.615350  -2.008711  5.139184
C    -5.872753  -1.809508  5.599471
N    -6.171603  -2.145580  6.857907
N    -6.799935  -1.242900  4.819943
H    -2.009237  -0.540005  5.111730
H    -0.726010  -1.536373  4.445947
H    -2.467240  -2.977169  4.008796
H    -2.496246  -2.100362  2.513473
H    -4.722893  -2.233349  3.035034
H    -4.364975  -0.590634  3.614332
H    -4.082316  -2.725333  5.623848
H    -7.132594  -2.181362  7.182300
H    -5.456002  -2.395400  7.530558
H    -7.709802  -0.993433  5.195123
H    -6.718696  -1.244699  3.810391
N    -0.760239  2.458406  4.061251
C    -1.976645  3.107955  3.551117
H    -0.123017  3.052746  4.595581
H    -1.849766  4.188464  3.665319
H    -2.858385  2.804150  4.129036
H    -2.121614  2.898470  2.485576
Ca    2.412981  -0.470361  4.213639
