37
Energy: -39741.3545939 eV PBE+vdW (tier 2 basis)
C    0.508511  0.434581  0.319747
C    0.366443  0.620175  1.786443
O    1.366015  0.937925  2.505505
H    0.922378  1.333129  -0.158479
H    -0.413013  0.124045  -0.180108
H    1.264654  -0.354796  0.171040
N    -0.830854  0.422464  2.408549
C    -2.050588  1.116129  1.987158
C    -1.859757  2.622104  2.363941
O    -0.830094  2.971199  3.045640
H    -0.725241  0.391989  3.423605
H    -2.102522  1.075302  0.888656
C    -3.328661  0.429014  2.531046
C    -3.441950  0.287326  4.057422
C    -4.798338  -0.249375  4.549891
N    -5.016893  -1.659677  4.202473
C    -6.217817  -2.283707  4.253161
N    -6.312017  -3.553219  3.845302
N    -7.308714  -1.633819  4.670150
H    -3.370128  -0.557243  2.047832
H    -4.199202  0.982530  2.154550
H    -3.316288  1.266813  4.544976
H    -2.644394  -0.359630  4.459634
H    -5.611748  0.340430  4.102218
H    -4.843865  -0.112289  5.642430
H    -4.207754  -2.273228  4.243029
H    -5.573984  -4.001918  3.315369
H    -7.135969  -4.111878  4.042888
H    -8.229694  -2.049462  4.570364
H    -7.249276  -0.811644  5.258720
N    -2.712368  3.541791  1.954169
C    -3.880120  3.420303  1.072583
H    -2.495667  4.489342  2.270415
H    -4.805615  3.376361  1.660423
H    -3.800890  2.539495  0.429152
H    -3.916835  4.310004  0.434559
Ca    1.276425  2.828680  3.545910
