37
Energy: -39741.847559 eV PBE+vdW (tier 2 basis)
C    1.992057  2.902575  2.319707
C    1.149322  1.831188  2.924885
O    1.672263  0.968308  3.698665
H    2.790723  2.429272  1.729584
H    2.489104  3.470355  3.118820
H    1.436129  3.595476  1.679819
N    -0.161812  1.811906  2.630928
C    -1.204796  0.814521  2.973536
C    -1.397234  0.691284  4.501612
O    -0.551858  0.058335  5.216235
H    -0.470020  2.557128  2.010968
H    -2.124977  1.249465  2.565211
C    -0.978644  -0.555773  2.291437
C    -2.200937  -1.501137  2.355136
C    -3.202939  -1.423184  1.190977
N    -2.690119  -2.098441  -0.009755
C    -3.304289  -2.097347  -1.216278
N    -2.718254  -2.708339  -2.250116
N    -4.465743  -1.457055  -1.387956
H    -0.109544  -1.047229  2.747622
H    -0.697578  -0.356783  1.247257
H    -2.770010  -1.334717  3.282214
H    -1.848388  -2.539628  2.440942
H    -3.427750  -0.377456  0.928111
H    -4.142798  -1.895457  1.520845
H    -2.036020  -2.860575  0.145610
H    -1.756059  -3.024198  -2.210923
H    -3.222881  -2.892685  -3.111236
H    -4.866847  -1.352010  -2.314825
H    -5.081287  -1.255135  -0.609497
N    -2.463719  1.225458  5.072556
C    -3.551159  2.014386  4.473903
H    -2.526097  1.064157  6.079943
H    -4.143305  2.438012  5.290300
H    -4.211306  1.382041  3.867247
H    -3.157897  2.844895  3.877423
Ca    1.559053  -0.172428  5.469447
