37
Energy: -39740.313523 eV PBE+vdW (tier 2 basis)
C    -0.600453  0.505357  -0.480305
C    -0.220356  0.453482  0.960504
O    1.026743  0.647615  1.310639
H    -0.884102  -0.496389  -0.841265
H    0.234594  0.863399  -1.088648
H    -1.464657  1.163873  -0.644370
N    -1.122306  0.215456  1.898649
C    -2.552227  -0.083408  1.664902
C    -3.521415  1.146871  1.594692
O    -4.692392  0.881186  1.374985
H    -0.785787  0.193026  2.862723
H    -2.608689  -0.518267  0.658970
C    -3.115796  -1.145972  2.633158
C    -3.562086  -0.673425  4.029506
C    -4.530589  -1.702118  4.635851
N    -5.040242  -1.272317  5.941190
C    -6.214513  -1.651402  6.481814
N    -6.656116  -1.043103  7.590000
N    -6.951085  -2.612059  5.913627
H    -2.407844  -1.985387  2.701310
H    -3.997054  -1.534142  2.104041
H    -4.086130  0.289614  3.952536
H    -2.699812  -0.532588  4.702251
H    -4.038979  -2.685666  4.721767
H    -5.390123  -1.808252  3.958485
H    -4.406774  -0.766757  6.552354
H    -7.417359  -1.431134  8.136171
H    -6.275999  -0.156341  7.898499
H    -7.906392  -2.779946  6.210513
H    -6.551175  -3.279947  5.266588
N    -3.009997  2.388454  1.742651
C    -3.842423  3.593005  1.659775
H    -2.040852  2.499061  2.014813
H    -3.333916  4.354797  1.059100
H    -4.049590  3.997308  2.658662
H    -4.787939  3.324853  1.180339
Ca    3.038365  0.881554  1.254862
