37
Energy: -39741.9463214 eV PBE+vdW (tier 2 basis)
C    0.305981  0.772072  0.945036
C    0.005204  -0.546193  1.576496
O    0.885838  -1.463612  1.587822
H    -0.526394  1.482354  0.983059
H    0.589957  0.603558  -0.103990
H    1.181498  1.220207  1.435896
N    -1.208715  -0.722268  2.124919
C    -1.838281  -1.929051  2.711937
C    -1.087688  -2.451192  3.951465
O    0.068366  -2.982076  3.847134
H    -1.817128  0.091199  2.074368
H    -2.812708  -1.565645  3.059450
C    -2.114783  -3.062054  1.687904
C    -3.107918  -2.623463  0.594720
C    -3.414132  -3.656275  -0.506371
N    -4.409895  -4.661640  -0.118485
C    -5.308851  -5.228456  -0.953919
N    -6.313636  -5.949200  -0.443089
N    -5.215391  -5.062840  -2.276765
H    -2.501877  -3.919991  2.260371
H    -1.170479  -3.393068  1.231559
H    -2.696496  -1.745645  0.075609
H    -4.056469  -2.294351  1.046786
H    -2.485264  -4.144935  -0.845138
H    -3.828448  -3.108871  -1.362893
H    -4.350284  -5.072128  0.807247
H    -6.877974  -6.554948  -1.030133
H    -6.595379  -5.862498  0.526365
H    -5.982096  -5.325773  -2.888093
H    -4.343503  -4.812902  -2.727179
N    -1.668793  -2.387066  5.136798
C    -2.967646  -1.810118  5.518723
H    -1.122670  -2.805095  5.892928
H    -3.061223  -0.776405  5.167450
H    -3.017440  -1.799416  6.611298
H    -3.797987  -2.421531  5.144741
Ca    1.904706  -2.884683  2.777972
