37
Energy: -39740.4840993 eV PBE+vdW (tier 2 basis)
C    2.580541  -0.309891  0.426474
C    1.879216  0.407959  1.535818
O    2.495766  0.819651  2.550574
H    1.932403  -0.569535  -0.416952
H    3.021436  -1.234724  0.825274
H    3.413798  0.309372  0.069080
N    0.543366  0.616321  1.397464
C    -0.413764  1.098368  2.404205
C    -0.145985  2.516001  2.925075
O    -1.172725  3.320552  3.054473
H    0.125530  0.278420  0.535082
H    -1.348446  1.218666  1.841930
C    -0.758409  0.065062  3.540155
C    0.325783  -0.858543  4.125197
C    1.207002  -0.290092  5.250011
N    2.098706  -1.301323  5.818065
C    3.410768  -1.460729  5.559037
N    4.123820  -2.304902  6.314901
N    4.009101  -0.787473  4.569676
H    -1.520707  -0.590611  3.099239
H    -1.274325  0.608690  4.348375
H    0.953412  -1.271985  3.323949
H    -0.214898  -1.724670  4.535305
H    0.578129  0.081811  6.072067
H    1.820250  0.552758  4.913155
H    1.685464  -1.963583  6.467655
H    3.764432  -2.678189  7.186082
H    5.060027  -2.590336  6.050523
H    3.493727  -0.273618  3.853470
H    5.019984  -0.792003  4.495606
N    1.057348  2.898221  3.237831
C    1.442296  4.221206  3.724601
H    1.791396  2.140773  3.070516
H    2.521483  4.224131  3.899887
H    0.933244  4.453364  4.669201
H    1.215422  4.991649  2.975287
Ca    -2.674230  4.668934  3.105344
