37
Energy: -39742.003689 eV PBE+vdW (tier 2 basis)
C    0.381363  -1.027856  1.122208
C    -0.024165  -0.073994  2.192072
O    0.647242  0.984392  2.405988
H    1.424133  -1.336492  1.277642
H    0.351639  -0.500761  0.156541
H    -0.254229  -1.917369  1.062828
N    -1.119815  -0.342606  2.923503
C    -1.748207  0.567134  3.900441
C    -0.908271  0.611912  5.203307
O    0.113716  1.372360  5.224876
H    -1.599223  -1.214474  2.714109
H    -1.628320  1.581995  3.491868
C    -3.279544  0.340054  3.982950
C    -3.834795  -1.034849  4.414316
C    -5.271242  -1.325684  3.938931
N    -6.276129  -0.470335  4.582881
C    -7.549504  -0.325451  4.140232
N    -8.363514  0.529533  4.766458
N    -7.981444  -0.996745  3.068853
H    -3.653528  0.567324  2.972695
H    -3.683337  1.133372  4.627348
H    -3.810350  -1.161030  5.509994
H    -3.230126  -1.863785  4.013843
H    -5.486112  -2.388430  4.137162
H    -5.333887  -1.164156  2.852723
H    -6.137104  -0.260277  5.567542
H    -8.015323  1.215718  5.425906
H    -9.364061  0.527935  4.595599
H    -8.880431  -0.779986  2.649227
H    -7.537302  -1.852399  2.757730
N    -1.232671  -0.116247  6.253605
C    -0.484870  -0.142205  7.518586
H    -2.040162  -0.727330  6.176860
H    -1.149379  -0.504369  8.307848
H    -0.140157  0.866565  7.764419
H    0.377680  -0.816323  7.438141
Ca    1.541428  2.232858  3.868771
