37
Energy: -39740.1512272 eV PBE+vdW (tier 2 basis)
C    0.107925  0.664128  0.397440
C    -0.052641  -0.019377  1.706967
O    1.046780  -0.360865  2.342481
H    -0.821624  1.044754  -0.022106
H    0.550370  -0.046814  -0.317708
H    0.814435  1.498050  0.506462
N    -1.195844  -0.333186  2.286369
C    -2.659808  -0.141489  2.013117
C    -3.403575  -1.510307  1.915980
O    -4.403345  -1.644677  2.629989
H    -1.060521  -0.819761  3.175972
H    -3.019004  0.252294  2.974299
C    -3.083309  0.842276  0.911760
C    -4.611147  1.041827  0.758110
C    -5.398387  1.689728  1.914750
N    -5.960036  0.705951  2.843999
C    -7.126157  0.833963  3.492899
N    -7.678517  -0.246453  4.063824
N    -7.750188  2.016687  3.575488
H    -2.727660  0.503051  -0.070075
H    -2.616413  1.818302  1.114898
H    -5.099502  0.101107  0.465860
H    -4.722222  1.704223  -0.110585
H    -6.231802  2.252156  1.471749
H    -4.768487  2.419243  2.452384
H    -5.472641  -0.198134  2.920173
H    -8.450955  -0.165706  4.714535
H    -7.355251  -1.179901  3.840302
H    -8.699348  2.084176  3.925068
H    -7.275774  2.887010  3.373470
N    -2.994020  -2.468443  1.064046
C    -1.921024  -2.459084  0.076043
H    -3.581130  -3.301663  1.096777
H    -2.144256  -3.219402  -0.678985
H    -0.946616  -2.708462  0.521265
H    -1.859265  -1.497757  -0.446113
Ca    2.936002  -0.618658  3.027211
