37
Energy: -39739.5617652 eV PBE+vdW (tier 2 basis)
C    0.121945  0.439719  0.493207
C    -0.235138  0.484547  1.953584
O    0.517030  0.967947  2.792798
H    -0.697498  0.146730  -0.172815
H    0.932590  -0.295363  0.375858
H    0.529322  1.408658  0.182876
N    -1.423140  -0.116347  2.387592
C    -2.739187  0.069948  1.771251
C    -2.935552  -0.879526  0.574638
O    -3.369762  -0.444982  -0.580328
H    -1.446415  -0.163830  3.405243
H    -3.466331  -0.311651  2.512160
C    -3.067208  1.556801  1.509953
C    -3.494756  2.379930  2.750289
C    -2.609283  2.440977  4.012290
N    -1.266688  3.001393  3.845891
C    -0.806065  4.130890  4.421557
N    -1.633375  5.105455  4.817277
N    0.513865  4.278065  4.581285
H    -3.910023  1.624697  0.804621
H    -2.205478  2.028005  1.014499
H    -4.475237  2.012135  3.092057
H    -3.670444  3.405971  2.395432
H    -2.501129  1.446696  4.471590
H    -3.149648  3.028745  4.766014
H    -0.537027  2.340927  3.550752
H    -2.603721  5.135873  4.534522
H    -1.299823  5.876608  5.385302
H    1.146583  3.490779  4.489757
H    0.923281  5.171931  4.829899
N    -2.697345  -2.165459  0.702453
C    -2.293733  -2.925240  1.896938
H    -2.826616  -2.724076  -0.141815
H    -2.542514  -3.975619  1.718025
H    -2.839898  -2.578445  2.780137
H    -1.215180  -2.827509  2.065869
Ca    -4.191981  0.118314  -2.344249
