37
Energy: -39740.3272997 eV PBE+vdW (tier 2 basis)
C    0.857440  0.050457  0.340633
C    0.161158  0.538352  1.576356
O    0.751515  0.974858  2.563248
H    1.503099  0.847991  -0.050002
H    0.179453  -0.278055  -0.455185
H    1.521687  -0.780679  0.614190
N    -1.236160  0.458030  1.576804
C    -1.946564  1.138792  2.644912
C    -3.060135  0.284703  3.230652
O    -3.552219  -0.725148  2.565491
H    -1.665048  0.461996  0.654276
H    -1.183727  1.245441  3.437122
C    -2.449896  2.557756  2.234814
C    -1.317482  3.540311  1.884781
C    -0.499696  4.031472  3.092627
N    0.590397  4.926252  2.707797
C    1.911857  4.675958  2.805201
N    2.770083  5.701278  2.730295
N    2.374568  3.432766  2.970125
H    -3.073488  2.980175  3.035939
H    -3.114997  2.453177  1.364143
H    -1.782978  4.407116  1.393422
H    -0.641860  3.104062  1.135119
H    -0.061563  3.195941  3.652446
H    -1.150424  4.578439  3.791746
H    0.333131  5.865618  2.419315
H    2.467839  6.661683  2.847765
H    3.762830  5.549654  2.590997
H    1.808006  2.596954  2.813491
H    3.343762  3.286292  3.228777
N    -3.561352  0.544370  4.418696
C    -3.151930  1.557546  5.399750
H    -4.348603  -0.039311  4.705329
H    -3.206390  1.106878  6.396891
H    -3.835187  2.415827  5.362489
H    -2.126391  1.885612  5.214376
Ca    -4.083217  -2.460153  1.676541
