37
Energy: -39740.2993575 eV PBE+vdW (tier 2 basis)
C    0.644446  0.524359  0.040462
C    0.491623  -0.423591  1.196963
O    1.272203  -1.357744  1.405275
H    0.401741  -0.012368  -0.888309
H    1.694924  0.830001  -0.033173
H    0.009644  1.415561  0.098787
N    -0.592382  -0.177983  2.021605
C    -1.129518  -0.991519  3.110994
C    -0.884532  -0.360141  4.494881
O    -1.921386  -0.213355  5.287560
H    -1.183574  0.595060  1.731299
H    -2.224859  -0.951822  3.002002
C    -0.737351  -2.495055  3.129980
C    -1.214945  -3.251680  1.871205
C    -0.421065  -4.527519  1.565379
N    0.916400  -4.206131  1.059411
C    1.745937  -5.076339  0.465032
N    1.461410  -6.383768  0.428760
N    2.873271  -4.625729  -0.103461
H    -1.206872  -2.940169  4.020790
H    0.344134  -2.593343  3.264270
H    -1.180939  -2.601553  0.986057
H    -2.268035  -3.539199  1.993513
H    -0.971795  -5.099635  0.803239
H    -0.349126  -5.155397  2.470004
H    1.210551  -3.226318  1.113519
H    2.034324  -7.032779  -0.098452
H    0.689444  -6.779105  0.948823
H    3.050078  -3.633988  -0.204007
H    3.575111  -5.259069  -0.467830
N    0.284610  0.035943  4.933683
C    1.607285  -0.020023  4.296970
H    0.278726  0.461337  5.862607
H    2.332327  -0.324036  5.060338
H    1.875182  0.981108  3.934105
H    1.622122  -0.731109  3.467533
Ca    -3.513428  0.079971  6.501678
