37
Energy: -39740.7737228 eV PBE+vdW (tier 2 basis)
C    -0.496166  1.351431  0.284551
C    -0.047607  0.548175  1.455288
O    1.160937  0.749964  1.922518
H    -0.627722  2.400962  0.590002
H    -1.433361  0.999335  -0.153278
H    0.279899  1.331367  -0.492060
N    -0.808142  -0.342665  2.048157
C    -2.212889  -0.717029  1.762593
C    -2.783928  -1.106259  3.145167
O    -2.142411  -1.939984  3.808575
H    -0.424315  -0.877502  2.838828
H    -2.730165  0.152596  1.338263
C    -2.265607  -1.921316  0.793170
C    -3.681271  -2.443232  0.485827
C    -4.290809  -3.462451  1.461511
N    -3.592366  -4.756101  1.468850
C    -3.192073  -5.439967  2.561029
N    -3.105648  -6.775205  2.495026
N    -2.861085  -4.805515  3.690652
H    -1.639271  -2.727408  1.204600
H    -1.789686  -1.607431  -0.146767
H    -3.659987  -2.898129  -0.515022
H    -4.392563  -1.607399  0.395951
H    -5.334457  -3.641322  1.163176
H    -4.328245  -3.093503  2.491388
H    -3.679275  -5.308553  0.619530
H    -2.606520  -7.307737  3.198893
H    -3.602468  -7.306436  1.788515
H    -2.633198  -3.807345  3.719243
H    -2.751276  -5.330767  4.550466
N    -3.937399  -0.539127  3.511070
C    -4.632051  -0.831549  4.767268
H    -4.365026  0.140103  2.887903
H    -4.927622  0.107747  5.247225
H    -3.954055  -1.380481  5.426015
H    -5.532434  -1.430815  4.579926
Ca    3.019758  1.388496  2.384023
