37
Energy: -39742.0026711 eV PBE+vdW (tier 2 basis)
C    0.339802  -1.060847  1.202947
C    -0.136464  0.015400  2.116028
O    0.433250  1.152035  2.131260
H    0.238534  -0.706962  0.165733
H    -0.205941  -2.003614  1.312945
H    1.410875  -1.239752  1.368767
N    -1.187544  -0.228295  2.918207
C    -1.884350  0.769193  3.752814
C    -1.031241  1.108117  5.002641
O    -0.084717  1.949780  4.865388
H    -1.583926  -1.163408  2.870517
H    -1.870055  1.708561  3.179498
C    -3.384974  0.418311  3.921547
C    -3.797383  -0.911124  4.590312
C    -5.207757  -1.407300  4.217961
N    -6.278105  -0.553801  4.748973
C    -7.567583  -0.601317  4.332502
N    -8.448200  0.266646  4.839421
N    -7.952807  -1.476502  3.399372
H    -3.796324  0.438761  2.900521
H    -3.852581  1.266980  4.439986
H    -3.740786  -0.851505  5.690443
H    -3.123183  -1.735813  4.310235
H    -5.315332  -2.438118  4.593124
H    -5.306149  -1.433283  3.122741
H    -6.141604  -0.173068  5.681407
H    -8.155332  1.080992  5.366710
H    -9.446990  0.144915  4.705645
H    -8.876190  -1.415345  2.981179
H    -7.434342  -2.327314  3.216232
N    -1.269267  0.542351  6.169567
C    -0.502083  0.799908  7.396512
H    -2.017056  -0.142718  6.221896
H    0.431120  0.222099  7.391563
H    -1.106956  0.495118  8.254819
H    -0.271872  1.866960  7.471306
Ca    1.231511  2.699958  3.341281
