37
Energy: -39740.6072581 eV PBE+vdW (tier 2 basis)
C    -1.048579  -0.786849  0.072013
C    -0.585172  0.036332  1.228101
O    0.683922  0.350303  1.313400
H    -0.818891  -0.269604  -0.870836
H    -2.124362  -0.987659  0.102105
H    -0.520349  -1.751627  0.066426
N    -1.451627  0.420516  2.131982
C    -1.284641  1.175802  3.381069
C    -2.409121  0.615582  4.285670
O    -3.455887  0.237279  3.723099
H    -2.430056  0.091261  2.057520
H    -0.288793  0.966470  3.793895
C    -1.433159  2.707878  3.166765
C    -2.759655  3.270785  2.606107
C    -3.871339  3.666346  3.607827
N    -4.934748  2.669166  3.748744
C    -6.222199  2.946628  4.009893
N    -7.134781  1.967963  3.916793
N    -6.614114  4.181213  4.349231
H    -0.622188  3.005733  2.486154
H    -1.199216  3.189481  4.128320
H    -3.183842  2.621558  1.826254
H    -2.486617  4.196347  2.082917
H    -4.336707  4.588454  3.235504
H    -3.429010  3.901893  4.590718
H    -4.656212  1.682466  3.727602
H    -8.076308  2.087744  4.272473
H    -6.927959  1.097871  3.442314
H    -7.597530  4.427088  4.379255
H    -5.960982  4.879518  4.680238
N    -2.200612  0.625276  5.602087
C    -3.177833  0.164149  6.592517
H    -1.301027  0.945342  5.950077
H    -3.590349  1.014124  7.150292
H    -2.688144  -0.518428  7.295569
H    -3.981511  -0.365308  6.074387
Ca    2.653011  0.349847  0.831856
