37
Energy: -39740.5831443 eV PBE+vdW (tier 2 basis)
C    -1.245718  1.372518  -0.820949
C    -0.496028  0.684665  0.266178
O    0.769458  0.969963  0.414169
H    -1.216304  2.458757  -0.671381
H    -2.290721  1.062923  -0.896079
H    -0.751328  1.140993  -1.776962
N    -1.005948  -0.322126  0.969758
C    -2.423131  -0.363510  1.360534
C    -2.724811  1.068261  1.962433
O    -1.790310  1.873649  2.053462
H    -0.362705  -0.716959  1.657028
H    -3.037329  -0.500239  0.457666
C    -2.670744  -1.536497  2.329105
C    -2.567920  -2.920912  1.664569
C    -2.793309  -4.120193  2.598064
N    -4.212661  -4.319610  2.927758
C    -4.662543  -5.145570  3.898424
N    -5.977639  -5.237506  4.127302
N    -3.806525  -5.840510  4.654242
H    -3.664884  -1.406373  2.774179
H    -1.963116  -1.457827  3.171379
H    -1.568537  -3.057724  1.226042
H    -3.264224  -2.985353  0.811897
H    -2.241487  -3.972396  3.538371
H    -2.392183  -5.021109  2.106342
H    -4.879428  -4.110450  2.189786
H    -6.362261  -5.971946  4.711770
H    -6.638767  -4.591041  3.713979
H    -4.128876  -6.353179  5.468432
H    -2.855319  -6.017670  4.356359
N    -3.982787  1.368556  2.316531
C    -5.215522  0.604395  2.147271
H    -4.075263  2.299080  2.721927
H    -6.032665  1.305840  1.947107
H    -5.469621  0.034638  3.052011
H    -5.149266  -0.072545  1.288238
Ca    2.410694  2.117985  0.608600
