37
Energy: -39742.2489141 eV PBE+vdW (tier 2 basis)
C    -1.032785  0.134821  -0.119131
C    -1.692635  -0.296200  1.145954
O    -2.726513  -1.036473  1.117664
H    -0.717293  -0.762797  -0.671591
H    -0.165105  0.784117  0.036716
H    -1.761263  0.653405  -0.757512
N    -1.170935  0.103790  2.317486
C    -1.607149  -0.314678  3.663999
C    -2.942781  0.389576  4.026493
O    -4.019294  -0.063943  3.516379
H    -0.374955  0.735898  2.267030
H    -1.867503  -1.382868  3.599867
C    -0.464992  -0.139100  4.684343
C    0.722893  -1.105146  4.496127
C    1.831029  -0.839417  5.535099
N    3.021090  -1.672288  5.330364
C    3.634939  -2.454495  6.245622
N    2.964058  -2.960122  7.287341
N    4.932955  -2.734939  6.097946
H    -0.892178  -0.292403  5.686851
H    -0.096996  0.902137  4.656163
H    1.149364  -0.999291  3.486478
H    0.377322  -2.146371  4.579494
H    1.461139  -1.003924  6.554957
H    2.143370  0.216051  5.491208
H    3.572178  -1.470377  4.500720
H    3.457334  -3.398823  8.057898
H    1.956380  -3.046912  7.283865
H    5.540334  -2.172092  5.512304
H    5.370183  -3.496003  6.607961
N    -2.943604  1.428438  4.837096
C    -4.126709  2.189259  5.257593
H    -2.048625  1.741706  5.206375
H    -4.053202  2.390895  6.331644
H    -5.027327  1.606913  5.052401
H    -4.167601  3.143295  4.716251
Ca    -4.715122  -1.203640  1.844546
