37
Energy: -39742.1926707 eV PBE+vdW (tier 2 basis)
C    1.388784  1.530976  1.600896
C    0.867471  0.266273  2.197611
O    1.666016  -0.551482  2.756388
H    0.616248  2.153761  1.138216
H    2.149562  1.278269  0.848133
H    1.901775  2.116142  2.377179
N    -0.452198  0.028767  2.126886
C    -1.236901  -1.163656  2.527109
C    -1.165592  -1.459879  4.040909
O    -0.086604  -1.848697  4.594941
H    -0.994576  0.768956  1.688348
H    -2.274533  -0.870386  2.315954
C    -0.941238  -2.428369  1.681630
C    -1.427204  -2.302240  0.225267
C    -1.279439  -3.617398  -0.559344
N    -1.771456  -3.461761  -1.931141
C    -2.265028  -4.446183  -2.712019
N    -2.877263  -4.128320  -3.857105
N    -2.170952  -5.727600  -2.338359
H    -1.455734  -3.270154  2.170716
H    0.134047  -2.656306  1.712598
H    -0.863855  -1.506821  -0.288205
H    -2.487646  -2.006439  0.213280
H    -1.874724  -4.404438  -0.074299
H    -0.225379  -3.942410  -0.563629
H    -1.602792  -2.571772  -2.390505
H    -3.065335  -4.828671  -4.567027
H    -3.197955  -3.186082  -4.049381
H    -2.678247  -6.450457  -2.838819
H    -1.459942  -6.042201  -1.689885
N    -2.287587  -1.343802  4.727881
C    -2.453286  -1.639101  6.155360
H    -3.113604  -1.005663  4.238206
H    -1.647462  -2.295855  6.490637
H    -3.419171  -2.134250  6.301235
H    -2.440538  -0.706097  6.733883
Ca    2.032339  -1.703656  4.491454
