37
Energy: -39741.415222 eV PBE+vdW (tier 2 basis)
C    -0.492191  0.141487  -0.399328
C    -0.225545  0.217243  1.066730
O    0.943358  0.511923  1.474224
H    0.219235  0.801373  -0.910109
H    -1.513372  0.430049  -0.660710
H    -0.309017  -0.879176  -0.772143
N    -1.195001  0.011789  2.000280
C    -2.060655  -1.178623  2.072123
C    -1.126195  -2.401774  2.349870
O    0.139556  -2.278505  2.190115
H    -0.883239  0.315934  2.924649
H    -2.660716  -1.032718  2.984083
C    -3.054037  -1.386418  0.905407
C    -4.082215  -0.246145  0.785101
C    -5.161050  -0.547759  -0.268560
N    -6.151465  0.531705  -0.315286
C    -7.003717  0.773693  -1.334188
N    -7.732188  1.894471  -1.326510
N    -7.100435  -0.079739  -2.360131
H    -3.584187  -2.329312  1.096748
H    -2.518393  -1.541100  -0.040028
H    -3.584696  0.703070  0.537813
H    -4.567477  -0.098656  1.764012
H    -5.650114  -1.508771  -0.034012
H    -4.703106  -0.636307  -1.265029
H    -6.336106  1.032825  0.548718
H    -8.524173  2.013802  -1.949604
H    -7.517258  2.668699  -0.708506
H    -7.625426  0.169441  -3.192344
H    -6.833382  -1.052355  -2.271208
N    -1.617560  -3.544360  2.789557
C    -2.992199  -3.906630  3.153931
H    -0.920051  -4.279870  2.921496
H    -3.470445  -4.468052  2.341149
H    -3.583258  -3.019703  3.399358
H    -2.950291  -4.547739  4.041295
Ca    2.018530  -1.199759  2.218634
