37
Energy: -39740.4885947 eV PBE+vdW (tier 2 basis)
C    -0.809881  0.038658  -0.260747
C    -0.228054  -0.338651  1.058651
O    0.535251  -1.396329  1.151515
H    -1.872945  -0.251462  -0.299908
H    -0.289314  -0.476485  -1.073126
H    -0.759571  1.120462  -0.437451
N    -0.472190  0.369907  2.148253
C    -1.415765  1.509421  2.272649
C    -0.802558  2.922465  2.063455
O    -1.584703  3.871253  2.140349
H    -0.048395  0.032038  3.015043
H    -2.143980  1.401484  1.458274
C    -2.197465  1.419915  3.603418
C    -1.465984  1.840914  4.894768
C    -1.639325  3.307010  5.340316
N    -3.028751  3.654574  5.656143
C    -3.742009  4.673260  5.127340
N    -4.780645  5.161660  5.818983
N    -3.443660  5.172144  3.927122
H    -2.568045  0.389103  3.696477
H    -3.100357  2.030881  3.469632
H    -0.379691  1.657698  4.831135
H    -1.813272  1.193677  5.712585
H    -1.272360  4.010785  4.587179
H    -1.033452  3.469464  6.243442
H    -3.409968  3.250947  6.507183
H    -5.461393  5.774258  5.383968
H    -4.880831  5.003042  6.814906
H    -3.861072  6.043545  3.620882
H    -2.809184  4.698159  3.277500
N    0.506315  3.039738  1.786782
C    1.159524  4.331878  1.549084
H    1.089958  2.211790  1.796869
H    0.402418  5.055794  1.235991
H    1.906321  4.220868  0.756370
H    1.651375  4.695154  2.460399
Ca    1.518810  -3.144481  0.823456
