37
Energy: -39741.9617887 eV PBE+vdW (tier 2 basis)
C    -1.700974  -1.821653  -0.293228
C    -1.158278  -1.301359  0.992150
O    0.048015  -0.907117  1.078754
H    -2.747687  -2.136888  -0.231940
H    -1.087969  -2.667510  -0.634753
H    -1.604816  -1.037408  -1.058802
N    -1.963570  -1.245701  2.067477
C    -1.601534  -0.656194  3.369433
C    -0.556374  -1.554850  4.085263
O    0.674793  -1.269951  3.886164
H    -2.913241  -1.593032  1.952205
H    -1.027173  0.257049  3.151171
C    -2.856476  -0.239677  4.168200
C    -3.526432  1.031030  3.607277
C    -4.909871  1.356896  4.205828
N    -4.907637  1.901048  5.570602
C    -5.301699  3.145934  5.923943
N    -5.261983  4.155045  5.047901
N    -5.720660  3.371301  7.173265
H    -2.550010  -0.079299  5.212597
H    -3.584680  -1.064398  4.182394
H    -3.685652  0.916575  2.523621
H    -2.854612  1.894056  3.731806
H    -5.545722  0.458791  4.207142
H    -5.422615  2.077641  3.556896
H    -4.862840  1.234183  6.334422
H    -5.728443  5.034694  5.243955
H    -4.731345  4.102112  4.188426
H    -5.821833  4.315019  7.533212
H    -6.044597  2.620708  7.773245
N    -0.860499  -2.587122  4.851215
C    -2.155486  -3.194238  5.180096
H    -0.042867  -3.043374  5.261666
H    -1.973224  -4.238741  5.451407
H    -2.827497  -3.182792  4.317253
H    -2.620969  -2.691419  6.036361
Ca    1.872453  -0.812356  2.168376
