37
Energy: -39741.4611051 eV PBE+vdW (tier 2 basis)
C    -3.379833  -0.219698  -1.980397
C    -2.550309  0.520983  -0.994726
O    -2.201076  1.725420  -1.209428
H    -2.805284  -0.237883  -2.922315
H    -4.309170  0.318564  -2.210997
H    -3.595515  -1.253038  -1.694938
N    -2.110138  -0.083122  0.145440
C    -3.044606  -0.728002  1.071140
C    -3.690983  0.420650  1.917996
O    -3.571540  1.633158  1.531334
H    -1.382698  0.462231  0.610663
H    -3.878269  -1.119338  0.466007
C    -2.447489  -1.936786  1.822630
C    -1.172697  -1.718040  2.655454
C    -0.767050  -3.030743  3.357469
N    0.453112  -2.905499  4.162231
C    1.502006  -3.759757  4.179555
N    1.802972  -4.512146  3.115661
N    2.260935  -3.836519  5.276897
H    -2.255770  -2.698205  1.052125
H    -3.237371  -2.377077  2.452949
H    -1.331736  -0.935196  3.414998
H    -0.341701  -1.384777  2.015531
H    -0.619525  -3.828237  2.618975
H    -1.583614  -3.372447  4.013596
H    0.398292  -2.283005  4.963653
H    2.476230  -5.267893  3.187774
H    1.464200  -4.292093  2.188327
H    1.930019  -3.519725  6.181619
H    3.176813  -4.273924  5.255694
N    -4.401512  0.109153  2.981861
C    -5.153503  1.066183  3.806916
H    -4.491590  -0.876039  3.218869
H    -5.454341  0.563894  4.730065
H    -6.051765  1.403809  3.274536
H    -4.523309  1.927335  4.050963
Ca    -3.001495  3.200717  0.141934
