37
Energy: -39742.0735071 eV PBE+vdW (tier 2 basis)
C    0.596396  -1.503298  -0.523627
C    0.014904  -1.184331  0.808659
O    0.764463  -0.967066  1.814070
H    1.264763  -2.370986  -0.435189
H    1.222702  -0.656825  -0.843757
H    -0.155999  -1.701572  -1.293825
N    -1.320611  -1.117679  0.942545
C    -2.026167  -0.666191  2.156538
C    -1.871048  -1.727211  3.278508
O    -0.917845  -1.547422  4.111643
H    -1.878264  -1.287756  0.107885
H    -1.462970  0.193848  2.549466
C    -3.435933  -0.164387  1.780832
C    -4.245161  0.437242  2.943481
C    -5.569351  1.035260  2.435273
N    -6.342948  1.627932  3.529089
C    -7.298483  2.572538  3.388700
N    -7.801621  3.161429  4.478463
N    -7.722249  2.940681  2.174955
H    -4.013718  -0.960409  1.291265
H    -3.276408  0.613154  1.017205
H    -3.663858  1.227218  3.442528
H    -4.458557  -0.333867  3.701843
H    -6.159359  0.255167  1.924309
H    -5.354622  1.828409  1.704272
H    -6.289319  1.181113  4.439395
H    -8.651783  3.713755  4.434713
H    -7.341136  3.102998  5.379416
H    -8.317830  3.754506  2.059132
H    -7.621468  2.337982  1.367545
N    -2.634041  -2.800702  3.393447
C    -3.712555  -3.304360  2.534516
H    -2.397110  -3.385982  4.197121
H    -4.670257  -2.828055  2.777953
H    -3.809137  -4.378893  2.717951
H    -3.473670  -3.163995  1.476308
Ca    1.178252  -1.107243  3.887373
