37
Energy: -39740.6918482 eV PBE+vdW (tier 2 basis)
C    0.376537  0.027152  0.859756
C    -0.343100  -0.104434  2.154847
O    0.351461  -0.393159  3.226075
H    0.821818  1.032691  0.806124
H    -0.274872  -0.093377  -0.010759
H    1.180356  -0.716270  0.801478
N    -1.649585  0.026809  2.265027
C    -2.541414  0.568363  1.224905
C    -2.089032  2.049081  0.942664
O    -1.303335  2.597763  1.712099
H    -2.024704  -0.038028  3.211160
H    -2.386196  -0.035964  0.319351
C    -4.029461  0.434190  1.615634
C    -4.586860  1.462992  2.615829
C    -6.115140  1.339820  2.713913
N    -6.678204  2.372583  3.589291
C    -7.930953  2.369043  4.087170
N    -8.290798  3.305177  4.973377
N    -8.805285  1.423663  3.725655
H    -4.208295  -0.593753  1.968826
H    -4.596989  0.513214  0.676780
H    -4.325643  2.478740  2.279619
H    -4.147490  1.337258  3.617578
H    -6.388857  0.355018  3.121289
H    -6.548714  1.421026  1.702178
H    -6.165371  3.245516  3.667666
H    -9.263447  3.452835  5.219763
H    -7.607921  3.894843  5.433981
H    -9.696788  1.330147  4.200698
H    -8.680819  0.874604  2.884407
N    -2.632302  2.603434  -0.156066
C    -2.343556  3.971815  -0.593355
H    -3.206797  2.030812  -0.767269
H    -3.279073  4.502777  -0.802078
H    -1.728765  3.962805  -1.502018
H    -1.799909  4.483981  0.204646
Ca    1.891220  -0.686726  4.491196
