37
Energy: -39740.8991457 eV PBE+vdW (tier 2 basis)
C    -0.707796  1.500327  -0.257954
C    -0.378029  1.140652  1.148883
O    0.747091  1.598709  1.655052
H    0.106522  1.172329  -0.919513
H    -0.779790  2.593732  -0.351471
H    -1.642858  1.057219  -0.609305
N    -1.142199  0.402973  1.908223
C    -2.534363  -0.036821  1.714557
C    -3.037019  -0.096747  3.195824
O    -2.174348  -0.147380  4.086646
H    -0.926715  0.238568  2.927959
H    -3.078929  0.737774  1.158233
C    -2.700579  -1.389763  0.978704
C    -2.303797  -2.652786  1.760378
C    -2.710481  -3.919618  0.993288
N    -2.428724  -5.124362  1.781251
C    -2.450351  -6.385700  1.308267
N    -2.052593  -7.392957  2.094859
N    -2.838620  -6.635172  0.052609
H    -2.149788  -1.338812  0.026883
H    -3.764043  -1.454111  0.701542
H    -2.807471  -2.652120  2.740005
H    -1.221785  -2.670575  1.957626
H    -2.153340  -3.986255  0.046604
H    -3.786268  -3.867337  0.752109
H    -2.391338  -5.021253  2.790636
H    -2.233595  -8.359577  1.847216
H    -1.553233  -7.228916  2.960838
H    -2.728455  -7.558601  -0.352502
H    -3.386611  -5.970031  -0.478229
N    -4.357582  -0.122399  3.387043
C    -4.988014  -0.178803  4.709872
H    -4.968772  -0.008762  2.583306
H    -5.734829  -0.980299  4.730441
H    -5.480000  0.775187  4.935272
H    -4.215628  -0.373655  5.457964
Ca    2.368125  2.580582  2.307550
