37
Energy: -39741.9452994 eV PBE+vdW (tier 2 basis)
C    0.229196  0.761321  0.388003
C    0.101141  -0.545828  1.096525
O    1.056248  -1.383351  1.064474
H    0.415213  0.565361  -0.678274
H    1.112486  1.295939  0.764615
H    -0.648836  1.407856  0.486941
N    -1.042643  -0.797799  1.757912
C    -1.507260  -2.026661  2.444368
C    -0.624350  -2.402105  3.651053
O    0.575721  -2.800552  3.482168
H    -1.713858  -0.034582  1.743743
H    -2.490835  -1.748556  2.839939
C    -1.683688  -3.243720  1.499281
C    -2.792774  -3.108655  0.432837
C    -4.208731  -3.456711  0.934437
N    -5.238678  -3.320573  -0.099885
C    -5.946019  -4.313872  -0.680222
N    -7.107485  -4.027192  -1.274822
N    -5.503336  -5.577230  -0.664389
H    -1.869702  -4.128801  2.128141
H    -0.729775  -3.433071  0.989940
H    -2.540422  -3.777890  -0.401799
H    -2.790007  -2.095302  0.002224
H    -4.506054  -2.808049  1.772868
H    -4.244243  -4.484362  1.320693
H    -5.546713  -2.378507  -0.321219
H    -7.547040  -4.679102  -1.916991
H    -7.612496  -3.169152  -1.081390
H    -6.110196  -6.341580  -0.942707
H    -4.525398  -5.799433  -0.532736
N    -1.128227  -2.358482  4.872051
C    -2.459648  -1.930424  5.326272
H    -0.487679  -2.682972  5.599598
H    -2.426628  -1.841344  6.416020
H    -3.223295  -2.674566  5.067421
H    -2.721475  -0.948039  4.917816
Ca    2.286485  -2.659012  2.224095
