37
Energy: -39740.3006414 eV PBE+vdW (tier 2 basis)
C    -0.001569  1.182344  0.406974
C    -0.094406  0.314785  1.613877
O    0.992936  -0.147490  2.175467
H    1.039815  1.341062  0.116432
H    -0.471182  2.160040  0.593050
H    -0.537738  0.732214  -0.442500
N    -1.263386  0.002292  2.141750
C    -2.593119  0.396922  1.622778
C    -3.019811  1.879755  1.826897
O    -3.765714  2.340477  0.960884
H    -1.246585  -0.577184  2.982489
H    -2.533319  0.301117  0.531485
C    -3.722486  -0.527111  2.164778
C    -4.555723  -1.252522  1.089766
C    -5.231929  -0.390216  0.008803
N    -6.109664  0.673413  0.500128
C    -7.452329  0.679247  0.459434
N    -8.106940  1.844808  0.549648
N    -8.148077  -0.459006  0.343334
H    -4.386308  0.065903  2.808895
H    -3.286525  -1.296227  2.820608
H    -5.313511  -1.844591  1.623721
H    -3.924371  -1.982860  0.560106
H    -5.799329  -1.043427  -0.667406
H    -4.479933  0.103565  -0.622507
H    -5.635258  1.558634  0.688553
H    -7.640867  2.726141  0.369647
H    -9.107065  1.878101  0.712305
H    -9.139601  -0.447153  0.132138
H    -7.723031  -1.364698  0.490469
N    -2.630490  2.584070  2.910555
C    -1.999537  2.126924  4.146038
H    -3.007176  3.531227  2.914577
H    -2.248961  2.839086  4.939067
H    -0.903634  2.090944  4.068460
H    -2.387470  1.150748  4.464927
Ca    2.880865  -0.719109  2.644999
