37
Energy: -39742.0498801 eV PBE+vdW (tier 2 basis)
C    -1.706212  -1.013774  -0.627077
C    -1.115699  -0.899567  0.735553
O    0.129511  -0.691768  0.890142
H    -1.204612  -1.822294  -1.177189
H    -1.499500  -0.085317  -1.179580
H    -2.785511  -1.197629  -0.623314
N    -1.919014  -1.013222  1.807535
C    -1.500617  -0.821698  3.207883
C    -0.587190  -1.996330  3.656512
O    0.672108  -1.833161  3.497847
H    -2.902658  -1.204593  1.630576
H    -0.812858  0.037496  3.215226
C    -2.697797  -0.476898  4.117767
C    -3.196986  0.974226  3.969211
C    -4.436619  1.231387  4.848495
N    -4.994069  2.576960  4.671458
C    -5.305169  3.463806  5.642501
N    -4.686322  3.439469  6.828744
N    -6.239934  4.388855  5.405366
H    -2.385705  -0.651508  5.158371
H    -3.527493  -1.174778  3.931359
H    -3.455389  1.182382  2.918756
H    -2.398147  1.680750  4.240106
H    -4.199947  1.087558  5.910108
H    -5.225649  0.500209  4.610800
H    -5.404742  2.775260  3.763237
H    -5.035627  3.988614  7.607142
H    -3.789764  2.988921  6.955866
H    -6.333618  5.208602  5.996736
H    -6.919838  4.286009  4.659925
N    -1.027031  -3.133631  4.163421
C    -2.390447  -3.633281  4.380373
H    -0.276680  -3.774166  4.431719
H    -3.054508  -3.335483  3.563989
H    -2.787910  -3.290862  5.343491
H    -2.343681  -4.726576  4.395638
Ca    1.938323  -1.112968  1.930305
