37
Energy: -39740.3307028 eV PBE+vdW (tier 2 basis)
C    2.607253  0.440631  1.827538
C    1.765884  0.030178  2.991048
O    2.326195  -0.076544  4.170671
H    3.068280  1.419318  2.024019
H    2.035227  0.507828  0.896373
H    3.415885  -0.290052  1.677721
N    0.493704  -0.219046  2.805589
C    -0.548132  -0.719984  3.708750
C    -1.431483  -1.589570  2.775083
O    -1.551963  -1.215759  1.595612
H    0.122586  -0.204031  1.838325
H    -0.077391  -1.318214  4.497296
C    -1.422330  0.400338  4.360684
C    -1.672020  1.724295  3.610309
C    -2.329206  1.738816  2.215918
N    -3.569057  0.970527  2.063079
C    -4.812196  1.483476  1.985124
N    -5.778987  0.779426  1.383314
N    -5.097296  2.678740  2.514694
H    -0.961403  0.667365  5.321432
H    -2.384779  -0.066029  4.617064
H    -0.725042  2.275813  3.500474
H    -2.273023  2.334445  4.301543
H    -1.643099  1.346864  1.456222
H    -2.524117  2.783021  1.935260
H    -3.439198  0.023939  1.710103
H    -5.563401  0.037902  0.726965
H    -6.755305  1.039981  1.472855
H    -5.973591  3.146619  2.309763
H    -4.479112  3.135334  3.172151
N    -2.059614  -2.653215  3.288714
C    -1.958883  -3.210550  4.639563
H    -2.612163  -3.175098  2.609674
H    -2.751563  -3.954702  4.760056
H    -2.112043  -2.442483  5.407039
H    -0.997090  -3.716791  4.798914
Ca    3.829195  -0.128995  5.529593
