37
Energy: -39742.0732319 eV PBE+vdW (tier 2 basis)
C    0.048561  -1.992420  -0.581407
C    0.009644  -1.617577  0.858296
O    1.076092  -1.573499  1.551486
H    0.675892  -1.263022  -1.115943
H    -0.939284  -2.025770  -1.052215
H    0.539284  -2.969071  -0.694291
N    -1.170405  -1.313862  1.425078
C    -1.340504  -0.780918  2.789723
C    -1.018346  -1.886837  3.829986
O    0.173429  -1.910168  4.292922
H    -1.993688  -1.351924  0.827337
H    -0.532737  -0.050284  2.947910
C    -2.678802  -0.018996  2.884434
C    -2.942749  0.673708  4.233040
C    -4.188791  1.573448  4.149753
N    -4.440140  2.254520  5.422372
C    -5.616656  2.806599  5.791845
N    -5.765053  3.255038  7.042436
N    -6.637167  2.878417  4.930331
H    -3.519909  -0.678333  2.629527
H    -2.636731  0.745172  2.092233
H    -2.070665  1.289200  4.507583
H    -3.081214  -0.064901  5.037226
H    -5.072900  0.964203  3.910117
H    -4.054213  2.309105  3.338462
H    -3.633328  2.511129  5.983323
H    -5.122237  2.998569  7.782871
H    -6.543367  3.853131  7.299925
H    -7.563020  3.149440  5.246282
H    -6.492308  2.858011  3.928293
N    -1.882286  -2.805375  4.226560
C    -3.257623  -3.075825  3.791313
H    -1.503636  -3.447899  4.925376
H    -3.975445  -2.441040  4.325258
H    -3.482096  -4.120230  4.028859
H    -3.362780  -2.946924  2.710167
Ca    2.120180  -1.854812  3.373533
