37
Energy: -39740.6157209 eV PBE+vdW (tier 2 basis)
C    -0.121346  -1.638684  1.188850
C    -0.083647  -1.535510  2.673501
O    0.615907  -2.428503  3.338151
H    0.901358  -1.580758  0.789324
H    -0.726805  -0.861682  0.715749
H    -0.525789  -2.620123  0.902081
N    -0.703451  -0.606324  3.352207
C    -1.400438  0.609943  2.892363
C    -1.187556  1.559248  4.109372
O    -0.999190  1.027626  5.213643
H    -0.612242  -0.533479  4.393295
H    -0.895450  0.995938  1.998002
C    -2.900628  0.372183  2.564657
C    -3.835955  0.007554  3.739264
C    -4.535351  1.181938  4.454623
N    -5.657450  1.775004  3.713877
C    -6.966779  1.542866  3.932074
N    -7.370088  0.482865  4.641849
N    -7.878483  2.382664  3.427276
H    -2.941595  -0.424862  1.808984
H    -3.262359  1.271064  2.043701
H    -3.286722  -0.557845  4.505938
H    -4.606035  -0.677852  3.357627
H    -3.830758  1.994907  4.671990
H    -4.911442  0.852404  5.432017
H    -5.448272  2.518435  3.056699
H    -8.327895  0.406309  4.966267
H    -6.749725  -0.284578  4.861355
H    -7.633179  3.316400  3.119080
H    -8.863246  2.140580  3.404389
N    -1.259499  2.885045  3.919735
C    -1.278716  3.618641  2.651393
H    -1.078920  3.426316  4.764745
H    -2.031417  3.218037  1.962668
H    -0.295639  3.611466  2.161225
H    -1.543590  4.659127  2.861697
Ca    1.878670  -3.775128  4.128099
