37
Energy: -39741.4615086 eV PBE+vdW (tier 2 basis)
C    -0.248942  0.507115  -0.187542
C    0.293361  1.138117  1.043876
O    1.254919  1.968231  0.982164
H    0.592731  -0.018407  -0.669505
H    -0.580402  1.262454  -0.913294
H    -1.044802  -0.219505  -0.002456
N    -0.199766  0.815431  2.273532
C    -1.630470  0.919952  2.571474
C    -1.923549  2.444161  2.798720
O    -1.042467  3.312381  2.478004
H    0.399819  1.160658  3.024829
H    -2.174723  0.664981  1.648427
C    -2.109390  -0.064958  3.662242
C    -1.428292  0.041643  5.035524
C    -2.028464  -0.864144  6.125804
N    -1.758198  -2.289949  5.898390
C    -2.409280  -3.301667  6.520381
N    -3.350623  -3.049058  7.434830
N    -2.127495  -4.564219  6.183457
H    -1.976095  -1.072124  3.242577
H    -3.199450  0.048084  3.776909
H    -1.506778  1.068945  5.424047
H    -0.349533  -0.171186  4.954848
H    -3.119378  -0.727512  6.160821
H    -1.617531  -0.546873  7.097847
H    -0.843382  -2.528384  5.525285
H    -3.940524  -3.794621  7.791320
H    -3.385979  -2.170298  7.937276
H    -1.598820  -4.790825  5.349253
H    -2.443991  -5.345130  6.749165
N    -3.099703  2.805982  3.267302
C    -3.547864  4.195413  3.445614
H    -3.774988  2.073099  3.471187
H    -4.469834  4.187351  4.032841
H    -3.748144  4.658682  2.471269
H    -2.783897  4.770592  3.978736
Ca    0.811534  3.993209  1.575255
