37
Energy: -39742.0821718 eV PBE+vdW (tier 2 basis)
C    1.212170  -0.306200  0.517727
C    0.404440  -0.595531  1.738111
O    0.683970  -1.600919  2.464490
H    0.884722  0.583605  -0.029759
H    1.165231  -1.179131  -0.149816
H    2.267879  -0.186098  0.798937
N    -0.612272  0.230992  2.038152
C    -1.633696  0.135643  3.109555
C    -1.014033  0.215302  4.523046
O    -0.322912  -0.744546  4.993442
H    -0.716368  1.023254  1.409531
H    -2.241067  1.041157  2.974757
C    -2.557046  -1.099950  2.974125
C    -3.476084  -1.118734  1.733002
C    -4.836307  -0.428043  1.930084
N    -5.674299  -0.635074  0.744359
C    -6.825619  0.012016  0.465245
N    -7.391627  -0.144146  -0.734973
N    -7.380606  0.831622  1.366839
H    -3.160560  -1.171830  3.892018
H    -1.931718  -2.001851  2.955127
H    -3.664028  -2.174580  1.487286
H    -2.961907  -0.691050  0.858830
H    -4.719016  0.656130  2.082574
H    -5.326138  -0.847215  2.825736
H    -5.464717  -1.443261  0.165693
H    -8.348087  0.146415  -0.910378
H    -6.891463  -0.558071  -1.513694
H    -8.170011  1.417407  1.113411
H    -7.200008  0.727404  2.357696
N    -1.266395  1.295916  5.239559
C    -0.812527  1.533591  6.614931
H    -1.799797  2.044170  4.802409
H    -1.599136  2.069862  7.155578
H    0.098149  2.146850  6.609353
H    -0.613864  0.578070  7.106065
Ca    0.999203  -2.319987  4.429249
