37
Energy: -39740.365064 eV PBE+vdW (tier 2 basis)
C    0.168651  1.000505  -0.184726
C    0.126731  0.416968  1.193257
O    1.079457  0.012183  1.814049
H    1.055798  1.637154  -0.288046
H    -0.730930  1.559149  -0.472865
H    0.293224  0.175388  -0.905631
N    -1.228469  0.342153  1.789972
C    -1.370589  -0.607152  2.955071
C    -2.861065  -0.619757  3.285760
O    -3.464559  0.517698  3.272582
H    -1.844546  0.024981  1.027383
H    -1.019908  -1.603129  2.646832
C    -0.584645  -0.124817  4.214829
C    -0.014620  -1.263201  5.083873
C    1.165534  -2.060164  4.495938
N    2.417023  -1.310883  4.353840
C    3.526832  -1.479426  5.105026
N    3.457646  -2.018204  6.326866
N    4.711027  -1.089824  4.620300
H    -1.255405  0.477865  4.849148
H    0.231419  0.532710  3.894694
H    -0.811357  -1.982708  5.331706
H    0.285304  -0.823522  6.045871
H    0.922261  -2.465613  3.503392
H    1.355126  -2.936169  5.129755
H    2.529775  -0.782688  3.492851
H    2.587351  -2.089646  6.837825
H    4.297091  -2.311037  6.816302
H    4.862794  -0.959027  3.626674
H    5.526808  -1.014008  5.219318
N    -3.472093  -1.734512  3.612128
C    -4.874890  -1.864864  4.031367
H    -2.932256  -2.597783  3.557512
H    -4.909879  -2.363614  5.007328
H    -5.413430  -2.477674  3.297759
H    -5.330459  -0.875146  4.100508
Ca    -2.689565  2.314843  2.530518
