37
Energy: -39742.1187986 eV PBE+vdW (tier 2 basis)
C    1.685768  1.299860  1.013497
C    1.066971  0.181726  1.784540
O    1.802100  -0.622929  2.441432
H    2.250620  1.946159  1.700423
H    0.963115  1.911978  0.464132
H    2.417387  0.880870  0.307938
N    -0.269795  0.061565  1.763674
C    -1.149363  -0.982463  2.341414
C    -1.058849  -1.074735  3.879953
O    -0.007287  -1.492827  4.464534
H    -0.753365  0.779654  1.229841
H    -2.161044  -0.619853  2.112749
C    -1.003563  -2.372996  1.671302
C    -1.597687  -2.417416  0.250015
C    -1.646277  -3.845833  -0.325330
N    -2.429360  -3.908125  -1.566304
C    -2.125588  -4.580697  -2.698260
N    -3.113327  -4.970622  -3.509166
N    -0.856473  -4.850370  -3.027516
H    -1.531547  -3.098737  2.309586
H    0.053926  -2.674769  1.664094
H    -1.036812  -1.762478  -0.432757
H    -2.626722  -2.023896  0.286515
H    -2.101306  -4.531407  0.407818
H    -0.637536  -4.228769  -0.520732
H    -3.403401  -3.627985  -1.486846
H    -2.931195  -5.248529  -4.468424
H    -4.074628  -5.035184  -3.192428
H    -0.643659  -5.481786  -3.792614
H    -0.082594  -4.324941  -2.643164
N    -2.141762  -0.753280  4.564417
C    -2.289279  -0.835904  6.021860
H    -2.945252  -0.400649  4.048383
H    -1.561388  -1.543457  6.425512
H    -3.303852  -1.177512  6.252121
H    -2.136580  0.154418  6.470601
Ca    2.110602  -1.565078  4.310191
