37
Energy: -39739.9194259 eV PBE+vdW (tier 2 basis)
C    -0.511580  1.045083  0.316736
C    -0.395822  0.974683  1.796358
O    0.526692  1.717402  2.370848
H    -0.777523  2.070561  0.020985
H    -1.252531  0.359438  -0.092927
H    0.467237  0.820108  -0.129767
N    -1.140768  0.228909  2.585946
C    -2.275291  -0.732579  2.439350
C    -1.874184  -2.202720  2.821790
O    -2.624604  -2.779036  3.595311
H    -0.885219  0.321807  3.571817
H    -2.914005  -0.454885  3.288713
C    -3.164158  -0.683079  1.178607
C    -4.559352  -1.255065  1.519298
C    -5.561520  -1.313075  0.350178
N    -5.493283  -2.517434  -0.489175
C    -6.288598  -3.599047  -0.363291
N    -6.425541  -4.441306  -1.395109
N    -6.935746  -3.844095  0.781082
H    -2.707255  -1.242102  0.348323
H    -3.288767  0.361059  0.853853
H    -5.005722  -0.617495  2.296982
H    -4.453887  -2.251355  1.971898
H    -5.445394  -0.449082  -0.318413
H    -6.582884  -1.242779  0.747534
H    -4.941190  -2.472598  -1.338571
H    -6.852969  -5.353521  -1.276416
H    -6.216662  -4.157180  -2.345343
H    -7.673432  -4.538910  0.824410
H    -6.684266  -3.391400  1.650327
N    -0.771447  -2.785134  2.284537
C    0.117403  -2.333040  1.224959
H    -0.636817  -3.735597  2.625750
H    -0.433684  -1.897037  0.382147
H    0.871497  -1.615475  1.583398
H    0.657603  -3.201945  0.836201
Ca    1.942995  3.013315  2.994658
