37
Energy: -39740.8332628 eV PBE+vdW (tier 2 basis)
C    -0.280380  -1.785939  -0.258503
C    0.014686  -0.822485  0.836980
O    1.186547  -0.894085  1.427880
H    0.461407  -1.667174  -1.061367
H    -1.279336  -1.662929  -0.684219
H    -0.185150  -2.812727  0.122561
N    -0.824213  0.094183  1.241631
C    -2.158627  0.478101  0.744575
C    -2.224365  1.974529  1.173856
O    -1.613154  2.295485  2.199495
H    -0.571660  0.764514  2.001684
H    -2.196796  0.364491  -0.347264
C    -3.250033  -0.381433  1.433593
C    -4.713783  -0.079205  1.038146
C    -5.474839  0.785317  2.053851
N    -6.890980  0.866433  1.676080
C    -7.805461  1.688456  2.224865
N    -9.034055  1.754893  1.699787
N    -7.482317  2.462767  3.268713
H    -3.120277  -0.285998  2.522151
H    -3.032459  -1.430851  1.192315
H    -5.235370  -1.043982  0.953221
H    -4.770628  0.382269  0.040570
H    -5.062187  1.804242  2.092746
H    -5.373254  0.334414  3.055666
H    -7.251162  0.128011  1.078686
H    -9.251976  1.349198  0.796978
H    -9.797154  2.204200  2.194189
H    -6.693085  2.244596  3.863848
H    -8.129127  3.164242  3.612990
N    -2.964600  2.796695  0.416086
C    -3.105460  4.229150  0.691911
H    -3.322236  2.450085  -0.468699
H    -2.469869  4.816593  0.017386
H    -2.800307  4.418665  1.724494
H    -4.148696  4.531986  0.549848
Ca    3.049279  -1.113307  2.141684
