37
Energy: -39741.9950292 eV PBE+vdW (tier 2 basis)
C    0.249035  -0.753725  -0.127128
C    -0.279449  -0.821888  1.263311
O    0.509507  -0.841827  2.260681
H    0.934638  -1.594723  -0.301369
H    0.847769  0.163613  -0.230505
H    -0.532151  -0.760182  -0.894210
N    -1.609877  -0.854674  1.456774
C    -2.277731  -0.805163  2.770273
C    -2.053781  -2.141141  3.529407
O    -1.039492  -2.193125  4.307288
H    -2.197769  -0.860664  0.626125
H    -1.712190  -0.083814  3.379863
C    -3.724694  -0.278112  2.647959
C    -3.769582  1.242481  2.396882
C    -5.151767  1.830513  2.072719
N    -6.035086  1.906844  3.245295
C    -7.357412  2.194455  3.180379
N    -8.077616  2.220689  4.306567
N    -7.951740  2.411723  2.003590
H    -4.258884  -0.530363  3.575299
H    -4.254137  -0.803050  1.839358
H    -3.130873  1.496911  1.537876
H    -3.332431  1.781196  3.253471
H    -5.650282  1.215965  1.308291
H    -4.997065  2.835979  1.648360
H    -5.590001  2.122973  4.133183
H    -9.016574  2.605155  4.324729
H    -7.714234  1.865615  5.183075
H    -8.961729  2.491715  1.938396
H    -7.426686  2.681003  1.180463
N    -2.821220  -3.208407  3.401592
C    -3.976555  -3.463520  2.533126
H    -2.537483  -3.987586  3.999494
H    -4.058167  -4.546594  2.399134
H    -3.835902  -3.011754  1.546957
H    -4.903897  -3.100859  2.992664
Ca    1.022510  -1.617660  4.173631
