37
Energy: -39740.4276666 eV PBE+vdW (tier 2 basis)
C    1.223447  1.334105  1.641413
C    0.768391  0.281584  0.690930
O    1.647104  -0.501274  0.120369
H    0.529377  1.468514  2.479689
H    1.292529  2.300388  1.114310
H    2.216017  1.094216  2.034176
N    -0.506867  0.125333  0.390609
C    -1.643587  0.952349  0.867664
C    -2.115671  0.661854  2.321815
O    -2.368530  1.655730  3.015261
H    -0.732591  -0.620916  -0.269957
H    -1.280086  1.985531  0.922331
C    -2.790711  0.869244  -0.164995
C    -4.136509  1.521605  0.211928
C    -4.213715  3.058772  0.291253
N    -3.924111  3.582701  1.628741
C    -4.493461  4.668784  2.170152
N    -4.388024  4.872596  3.491815
N    -5.168178  5.548380  1.417935
H    -3.000404  -0.192028  -0.374386
H    -2.424822  1.305610  -1.107306
H    -4.542485  1.084698  1.136201
H    -4.833999  1.216144  -0.579656
H    -5.239969  3.351176  0.029626
H    -3.546470  3.516156  -0.458992
H    -3.314588  3.017838  2.235233
H    -4.637808  5.759628  3.912909
H    -4.088349  4.131168  4.113132
H    -5.079249  5.569330  0.410365
H    -5.729959  6.277699  1.842366
N    -2.277422  -0.593289  2.775639
C    -2.132781  -1.872889  2.087551
H    -2.604922  -0.625714  3.740681
H    -2.682013  -2.629448  2.656652
H    -1.083888  -2.197245  2.031755
H    -2.575031  -1.849416  1.084272
Ca    3.304349  -1.426373  -0.596707
