37
Energy: -39739.9834459 eV PBE+vdW (tier 2 basis)
C    0.561593  -0.411070  0.485520
C    0.097718  0.052427  1.818598
O    1.000388  0.516407  2.653083
H    1.470777  -1.013572  0.612000
H    0.830547  0.458875  -0.133610
H    -0.181820  -1.000179  -0.051893
N    -1.151985  0.026869  2.236806
C    -2.491637  -0.264963  1.625159
C    -3.239685  -1.523315  2.154573
O    -4.467355  -1.458649  2.046453
H    -1.254495  0.365700  3.195685
H    -3.095845  0.542416  2.061651
C    -2.640862  -0.130911  0.088491
C    -2.576054  -1.398436  -0.790640
C    -3.910980  -2.126988  -1.056386
N    -4.917887  -1.289221  -1.715415
C    -6.184453  -1.082100  -1.287222
N    -7.119412  -0.734278  -2.181484
N    -6.499338  -1.187728  0.003949
H    -1.924345  0.622467  -0.264636
H    -3.619878  0.343576  -0.065738
H    -1.892462  -2.157106  -0.377738
H    -2.146633  -1.116354  -1.763265
H    -4.346923  -2.524757  -0.135444
H    -3.705521  -2.991979  -1.703482
H    -4.747305  -1.065422  -2.691889
H    -8.022662  -0.379476  -1.887449
H    -6.995556  -0.897061  -3.174149
H    -7.471390  -1.213860  0.290615
H    -5.789539  -1.248654  0.740089
N    -2.626728  -2.606664  2.668197
C    -1.216160  -2.967071  2.771612
H    -3.297058  -3.303409  2.992942
H    -1.161215  -4.033463  3.011013
H    -0.704223  -2.423479  3.577759
H    -0.688039  -2.824252  1.820885
Ca    2.603819  1.294683  3.617342
