37
Energy: -39740.6026346 eV PBE+vdW (tier 2 basis)
C    -1.116190  1.115400  1.617232
C    -0.744634  0.123201  2.669478
O    -0.318698  0.609117  3.810094
H    -1.277442  0.675751  0.632314
H    -0.336526  1.878533  1.525726
H    -2.052891  1.603529  1.931715
N    -1.163412  -1.162775  2.673554
C    -0.894523  -2.036064  1.519329
C    0.546852  -1.614259  1.045728
O    1.036682  -0.573535  1.524535
H    -0.991226  -1.616147  3.569874
H    -0.836120  -3.053330  1.934026
C    -1.951363  -2.023962  0.392174
C    -3.339001  -2.595754  0.756070
C    -3.479428  -4.107328  0.514999
N    -4.854746  -4.545156  0.777346
C    -5.499002  -5.557558  0.165545
N    -6.826123  -5.667573  0.295363
N    -4.828501  -6.440472  -0.584534
H    -1.536022  -2.576394  -0.464030
H    -2.082767  -1.000916  0.022717
H    -4.088986  -2.084454  0.137070
H    -3.583927  -2.353144  1.802441
H    -2.774356  -4.679796  1.141735
H    -3.252499  -4.328278  -0.538067
H    -5.361757  -4.072878  1.519595
H    -7.311751  -6.521659  0.042854
H    -7.397551  -4.893459  0.613735
H    -5.323545  -7.098482  -1.177290
H    -3.836236  -6.597319  -0.461519
N    1.163789  -2.393118  0.161398
C    2.506108  -2.126686  -0.368018
H    0.712906  -3.254549  -0.129789
H    2.687264  -1.048498  -0.360462
H    2.561905  -2.498987  -1.395496
H    3.269475  -2.628521  0.240048
Ca    0.761218  1.706940  5.094361
