37
Energy: -39740.5872642 eV PBE+vdW (tier 2 basis)
C    -0.223397  -3.198341  -0.626573
C    0.218751  -1.852903  -0.182696
O    0.960453  -1.136177  -0.994122
H    -0.641875  -3.791087  0.191725
H    0.634717  -3.739207  -1.047568
H    -0.966321  -3.083439  -1.431281
N    -0.090386  -1.315863  0.982902
C    -0.954478  -1.788085  2.115738
C    -0.326803  -3.023764  2.821482
O    -0.535685  -4.158792  2.367145
H    0.297530  -0.382876  1.125682
H    -0.932469  -0.932196  2.804260
C    -2.417929  -2.033569  1.705887
C    -3.394835  -2.031254  2.899581
C    -3.552002  -3.322590  3.716593
N    -4.277103  -4.380818  2.995491
C    -3.934283  -5.684716  2.933456
N    -4.897628  -6.604457  2.789068
N    -2.652942  -6.060215  2.985818
H    -2.499046  -2.976587  1.148107
H    -2.711620  -1.224899  1.022376
H    -4.385741  -1.744971  2.518121
H    -3.126339  -1.228397  3.603840
H    -4.120287  -3.083184  4.627752
H    -2.593815  -3.732190  4.052284
H    -5.255455  -4.183083  2.800565
H    -4.681827  -7.556311  2.514101
H    -5.862989  -6.406186  3.027329
H    -1.887561  -5.403851  2.805859
H    -2.415195  -7.034788  3.129300
N    0.403069  -2.764029  3.914913
C    1.056667  -3.796123  4.722654
H    0.472519  -1.804804  4.241937
H    2.040607  -3.436299  5.041241
H    1.173338  -4.699807  4.118620
H    0.459146  -4.026823  5.614299
Ca    2.065683  -0.345484  -2.491325
