37
Energy: -39741.9489686 eV PBE+vdW (tier 2 basis)
C    0.232604  0.952395  0.737480
C    -0.036017  -0.402398  1.302955
O    0.822908  -1.330821  1.169104
H    1.159169  1.352401  1.173065
H    -0.577487  1.670406  0.901845
H    0.414277  0.853505  -0.342689
N    -1.197281  -0.598562  1.949326
C    -1.799952  -1.833194  2.507741
C    -0.954539  -2.455528  3.634718
O    0.182658  -2.982119  3.392811
H    -1.789470  0.226043  2.011178
H    -2.729129  -1.476330  2.967827
C    -2.197005  -2.886838  1.440779
C    -3.241386  -2.343525  0.448325
C    -3.735182  -3.325344  -0.626437
N    -4.717163  -4.289673  -0.108544
C    -5.195994  -5.339474  -0.818202
N    -6.079495  -6.166383  -0.250148
N    -4.763510  -5.576026  -2.060533
H    -2.589228  -3.763628  1.978801
H    -1.302777  -3.227192  0.898787
H    -2.816253  -1.488602  -0.096273
H    -4.111193  -1.939435  0.993157
H    -2.887870  -3.887627  -1.046697
H    -4.182473  -2.731454  -1.440175
H    -5.327287  -3.956961  0.633068
H    -6.593910  -6.848387  -0.797970
H    -6.277379  -6.138787  0.743132
H    -5.023784  -6.428139  -2.547207
H    -4.337678  -4.850398  -2.624352
N    -1.433499  -2.483179  4.866344
C    -2.688492  -1.932686  5.401945
H    -0.831078  -2.963926  5.537640
H    -2.639447  -1.995187  6.492871
H    -3.553034  -2.517367  5.064368
H    -2.806757  -0.877607  5.130850
Ca    1.920131  -2.831974  2.176107
