37
Energy: -39742.0442191 eV PBE+vdW (tier 2 basis)
C    0.139156  2.142746  1.504906
C    -0.140152  0.712418  1.823053
O    0.742206  -0.176020  1.595100
H    1.048789  2.464286  2.030957
H    -0.681412  2.821439  1.759195
H    0.354358  2.225944  0.429207
N    -1.333404  0.401453  2.352428
C    -1.951959  -0.915549  2.641948
C    -1.155272  -1.735828  3.681296
O    -0.023176  -2.247554  3.401167
H    -1.948242  1.197160  2.507535
H    -2.905271  -0.648188  3.118878
C    -2.296205  -1.713766  1.359527
C    -3.223762  -2.911026  1.634566
C    -3.745652  -3.650554  0.390997
N    -4.814713  -2.911683  -0.296213
C    -5.309803  -3.240243  -1.513306
N    -6.260415  -2.476762  -2.061156
N    -4.829776  -4.292380  -2.183694
H    -1.373153  -2.051340  0.865945
H    -2.775640  -1.005037  0.668751
H    -4.085004  -2.593298  2.246570
H    -2.698333  -3.663402  2.241060
H    -4.113984  -4.637524  0.714684
H    -2.926520  -3.814083  -0.325039
H    -5.442735  -2.372578  0.293720
H    -6.786198  -2.787305  -2.871761
H    -6.500406  -1.567114  -1.684732
H    -5.103940  -4.462760  -3.146283
H    -4.350318  -5.050513  -1.713524
N    -1.718871  -1.918596  4.862298
C    -1.150814  -2.691440  5.972435
H    -2.612043  -1.463014  5.038463
H    -1.962768  -3.216798  6.485857
H    -0.658121  -2.017339  6.685563
H    -0.429377  -3.415020  5.585589
Ca    1.786304  -1.845154  2.338436
