37
Energy: -39740.2688907 eV PBE+vdW (tier 2 basis)
C    0.856132  -1.370149  2.208709
C    0.075077  -0.126600  2.434480
O    0.698434  0.923776  2.914544
H    1.094594  -1.823254  3.184333
H    1.808344  -1.119637  1.723936
H    0.326355  -2.115050  1.609195
N    -1.218791  -0.013084  2.206703
C    -2.235684  -0.967809  1.663751
C    -2.034824  -2.433205  2.128875
O    -1.667949  -3.302189  1.327868
H    -1.600647  0.912454  2.410935
H    -3.164506  -0.622413  2.142289
C    -2.462574  -0.789931  0.144190
C    -1.300361  -0.928895  -0.859195
C    -1.073399  -2.291340  -1.536151
N    -2.235127  -2.762443  -2.297956
C    -2.842757  -3.959923  -2.165742
N    -3.573660  -4.435449  -3.182668
N    -2.745772  -4.655461  -1.030061
H    -2.897335  0.212941  0.024349
H    -3.279195  -1.478937  -0.119403
H    -0.339904  -0.628018  -0.412245
H    -1.473666  -0.186499  -1.652114
H    -0.227774  -2.194613  -2.233022
H    -0.803425  -3.058548  -0.807177
H    -2.462389  -2.245452  -3.142796
H    -3.478146  -4.073367  -4.124398
H    -4.202268  -5.221070  -3.058076
H    -3.036141  -5.625714  -0.998355
H    -2.363014  -4.241923  -0.177429
N    -2.305321  -2.710166  3.418414
C    -2.902980  -1.848534  4.439709
H    -2.211398  -3.699396  3.646677
H    -2.955504  -2.414944  5.374027
H    -3.926078  -1.547968  4.174352
H    -2.293657  -0.955518  4.629710
Ca    1.963199  2.312129  3.673803
