37
Energy: -39742.0470678 eV PBE+vdW (tier 2 basis)
C    -1.279712  1.532053  0.904891
C    -0.828671  0.655009  2.023136
O    -0.217999  -0.433504  1.776284
H    -1.979176  0.962136  0.274961
H    -0.420835  1.784790  0.267831
H    -1.767274  2.454983  1.235150
N    -1.084139  1.045351  3.282231
C    -0.882792  0.324503  4.564435
C    0.616082  0.053054  4.834669
O    1.248552  -0.846519  4.195026
H    -1.561492  1.939962  3.364250
H    -1.223169  1.044319  5.321444
C    -1.755107  -0.949589  4.678300
C    -2.012314  -1.456801  6.116678
C    -3.280677  -0.868615  6.761476
N    -3.517428  -1.461641  8.080378
C    -4.721046  -1.660257  8.659531
N    -4.806525  -2.443897  9.738991
N    -5.825086  -1.100901  8.151352
H    -1.291644  -1.755310  4.094702
H    -2.710733  -0.735483  4.178763
H    -1.137340  -1.262628  6.759214
H    -2.124948  -2.548648  6.081885
H    -4.146828  -1.103955  6.126544
H    -3.213228  0.230035  6.843411
H    -2.706515  -1.672025  8.654241
H    -4.066921  -3.089050  9.992982
H    -5.634013  -2.443901  10.326686
H    -6.744010  -1.377661  8.482262
H    -5.785014  -0.269405  7.575169
N    1.207633  0.776073  5.769797
C    2.615252  0.663389  6.169555
H    0.661188  1.504035  6.224904
H    2.969907  -0.353486  5.983192
H    2.695922  0.892871  7.236658
H    3.226631  1.380078  5.605327
Ca    1.383468  -1.718364  2.240693
