37
Energy: -39742.155924 eV PBE+vdW (tier 2 basis)
C    0.492331  -0.753411  -0.152192
C    0.188951  -0.298052  1.233044
O    1.004174  0.445832  1.866433
H    1.465887  -1.262201  -0.169045
H    0.591784  0.133502  -0.796211
H    -0.270217  -1.416619  -0.573356
N    -0.967405  -0.675596  1.803491
C    -1.494318  -0.201680  3.099250
C    -0.689476  -0.854573  4.253935
O    0.416050  -0.322073  4.595069
H    -1.565811  -1.291050  1.256040
H    -1.258429  0.871613  3.169281
C    -3.029195  -0.369132  3.124948
C    -3.714359  0.343981  4.306934
C    -5.226510  0.090302  4.453768
N    -6.052982  0.853771  3.512323
C    -7.324059  1.251303  3.746726
N    -7.902470  2.120903  2.911003
N    -7.995937  0.802638  4.811163
H    -3.301666  -1.439191  3.112752
H    -3.395288  0.035504  2.168295
H    -3.533799  1.428184  4.253026
H    -3.263566  0.008172  5.252657
H    -5.516323  0.403447  5.465530
H    -5.439791  -0.988881  4.366208
H    -5.728025  0.963661  2.557679
H    -7.359725  2.695070  2.276495
H    -8.904262  2.282319  2.929835
H    -8.874600  1.229507  5.087726
H    -7.745566  -0.058912  5.281045
N    -1.141554  -1.946339  4.839145
C    -0.459923  -2.683811  5.910683
H    -2.020423  -2.332981  4.502990
H    -1.214158  -3.102121  6.584432
H    0.191837  -2.003847  6.464785
H    0.133492  -3.504187  5.486105
Ca    2.027328  0.776947  3.691006
