37
Energy: -39740.3014995 eV PBE+vdW (tier 2 basis)
C    -0.486754  -0.564634  -0.914116
C    -0.333207  -0.334523  0.553786
O    0.676674  -0.885977  1.178317
H    -1.358582  -0.052796  -1.334932
H    -0.595998  -1.641173  -1.112092
H    0.409391  -0.210404  -1.444075
N    -1.213257  0.409863  1.179809
C    -1.358616  0.799789  2.594535
C    -2.891366  0.690200  2.835217
O    -3.610524  1.335409  2.054967
H    -1.987024  0.787674  0.617921
H    -0.761674  0.126033  3.217771
C    -0.955457  2.288509  2.764774
C    -1.506729  2.929277  4.047064
C    -1.535113  4.463877  4.034853
N    -2.204071  5.121141  2.883808
C    -3.541026  5.224790  2.680355
N    -4.048942  6.390771  2.269705
N    -4.344085  4.169438  2.870248
H    -1.355809  2.831479  1.895672
H    0.139149  2.375967  2.718404
H    -0.905455  2.637591  4.920796
H    -2.521029  2.564866  4.258850
H    -0.511228  4.856874  4.019991
H    -1.996812  4.811707  4.969956
H    -1.672732  5.892820  2.491159
H    -4.974487  6.451113  1.856582
H    -3.554664  7.265656  2.411731
H    -5.350154  4.305396  2.861512
H    -4.020024  3.218046  2.678028
N    -3.358550  -0.047092  3.848965
C    -2.610572  -0.811505  4.848646
H    -4.376064  -0.060559  3.915197
H    -3.318601  -1.166850  5.602793
H    -1.868541  -0.187306  5.361715
H    -2.126632  -1.692828  4.406890
Ca    2.348261  -2.018642  1.369051
