37
Energy: -39740.5430754 eV PBE+vdW (tier 2 basis)
C    -1.018598  1.709445  0.685307
C    -0.278616  0.598894  1.353679
O    1.022987  0.669447  1.468966
H    -0.320978  2.416703  0.229011
H    -1.635248  2.261008  1.411986
H    -1.694180  1.331274  -0.093534
N    -0.901625  -0.455825  1.845372
C    -2.360351  -0.738801  1.811258
C    -2.868151  -1.250343  3.204931
O    -3.602460  -2.236355  3.268638
H    -0.310929  -1.173374  2.270345
H    -2.862704  0.221761  1.631021
C    -2.750940  -1.703440  0.680264
C    -2.154269  -3.129356  0.745984
C    -3.153371  -4.228788  0.363045
N    -4.218071  -4.312855  1.363940
C    -5.242732  -5.175479  1.334238
N    -6.156905  -5.146797  2.314611
N    -5.368802  -6.058696  0.335901
H    -2.503505  -1.233144  -0.281827
H    -3.848428  -1.745533  0.713140
H    -1.773905  -3.359339  1.752612
H    -1.300715  -3.215829  0.061121
H    -2.613662  -5.187002  0.301148
H    -3.581838  -4.015511  -0.630938
H    -4.145950  -3.660894  2.153097
H    -6.923556  -5.807941  2.347035
H    -6.081505  -4.492907  3.083415
H    -6.144288  -6.710038  0.301988
H    -4.684023  -6.129951  -0.404544
N    -2.480602  -0.543481  4.283044
C    -2.961332  -0.854929  5.634293
H    -2.016563  0.348295  4.148680
H    -2.328090  -0.339010  6.361453
H    -2.903041  -1.934865  5.801522
H    -4.002256  -0.531638  5.764258
Ca    2.984474  1.185475  1.407478
