37
Energy: -39739.9252953 eV PBE+vdW (tier 2 basis)
C    -0.231341  0.454166  2.468602
C    -1.250304  -0.419182  3.152462
O    -1.032987  -0.983882  4.208637
H    -0.584052  0.977469  1.573284
H    0.618411  -0.185026  2.186365
H    0.164145  1.184209  3.185130
N    -2.493528  -0.666751  2.508032
C    -3.329603  0.302376  1.797553
C    -3.020083  0.275747  0.287121
O    -3.573234  1.116629  -0.539122
H    -3.023250  -1.350373  3.049009
H    -4.354137  -0.111253  1.840568
C    -3.406449  1.724209  2.413775
C    -4.033261  1.799384  3.826577
C    -3.118196  1.340354  4.972650
N    -3.695492  1.623638  6.284452
C    -3.377249  0.946075  7.409455
N    -2.471470  -0.036895  7.383768
N    -3.997041  1.252648  8.554566
H    -4.031630  2.338027  1.749916
H    -2.411299  2.191458  2.415295
H    -4.979535  1.237964  3.857957
H    -4.297059  2.855345  3.991090
H    -2.131980  1.827711  4.879177
H    -2.957634  0.258400  4.923235
H    -4.161093  2.517424  6.413852
H    -2.340342  -0.640230  8.188533
H    -1.842395  -0.181740  6.601263
H    -4.817854  1.846453  8.575566
H    -3.680086  0.881605  9.443517
N    -2.234704  -0.673185  -0.149011
C    -1.862536  -0.948718  -1.534934
H    -1.893121  -1.285165  0.604227
H    -1.129859  -1.760598  -1.544039
H    -1.401172  -0.063766  -1.992410
H    -2.739041  -1.271167  -2.113582
Ca    -4.390801  2.221406  -2.025825
