37
Energy: -39741.0136637 eV PBE+vdW (tier 2 basis)
C    -0.271923  0.813356  1.099253
C    0.093940  -0.395181  1.888963
O    1.317969  -0.738304  1.961260
H    0.475512  1.584634  1.339225
H    -1.266842  1.200484  1.319705
H    -0.173894  0.626420  0.019225
N    -0.808321  -1.118935  2.618104
C    -1.987009  -1.838690  2.089461
C    -1.407006  -3.125105  1.421479
O    -0.252783  -3.066552  0.867614
H    -0.318588  -1.686690  3.313750
H    -2.570758  -2.133899  2.972166
C    -2.883615  -1.001872  1.142622
C    -4.272120  -1.585161  0.804405
C    -5.404015  -1.337519  1.817125
N    -5.945883  0.022895  1.687819
C    -6.851761  0.579759  2.526176
N    -7.237708  1.843077  2.326197
N    -7.326472  -0.107420  3.570765
H    -2.346753  -0.827600  0.200989
H    -3.014818  -0.020888  1.620369
H    -4.215505  -2.663788  0.615330
H    -4.580725  -1.169067  -0.166583
H    -5.054024  -1.469111  2.853223
H    -6.197039  -2.080995  1.633679
H    -5.901936  0.435003  0.759511
H    -8.043342  2.232340  2.805443
H    -6.760062  2.452893  1.672532
H    -7.909222  0.347231  4.267010
H    -7.316561  -1.119842  3.589600
N    -2.052571  -4.278192  1.444073
C    -3.289711  -4.680251  2.121040
H    -1.572295  -5.031197  0.945277
H    -3.079018  -5.565484  2.733491
H    -4.054402  -4.944636  1.380225
H    -3.662267  -3.884933  2.769978
Ca    1.853741  -2.541193  0.920536
