37
Energy: -39740.496235 eV PBE+vdW (tier 2 basis)
C    -0.870229  2.577410  1.275447
C    -0.458658  1.231243  1.778301
O    0.597095  1.201694  2.557334
H    -0.003642  3.112374  0.873428
H    -1.272384  3.144945  2.129945
H    -1.636956  2.544304  0.501052
N    -1.302387  0.168094  1.859434
C    -1.913044  -0.364172  0.630064
C    -0.773364  -0.232671  -0.437663
O    0.178358  0.530107  -0.157244
H    -0.926731  -0.563138  2.462082
H    -2.102479  -1.428336  0.831555
C    -3.236027  0.298322  0.183032
C    -4.427748  0.143629  1.151621
C    -5.297415  -1.096456  0.894090
N    -6.493652  -1.050030  1.743151
C    -7.387209  -2.044714  1.905139
N    -8.352844  -1.921799  2.822465
N    -7.295056  -3.166243  1.179416
H    -3.502444  -0.111626  -0.801309
H    -3.067726  1.365107  0.001422
H    -5.063100  1.033631  1.028497
H    -4.081531  0.151304  2.195838
H    -4.748880  -2.024960  1.117115
H    -5.588208  -1.115956  -0.170336
H    -6.759797  -0.141566  2.111183
H    -9.153549  -2.544369  2.833855
H    -8.329138  -1.196122  3.529381
H    -7.889074  -3.963546  1.381174
H    -6.798476  -3.185316  0.297701
N    -0.826750  -0.910583  -1.581523
C    -1.819859  -1.880585  -2.040884
H    -0.055722  -0.714749  -2.219529
H    -2.322384  -2.357418  -1.193046
H    -1.305283  -2.664231  -2.607132
H    -2.563009  -1.409352  -2.697839
Ca    2.472646  1.544976  3.173815
