37
Energy: -39739.4583672 eV PBE+vdW (tier 2 basis)
C    1.478556  0.973513  0.949265
C    0.946909  0.661791  2.318637
O    1.444783  1.100929  3.353598
H    1.009465  1.890800  0.563009
H    1.320194  0.159874  0.229573
H    2.551674  1.175953  1.031071
N    -0.185375  -0.124868  2.452859
C    -1.067070  -0.795691  1.530949
C    -1.715698  0.031549  0.416708
O    -1.955610  -0.615133  -0.700218
H    -0.323934  -0.421415  3.416939
H    -0.537259  -1.587734  0.969909
C    -2.146886  -1.510471  2.406523
C    -2.975517  -0.675994  3.411589
C    -2.312971  0.063979  4.595001
N    -1.377155  -0.786959  5.370838
C    -0.491132  -0.279219  6.294105
N    0.298320  0.743479  5.973982
N    -0.416790  -0.855259  7.495076
H    -1.598593  -2.304883  2.935014
H    -2.852729  -2.033895  1.747156
H    -3.712175  -1.381050  3.826982
H    -3.585592  0.073339  2.884861
H    -3.122015  0.420849  5.251147
H    -1.763815  0.953598  4.271709
H    -1.784534  -1.672918  5.666779
H    0.847170  1.192159  6.702313
H    0.619890  0.915467  5.002039
H    -1.170251  -1.425201  7.865866
H    0.371017  -0.686766  8.114715
N    -2.070846  1.294416  0.467250
C    -1.985129  2.293750  1.540677
H    -2.495449  1.646973  -0.393496
H    -1.486700  3.186974  1.145011
H    -1.424587  1.900424  2.385723
H    -3.001130  2.569208  1.850579
Ca    -2.211960  -1.656272  -2.422101
