37
Energy: -39742.0512288 eV PBE+vdW (tier 2 basis)
C    0.061717  -2.492195  1.527379
C    0.018991  -1.187744  2.246670
O    0.976786  -0.358778  2.139415
H    -0.797810  -3.137349  1.736378
H    0.987323  -3.026497  1.780209
H    0.102980  -2.289521  0.446316
N    -1.055363  -0.897670  3.000528
C    -1.355255  0.398891  3.631196
C    -0.509977  0.594322  4.917552
O    0.738471  0.805491  4.780054
H    -1.767774  -1.619708  3.066433
H    -0.951682  1.169288  2.955146
C    -2.880598  0.661450  3.700580
C    -3.831546  -0.428757  4.242002
C    -5.275783  0.112007  4.305083
N    -6.239046  -0.898767  4.755456
C    -7.493022  -1.091776  4.280840
N    -8.412494  -1.639050  5.080553
N    -7.820650  -0.763851  3.026892
H    -3.189286  0.901854  2.672542
H    -3.018776  1.597855  4.263331
H    -3.536661  -0.783452  5.243960
H    -3.826727  -1.319361  3.594093
H    -5.580433  0.478797  3.317565
H    -5.323064  0.980960  4.981411
H    -6.068584  -1.300687  5.673296
H    -8.306943  -1.656706  6.088985
H    -9.278496  -2.016748  4.708580
H    -8.790137  -0.766372  2.726712
H    -7.124512  -0.626318  2.305994
N    -1.079356  0.577233  6.106635
C    -0.398620  0.790915  7.389288
H    -2.081145  0.412307  6.142868
H    0.612090  1.160716  7.206752
H    -0.351249  -0.153255  7.946480
H    -0.961104  1.527387  7.974013
Ca    2.300734  0.817091  3.306814
