37
Energy: -39740.1560781 eV PBE+vdW (tier 2 basis)
C    1.047926  -0.264542  0.112016
C    0.717237  0.189105  1.507194
O    1.576945  0.536265  2.321329
H    0.177553  -0.405614  -0.538352
H    1.597108  -1.215252  0.169306
H    1.728815  0.464235  -0.344956
N    -0.628597  0.187874  1.826641
C    -1.275265  0.447798  3.110011
C    -1.954261  1.835091  3.154653
O    -3.229436  1.873439  3.471954
H    -1.247923  -0.132077  1.088244
H    -2.128821  -0.246304  3.155465
C    -0.465747  0.227735  4.422706
C    -0.156950  -1.235545  4.805026
C    0.994718  -1.971453  4.096532
N    2.313213  -1.363031  4.273809
C    3.339393  -1.860237  4.984131
N    3.153358  -2.799455  5.920779
N    4.576213  -1.398915  4.755789
H    -1.100888  0.631889  5.227014
H    0.444268  0.835704  4.419580
H    -1.060494  -1.853022  4.677588
H    0.049410  -1.231719  5.885683
H    0.811873  -2.052020  3.016980
H    1.027157  -3.006272  4.461547
H    2.502454  -0.573925  3.652454
H    3.939087  -3.294290  6.327816
H    2.236523  -3.022183  6.283902
H    4.799541  -0.878140  3.916135
H    5.340894  -1.596914  5.391335
N    -1.354737  2.972924  2.906910
C    0.042925  3.264082  2.563661
H    -1.956546  3.797179  2.956807
H    0.364260  4.120817  3.167183
H    0.100749  3.539465  1.502313
H    0.689733  2.405343  2.759355
Ca    -5.198259  1.985884  3.919625
