37
Energy: -39741.2858497 eV PBE+vdW (tier 2 basis)
C    0.545143  1.137114  -0.034884
C    0.402995  0.765462  1.395225
O    1.409187  0.756234  2.173183
H    1.073777  2.092375  -0.150923
H    -0.397537  1.143872  -0.588645
H    1.201102  0.376106  -0.492927
N    -0.802222  0.391842  1.908714
C    -2.010036  1.219352  1.793589
C    -1.683089  2.565549  2.509802
O    -0.718871  2.591796  3.357442
H    -0.710447  -0.042778  2.828903
H    -2.204680  1.418669  0.730720
C    -3.200704  0.412363  2.388028
C    -4.612253  0.926564  2.055584
C    -5.734174  -0.119961  2.166184
N    -6.068906  -0.487915  3.549037
C    -6.852378  -1.544230  3.877264
N    -7.093520  -1.804449  5.166627
N    -7.351333  -2.345137  2.932139
H    -3.063719  0.315835  3.476431
H    -3.083905  -0.597663  1.966944
H    -4.645175  1.255462  1.006994
H    -4.871436  1.809704  2.659464
H    -5.431484  -1.033704  1.633857
H    -6.622601  0.288433  1.657173
H    -6.048184  0.261355  4.235433
H    -6.576658  -1.350691  5.910195
H    -7.809710  -2.466374  5.447072
H    -7.432198  -2.050718  1.966471
H    -7.816974  -3.213167  3.177993
N    -2.340104  3.680044  2.244950
C    -3.359480  3.973668  1.231745
H    -2.042594  4.481226  2.806416
H    -3.092180  4.916652  0.741145
H    -4.343792  4.091507  1.700057
H    -3.402062  3.186915  0.475162
Ca    1.346111  2.115698  3.849019
