37
Energy: -39741.3768091 eV PBE+vdW (tier 2 basis)
C    0.021475  2.290681  3.719599
C    -0.278179  0.835769  3.714359
O    -0.399896  0.189957  4.803646
H    0.994176  2.406355  4.228365
H    -0.700624  2.849672  4.329625
H    0.108043  2.732231  2.722949
N    -0.388837  0.145296  2.543900
C    -1.317987  0.565421  1.492668
C    -2.734134  0.061035  1.930323
O    -2.921620  -0.333367  3.130801
H    -0.366407  -0.864481  2.693703
H    -1.388463  1.663708  1.545276
C    -0.824788  0.222114  0.067246
C    -0.617817  -1.263365  -0.276757
C    0.303836  -1.502339  -1.491020
N    -0.226208  -1.070839  -2.793168
C    -0.393852  -1.861867  -3.879479
N    -0.352589  -1.316377  -5.098876
N    -0.623378  -3.172315  -3.749451
H    0.129904  0.760382  -0.035659
H    -1.501859  0.697609  -0.660226
H    -1.582675  -1.770763  -0.427350
H    -0.117568  -1.779748  0.557865
H    0.547545  -2.569295  -1.557769
H    1.263182  -0.986758  -1.331155
H    -0.159659  -0.079113  -3.002157
H    -0.680350  -1.823295  -5.915172
H    0.091270  -0.420813  -5.270936
H    -0.906417  -3.585069  -2.870524
H    -0.564726  -3.794368  -4.549114
N    -3.725212  0.108667  1.064038
C    -5.124103  -0.231425  1.364291
H    -3.522533  0.461916  0.132214
H    -5.684246  -0.247001  0.425900
H    -5.564103  0.520635  2.030960
H    -5.178528  -1.218635  1.835103
Ca    -2.340206  -0.654186  5.203756
