37
Energy: -39741.5183993 eV PBE+vdW (tier 2 basis)
C    -0.046257  1.797451  1.176377
C    -0.075404  0.521391  1.948506
O    0.973538  -0.190139  2.046824
H    -0.626142  2.587485  1.664302
H    -0.460771  1.646231  0.165970
H    0.993759  2.120431  1.060758
N    -1.208225  0.083572  2.561481
C    -2.516751  -0.022337  1.891227
C    -2.308739  -0.892528  0.603481
O    -1.186857  -1.470476  0.402582
H    -1.019690  -0.697531  3.190604
H    -3.116158  -0.653474  2.567380
C    -3.302575  1.295204  1.700289
C    -3.560713  2.036979  3.024976
C    -4.442568  3.281701  2.827892
N    -4.690684  3.949552  4.108590
C    -5.730414  4.765868  4.382350
N    -5.957911  5.135494  5.646790
N    -6.545805  5.182713  3.406948
H    -4.276100  1.037783  1.254536
H    -2.802532  1.947945  0.972279
H    -2.600538  2.332865  3.476148
H    -4.052344  1.360463  3.740725
H    -5.414964  2.986318  2.406976
H    -3.962675  3.976004  2.117168
H    -3.956199  3.911146  4.808817
H    -6.582585  5.904115  5.867589
H    -5.539121  4.647946  6.430651
H    -7.412928  5.662094  3.627386
H    -6.248453  5.211409  2.439449
N    -3.314924  -1.062366  -0.227940
C    -3.284783  -1.922915  -1.420744
H    -4.193328  -0.594703  -0.019137
H    -4.241908  -1.823990  -1.938992
H    -3.139899  -2.970097  -1.129063
H    -2.477578  -1.610101  -2.092467
Ca    0.884745  -1.961371  0.815787
