37
Energy: -39740.57519 eV PBE+vdW (tier 2 basis)
C    -0.651904  0.995392  0.137798
C    -0.224190  1.061473  1.568010
O    0.560124  2.043407  1.946364
H    0.231442  0.911729  -0.512317
H    -1.190554  1.914888  -0.133870
H    -1.306079  0.141582  -0.066887
N    -0.637311  0.140947  2.398376
C    -0.388687  -0.127671  3.824086
C    -0.408552  -1.684413  3.852093
O    -1.231034  -2.242004  3.118697
H    -1.210578  -0.644049  2.028975
H    0.579696  0.292516  4.124683
C    -1.555718  0.468436  4.663139
C    -1.720804  -0.057028  6.106408
C    -2.708679  -1.229260  6.223104
N    -2.953565  -1.550916  7.633188
C    -3.579018  -2.656335  8.082657
N    -3.646389  -2.888084  9.398714
N    -4.101816  -3.538361  7.222149
H    -2.488006  0.293612  4.106043
H    -1.415874  1.557212  4.689710
H    -2.105494  0.777031  6.712186
H    -0.752988  -0.335995  6.549055
H    -2.319013  -2.127816  5.724258
H    -3.653498  -0.949495  5.726566
H    -2.826244  -0.801617  8.307116
H    -4.265382  -3.595049  9.780304
H    -3.093406  -2.359417  10.063177
H    -4.316143  -3.283843  6.266046
H    -4.466667  -4.427151  7.547578
N    0.441872  -2.296717  4.689562
C    0.538052  -3.753525  4.813226
H    1.117659  -1.734236  5.196638
H    1.522396  -4.098219  4.474529
H    -0.234942  -4.206104  4.186348
H    0.395641  -4.055618  5.857542
Ca    1.719033  3.676483  1.672850
