37
Energy: -39741.4108829 eV PBE+vdW (tier 2 basis)
C    -0.171898  0.488011  0.589942
C    -0.206397  0.132733  2.038188
O    0.838288  0.243549  2.754834
H    -1.011242  1.139317  0.318666
H    -0.237747  -0.414554  -0.038767
H    0.770955  0.994298  0.362503
N    -1.341482  -0.325610  2.630437
C    -2.173268  -1.403685  2.073458
C    -1.229376  -2.629068  1.835690
O    -0.040579  -2.616696  2.300831
H    -1.264743  -0.350530  3.647530
H    -2.820624  -1.704568  2.912673
C    -3.106813  -0.980266  0.900610
C    -4.547274  -1.521868  1.011511
C    -5.474714  -0.901946  -0.048534
N    -6.857033  -1.348599  0.142990
C    -7.828109  -1.325289  -0.796518
N    -8.999640  -1.914770  -0.539189
N    -7.615880  -0.749392  -1.985023
H    -2.662914  -1.246483  -0.069528
H    -3.153807  0.116523  0.929432
H    -4.937465  -1.281531  2.013938
H    -4.585510  -2.619387  0.916572
H    -5.152863  -1.205026  -1.055577
H    -5.412564  0.198179  0.011569
H    -7.169511  -1.495355  1.098533
H    -9.815863  -1.742088  -1.116993
H    -9.116007  -2.560681  0.233397
H    -8.283209  -0.863963  -2.741379
H    -6.910566  -0.034053  -2.112421
N    -1.695042  -3.681982  1.195097
C    -0.947220  -4.929650  0.976022
H    -2.649895  -3.645293  0.848680
H    -1.593747  -5.628620  0.439581
H    -0.658083  -5.371189  1.936842
H    -0.051729  -4.734990  0.374547
Ca    1.696823  -1.676131  3.223457
