37
Energy: -39739.9873476 eV PBE+vdW (tier 2 basis)
C    0.469015  -0.685205  0.360468
C    0.185918  -0.493220  1.823642
O    0.830590  -1.052772  2.713345
H    0.143293  -1.695177  0.071576
H    1.551967  -0.639454  0.196048
H    -0.030484  0.037197  -0.294732
N    -0.849812  0.373762  2.120197
C    -1.537842  0.587858  3.392494
C    -1.228873  1.952626  4.032236
O    -2.246121  2.619187  4.532361
H    -1.328532  0.760529  1.312064
H    -2.596734  0.695067  3.113610
C    -1.528699  -0.583436  4.430356
C    -0.359190  -0.712124  5.411513
C    -0.357167  -2.026983  6.212803
N    -0.439034  -3.288321  5.443325
C    0.620278  -3.968774  4.939469
N    1.634178  -3.303380  4.377228
N    0.632945  -5.303548  5.008134
H    -1.624428  -1.499347  3.830427
H    -2.468649  -0.500889  4.997968
H    -0.387678  0.092464  6.163869
H    0.592026  -0.615292  4.882305
H    -1.216555  -2.054560  6.894913
H    0.545390  -2.050731  6.838832
H    -1.246715  -3.866813  5.651601
H    1.454698  -2.435932  3.864251
H    2.492055  -3.797151  4.152356
H    0.064847  -5.808727  5.679987
H    1.261050  -5.856735  4.433680
N    -0.045541  2.511311  4.097352
C    1.268848  2.031492  3.648244
H    -0.033767  3.443570  4.515152
H    1.507713  2.482807  2.676308
H    1.288095  0.942778  3.571776
H    2.010125  2.362796  4.383612
Ca    -3.824132  3.724630  5.149195
