37
Energy: -39740.3923067 eV PBE+vdW (tier 2 basis)
C    0.630388  0.462150  0.013661
C    0.475569  0.300651  1.494025
O    1.433536  0.477752  2.279546
H    -0.274620  0.234041  -0.558869
H    1.445274  -0.187484  -0.332359
H    0.943463  1.493542  -0.198895
N    -0.766773  -0.028523  1.954737
C    -1.153970  -0.405071  3.319856
C    -0.892217  0.681575  4.372736
O    -1.849312  0.943742  5.232804
H    -1.493820  -0.133328  1.253305
H    -2.249187  -0.451974  3.281646
C    -0.701204  -1.847231  3.777798
C    0.607425  -2.450512  3.230746
C    1.887235  -2.145019  4.028566
N    3.110656  -2.516867  3.312698
C    3.858200  -3.621787  3.492572
N    3.381291  -4.676321  4.166713
N    5.101804  -3.660728  3.000671
H    -1.513394  -2.513250  3.460558
H    -0.711340  -1.877740  4.879162
H    0.750337  -2.153820  2.183443
H    0.459286  -3.539917  3.194970
H    1.882697  -2.656017  5.001436
H    1.970807  -1.071685  4.234978
H    3.456894  -1.842811  2.636229
H    3.995685  -5.433047  4.447458
H    2.389033  -4.826040  4.292148
H    5.593913  -2.818755  2.724401
H    5.609321  -4.535141  2.916741
N    0.244083  1.310171  4.409292
C    0.606703  2.374251  5.340990
H    0.908289  1.013753  3.606197
H    1.636084  2.679258  5.133422
H    0.548606  2.022401  6.379535
H    -0.042426  3.250340  5.203820
Ca    -3.311027  1.582369  6.460475
