37
Energy: -39741.9612629 eV PBE+vdW (tier 2 basis)
C    0.152836  -0.773569  -0.520833
C    -0.298272  -0.816751  0.897656
O    0.533754  -0.686004  1.850925
H    -0.658279  -0.909946  -1.243489
H    0.918077  -1.544868  -0.686260
H    0.641032  0.194959  -0.705333
N    -1.604911  -0.989890  1.163664
C    -2.210904  -0.941880  2.506828
C    -1.786674  -2.192560  3.324306
O    -0.743478  -2.071350  4.054806
H    -2.226677  -1.111476  0.367161
H    -1.714391  -0.120318  3.045386
C    -3.717870  -0.609876  2.433893
C    -3.987254  0.869449  2.091344
C    -5.456901  1.206615  1.767011
N    -6.373384  1.254952  2.914320
C    -7.009303  2.358340  3.370387
N    -8.145186  2.221733  4.061986
N    -6.509903  3.579522  3.154388
H    -4.163292  -0.862616  3.407608
H    -4.210133  -1.255479  1.691262
H    -3.408372  1.152693  1.198347
H    -3.629575  1.513745  2.909033
H    -5.864268  0.481389  1.046616
H    -5.500258  2.178592  1.260169
H    -6.766701  0.374057  3.229656
H    -8.534660  2.993653  4.593837
H    -8.709104  1.380877  4.005245
H    -7.069414  4.409221  3.322730
H    -5.552093  3.726751  2.864580
N    -2.414623  -3.354118  3.289936
C    -3.560899  -3.806332  2.492808
H    -2.009434  -4.053715  3.915668
H    -3.525924  -3.392703  1.480918
H    -4.507965  -3.547420  2.981365
H    -3.500870  -4.896262  2.413584
Ca    1.226273  -1.274410  3.774490
