37
Energy: -39741.3576241 eV PBE+vdW (tier 2 basis)
C    -0.042424  -0.178419  -0.703372
C    0.097429  0.070192  0.756510
O    1.244011  0.096312  1.303246
H    0.483598  0.591181  -1.286251
H    -1.078735  -0.258997  -1.041776
H    0.477838  -1.124360  -0.923699
N    -0.997645  0.260419  1.542783
C    -2.030347  1.252485  1.220889
C    -1.322400  2.642712  1.146129
O    -0.127377  2.757440  1.596005
H    -0.765274  0.245397  2.538331
H    -2.458340  1.024007  0.234088
C    -3.124738  1.244877  2.315657
C    -3.962656  -0.041055  2.476196
C    -5.133570  -0.196430  1.481055
N    -6.215748  -1.035055  2.011004
C    -6.675819  -2.203454  1.518974
N    -7.923672  -2.586214  1.800641
N    -5.899882  -2.979325  0.747898
H    -3.795781  2.098563  2.146723
H    -2.629051  1.457650  3.276247
H    -4.387468  -0.000228  3.489340
H    -3.322031  -0.935392  2.462520
H    -4.817450  -0.613529  0.516410
H    -5.571735  0.790709  1.265314
H    -6.788272  -0.614913  2.738471
H    -8.623039  -1.931897  2.135663
H    -8.221475  -3.549366  1.680619
H    -6.296795  -3.771333  0.252939
H    -4.891477  -2.950931  0.822785
N    -1.931547  3.691821  0.629665
C    -3.259693  3.798677  0.017630
H    -1.393084  4.560047  0.670866
H    -3.965038  4.263098  0.718912
H    -3.631203  2.817717  -0.290425
H    -3.180387  4.435021  -0.870808
Ca    1.865175  2.036025  2.035317
