37
Energy: -39740.6757578 eV PBE+vdW (tier 2 basis)
C    0.208936  -0.081249  0.456001
C    -0.244146  -0.190086  1.869913
O    0.638939  -0.549691  2.777185
H    0.667924  -1.029451  0.143310
H    0.985631  0.693688  0.377362
H    -0.600810  0.163544  -0.236031
N    -1.463551  0.055370  2.264658
C    -2.590769  0.702711  1.569945
C    -3.290554  1.424263  2.769413
O    -3.009969  1.014387  3.910096
H    -1.723767  0.072032  3.290414
H    -2.201593  1.431563  0.847937
C    -3.555752  -0.268983  0.841970
C    -4.263521  -1.302268  1.740478
C    -5.646920  -1.755961  1.257851
N    -5.609236  -2.524060  0.004294
C    -6.700018  -2.832002  -0.730005
N    -6.552306  -3.482247  -1.890756
N    -7.919438  -2.464689  -0.323848
H    -3.003132  -0.762145  0.029021
H    -4.303574  0.366376  0.345004
H    -4.435510  -0.879220  2.741083
H    -3.621108  -2.181254  1.905056
H    -6.282946  -0.873234  1.093323
H    -6.106254  -2.359637  2.057686
H    -4.790296  -3.101756  -0.159185
H    -7.347122  -3.885175  -2.375204
H    -5.649463  -3.572478  -2.340522
H    -8.723817  -2.563580  -0.934422
H    -8.111341  -2.229340  0.642208
N    -4.165078  2.406073  2.534270
C    -4.538185  3.042455  1.272170
H    -4.587151  2.784283  3.382385
H    -5.494845  2.656482  0.895337
H    -3.764726  2.899184  0.510836
H    -4.643128  4.120201  1.437411
Ca    2.115761  -0.872950  4.094226
