37
Energy: -39740.6816423 eV PBE+vdW (tier 2 basis)
C    0.928545  -0.209473  2.051260
C    -0.226804  0.728564  2.069834
O    0.017242  2.017371  1.960817
H    1.444648  -0.138767  1.082635
H    0.635368  -1.249211  2.217277
H    1.651297  0.084064  2.824994
N    -1.470080  0.351186  2.182678
C    -2.107042  -0.978894  2.155714
C    -3.467824  -0.612497  1.467092
O    -3.881468  0.540934  1.667553
H    -2.263963  1.041685  2.135244
H    -1.504906  -1.670778  1.555551
C    -2.320366  -1.507379  3.602290
C    -3.184868  -2.776666  3.691066
C    -3.565909  -3.221165  5.110471
N    -2.472899  -3.910573  5.813570
C    -2.529263  -4.283180  7.111016
N    -1.492136  -4.928462  7.658841
N    -3.594007  -3.981199  7.860039
H    -2.803038  -0.702452  4.177350
H    -1.330189  -1.671998  4.053998
H    -2.713609  -3.617316  3.156777
H    -4.139981  -2.597029  3.179329
H    -4.437390  -3.891310  5.031333
H    -3.864400  -2.345965  5.706866
H    -1.827062  -4.439410  5.234415
H    -1.565299  -5.369590  8.569078
H    -0.608456  -5.027293  7.174456
H    -4.478744  -3.713334  7.447198
H    -3.593402  -4.148743  8.860609
N    -4.123844  -1.509301  0.721622
C    -3.740512  -2.851744  0.290981
H    -5.004894  -1.149382  0.352524
H    -3.833700  -2.924336  -0.799022
H    -4.390431  -3.610038  0.746247
H    -2.702585  -3.070508  0.557091
Ca    0.456370  3.943950  1.626590
