37
Energy: -39741.9813024 eV PBE+vdW (tier 2 basis)
C    0.243218  -0.720272  -0.145914
C    -0.280687  -0.817019  1.244520
O    0.507533  -0.787610  2.242158
H    0.975537  -1.521242  -0.318954
H    0.788880  0.229413  -0.250396
H    -0.536191  -0.772424  -0.913065
N    -1.606879  -0.929672  1.437709
C    -2.274989  -0.921922  2.751491
C    -1.967316  -2.241069  3.511214
O    -0.954300  -2.227264  4.292206
H    -2.193269  -0.973142  0.607067
H    -1.757174  -0.165350  3.360630
C    -3.753704  -0.489137  2.630137
C    -3.899003  1.026511  2.377720
C    -5.307876  1.512738  1.992992
N    -6.226021  1.639456  3.130682
C    -7.274602  2.490646  3.183811
N    -7.909040  2.677795  4.346883
N    -7.669182  3.157443  2.095129
H    -4.261121  -0.784366  3.560780
H    -4.248263  -1.048565  1.822466
H    -3.248142  1.316291  1.539065
H    -3.541767  1.596896  3.248568
H    -5.737803  0.850517  1.222120
H    -5.203427  2.511929  1.549215
H    -6.174106  0.956084  3.878254
H    -8.809994  3.143233  4.385788
H    -7.483259  2.433753  5.233348
H    -8.332149  3.922932  2.166628
H    -7.440776  2.843826  1.159625
N    -2.663744  -3.355746  3.380969
C    -3.796262  -3.686562  2.507872
H    -2.332568  -4.114773  3.980506
H    -4.748276  -3.395453  2.967939
H    -3.799991  -4.771719  2.365750
H    -3.686945  -3.218639  1.525357
Ca    1.067657  -1.524518  4.157728
