37
Energy: -39739.5787362 eV PBE+vdW (tier 2 basis)
C    -0.055129  1.201660  -1.052125
C    0.152719  1.358456  0.428283
O    1.233981  1.658331  0.930040
H    0.825522  1.581178  -1.577892
H    -0.945312  1.737346  -1.412090
H    -0.169436  0.136837  -1.307000
N    -0.922074  1.165836  1.284006
C    -2.226513  0.606102  1.063958
C    -3.262608  1.541735  0.417374
O    -4.249364  0.965611  -0.227699
H    -0.621363  1.179770  2.262518
H    -2.179272  -0.228197  0.341568
C    -2.756131  -0.001908  2.402840
C    -2.649052  0.851699  3.697044
C    -1.456732  0.575928  4.640892
N    -0.178451  1.132593  4.161389
C    1.060472  0.572218  4.374155
N    2.059250  1.015545  3.619232
N    1.224287  -0.399509  5.272837
H    -3.807262  -0.285928  2.256316
H    -2.213172  -0.948356  2.537878
H    -3.540141  0.632336  4.300907
H    -2.722093  1.930666  3.486972
H    -1.329637  -0.509276  4.751316
H    -1.702022  0.983064  5.633117
H    -0.137032  2.147992  4.086214
H    3.025176  0.796675  3.845991
H    1.857824  1.425592  2.690728
H    2.091779  -0.927107  5.315205
H    0.594642  -0.504456  6.061563
N    -3.231272  2.854129  0.428105
C    -2.290214  3.809381  1.041528
H    -3.983909  3.297518  -0.101420
H    -1.922696  3.439790  1.997237
H    -1.446920  3.995560  0.364745
H    -2.835482  4.745499  1.198376
Ca    -5.717030  0.049327  -1.284760
