37
Energy: -39740.0975404 eV PBE+vdW (tier 2 basis)
C    0.471593  1.086729  0.427852
C    0.147322  0.449884  1.750664
O    0.935227  0.426860  2.692902
H    0.888980  2.085341  0.604909
H    -0.379440  1.168173  -0.257617
H    1.260705  0.494918  -0.057976
N    -1.130971  -0.104620  1.839059
C    -1.584969  -1.036935  2.870792
C    -3.102715  -1.219574  2.831449
O    -3.550049  -2.446969  2.959112
H    -1.595855  -0.192283  0.938728
H    -1.200356  -2.048532  2.647671
C    -1.110859  -0.737843  4.332164
C    -1.291062  0.694183  4.868577
C    -0.295802  1.049511  5.984039
N    1.056411  1.174232  5.438203
C    2.126528  1.630314  6.105295
N    3.288687  1.776169  5.454356
N    2.049036  1.939011  7.405627
H    -1.629453  -1.451556  4.991646
H    -0.053709  -1.022033  4.353387
H    -2.302038  0.832709  5.275323
H    -1.170070  1.433366  4.065715
H    -0.321671  0.280708  6.775257
H    -0.608500  2.004991  6.433361
H    1.173332  0.942406  4.445885
H    3.357977  1.599235  4.459672
H    4.131699  2.076659  5.928966
H    2.841294  2.328581  7.903348
H    1.200892  1.804302  7.939103
N    -3.992081  -0.262224  2.700381
C    -3.842544  1.196617  2.584200
H    -4.963103  -0.582330  2.700928
H    -4.255219  1.665481  3.486237
H    -2.794379  1.465845  2.462903
H    -4.421398  1.534131  1.715949
Ca    -4.141150  -4.383093  3.029849
