37
Energy: -39742.2078917 eV PBE+vdW (tier 2 basis)
C    -0.650878  0.259703  -0.632035
C    -1.054394  1.199799  0.450269
O    -1.185516  2.444098  0.215848
H    0.289139  0.600780  -1.086891
H    -1.413311  0.294858  -1.425041
H    -0.535698  -0.775276  -0.294063
N    -1.289928  0.713380  1.679341
C    -1.849691  1.460225  2.825691
C    -0.769814  2.414741  3.396032
O    -0.599785  3.544152  2.832206
H    -1.150846  -0.287363  1.806254
H    -2.630668  2.126464  2.427292
C    -2.501596  0.458451  3.800620
C    -3.395544  1.080402  4.889599
C    -4.022484  -0.011145  5.780523
N    -4.848876  0.537256  6.861291
C    -6.106323  0.165881  7.191645
N    -6.529658  0.345179  8.446277
N    -6.935192  -0.362655  6.284212
H    -1.732298  -0.188930  4.257853
H    -3.113651  -0.216621  3.182079
H    -4.194053  1.677810  4.424860
H    -2.815611  1.771415  5.521398
H    -3.231720  -0.631328  6.232251
H    -4.637589  -0.694803  5.182422
H    -4.357844  1.065493  7.577253
H    -5.883716  0.469304  9.218207
H    -7.516837  0.310520  8.680517
H    -7.808240  -0.794615  6.568547
H    -6.791025  -0.239975  5.290620
N    -0.037065  2.039178  4.426170
C    1.047928  2.823660  5.029074
H    -0.206416  1.113437  4.812374
H    0.856283  3.889125  4.878688
H    2.009496  2.551936  4.574041
H    1.087592  2.603800  6.100268
Ca    -0.746172  4.406662  0.867310
