37
Energy: -39740.5920313 eV PBE+vdW (tier 2 basis)
C    0.367641  1.635967  1.094320
C    -0.131014  0.777389  2.201803
O    0.658979  0.639524  3.240884
H    -0.307558  1.689199  0.242654
H    1.334143  1.258390  0.740983
H    0.514963  2.651932  1.494943
N    -1.366588  0.298608  2.326740
C    -2.231527  -0.212832  1.247224
C    -1.357706  -1.305757  0.531472
O    -0.139024  -1.109969  0.480639
H    -1.538540  -0.144137  3.229099
H    -3.084720  -0.657205  1.774700
C    -2.774637  0.864567  0.269802
C    -4.103022  0.485365  -0.408553
C    -4.640909  1.639980  -1.268148
N    -5.892944  1.255351  -1.928410
C    -6.812425  2.105538  -2.425214
N    -7.997430  1.632320  -2.828027
N    -6.560431  3.417956  -2.494171
H    -2.028948  1.077318  -0.507893
H    -2.915743  1.788538  0.850223
H    -4.857246  0.221278  0.348311
H    -3.956525  -0.395678  -1.051143
H    -3.886115  1.930017  -2.018682
H    -4.845052  2.514587  -0.633017
H    -6.016000  0.274928  -2.161824
H    -8.625321  2.193493  -3.393364
H    -8.321025  0.708926  -2.564590
H    -7.298363  4.076546  -2.719739
H    -5.614412  3.778065  -2.496013
N    -1.948924  -2.381787  -0.012309
C    -3.314585  -2.887389  0.100828
H    -1.287812  -2.988532  -0.497798
H    -3.289941  -3.922175  0.463654
H    -3.818509  -2.877765  -0.874304
H    -3.900589  -2.296416  0.809891
Ca    2.266624  0.438878  4.428185
