37
Energy: -39739.867412 eV PBE+vdW (tier 2 basis)
C    -0.222518  -1.158216  0.421438
C    -0.162692  -0.446968  1.745737
O    0.746202  -0.549129  2.545129
H    -0.669883  -0.549944  -0.374933
H    -0.800918  -2.090903  0.511191
H    0.795725  -1.437946  0.133603
N    -1.234622  0.436151  2.075028
C    -2.636486  0.187860  1.768388
C    -3.237028  1.386514  1.013108
O    -4.470313  1.371948  0.592209
H    -1.087943  0.762021  3.032867
H    -2.712804  -0.657635  1.064194
C    -3.399779  -0.171005  3.068722
C    -2.969211  -1.552030  3.627205
C    -2.699042  -1.605434  5.141852
N    -1.428347  -0.991399  5.561029
C    -0.215522  -1.595137  5.505048
N    -0.093648  -2.833489  5.014490
N    0.863974  -0.930590  5.919090
H    -4.484519  -0.161182  2.896387
H    -3.201188  0.630606  3.798535
H    -2.072630  -1.911533  3.103025
H    -3.754557  -2.288773  3.411227
H    -2.750522  -2.649077  5.488277
H    -3.488942  -1.086046  5.698548
H    -1.496931  -0.229857  6.228551
H    -0.879972  -3.471641  5.001091
H    0.823803  -3.249841  4.894422
H    1.768562  -1.383759  5.991483
H    0.842946  0.066427  6.096931
N    -2.449738  2.402760  0.784986
C    -2.763320  3.642195  0.078242
H    -1.492688  2.234511  1.131948
H    -1.997685  4.385123  0.320576
H    -3.736548  4.031438  0.400727
H    -2.755121  3.479014  -1.008286
Ca    -6.297440  1.489060  -0.270019
