37
Energy: -39740.2107813 eV PBE+vdW (tier 2 basis)
C    0.916489  -0.551902  0.379623
C    0.551495  -0.458036  1.831775
O    1.379138  -0.438849  2.741895
H    0.057854  -0.527466  -0.300948
H    1.480690  -1.480268  0.216521
H    1.597130  0.270771  0.122676
N    -0.811752  -0.395218  2.129047
C    -1.196111  -0.130033  3.502346
C    -2.279739  -1.081659  3.990093
O    -3.009200  -1.768974  3.153098
H    -1.414477  -0.052794  1.385574
H    -0.284556  -0.390616  4.073473
C    -1.533436  1.365457  3.809682
C    -0.316853  2.221706  4.223349
C    0.529125  2.799983  3.072237
N    1.681492  3.558621  3.553100
C    2.946051  3.108285  3.669926
N    3.248973  1.822661  3.460059
N    3.913287  3.972013  4.003988
H    -2.270484  1.415391  4.621663
H    -2.043484  1.796874  2.934101
H    0.333283  1.643462  4.897249
H    -0.693023  3.066101  4.818299
H    -0.078791  3.483631  2.463500
H    0.895689  2.023749  2.391875
H    1.513671  4.517413  3.841389
H    4.219196  1.532399  3.417932
H    2.553086  1.096895  3.289321
H    3.757205  4.973285  4.014320
H    4.853823  3.658614  4.214823
N    -2.500682  -1.239521  5.277454
C    -1.783841  -0.651447  6.416915
H    -3.278883  -1.852008  5.524694
H    -1.756877  -1.395339  7.220158
H    -2.310638  0.241037  6.778631
H    -0.759059  -0.392250  6.138367
Ca    -3.946493  -3.056291  1.909497
