37
Energy: -39739.8804864 eV PBE+vdW (tier 2 basis)
C    -0.380479  1.772883  0.170293
C    -0.130412  1.271829  1.562324
O    0.901810  1.482422  2.184405
H    0.295960  2.609096  -0.031364
H    -1.417624  2.094823  0.008119
H    -0.146543  0.980158  -0.557608
N    -1.140473  0.536922  2.214538
C    -2.185793  -0.271512  1.614538
C    -3.546207  0.443768  1.672279
O    -4.566827  -0.027230  1.013906
H    -0.740927  0.111621  3.055377
H    -1.993700  -0.429931  0.540536
C    -2.225291  -1.673735  2.291348
C    -2.232684  -1.717260  3.845089
C    -0.914364  -2.128649  4.535380
N    0.109973  -1.069961  4.516468
C    1.463194  -1.282988  4.414932
N    1.978246  -2.502583  4.579688
N    2.221374  -0.234025  4.113088
H    -1.355560  -2.222300  1.902996
H    -3.101963  -2.214616  1.909768
H    -2.968455  -2.469467  4.159071
H    -2.599834  -0.773351  4.281076
H    -0.500579  -3.007089  4.022859
H    -1.138836  -2.424489  5.571013
H    -0.112720  -0.227245  5.044548
H    2.947410  -2.692989  4.341028
H    1.503024  -3.209562  5.130708
H    1.813358  0.554676  3.590374
H    3.231233  -0.267658  4.217648
N    -3.631134  1.536258  2.382954
C    -4.796879  2.394116  2.589656
H    -2.726511  1.806836  2.792404
H    -4.656939  2.955479  3.518488
H    -5.705276  1.788804  2.680827
H    -4.896621  3.110512  1.762778
Ca    -6.137318  -0.603525  -0.129623
