37
Energy: -39741.9790372 eV PBE+vdW (tier 2 basis)
C    1.914317  0.665903  0.661068
C    0.881644  -0.335110  1.056834
O    0.994634  -1.547844  0.691407
H    1.965848  0.700132  -0.437404
H    2.901642  0.330629  1.008158
H    1.723590  1.674315  1.042518
N    -0.156456  0.083245  1.801113
C    -1.376364  -0.639566  2.237972
C    -1.052812  -1.817402  3.184049
O    -0.472389  -2.866567  2.756337
H    -0.118218  1.063725  2.067858
H    -1.921075  0.107351  2.832178
C    -2.290682  -1.085267  1.068929
C    -2.802167  0.067985  0.177611
C    -4.084856  0.794638  0.614280
N    -5.289427  0.023726  0.272449
C    -6.553509  0.399821  0.577835
N    -7.574062  -0.392833  0.237030
N    -6.781931  1.532056  1.251702
H    -3.132141  -1.648491  1.500654
H    -1.738830  -1.797088  0.440893
H    -2.949532  -0.315116  -0.843388
H    -2.017562  0.829686  0.066272
H    -4.105038  1.772804  0.106520
H    -4.090715  0.983448  1.699533
H    -5.203427  -0.623775  -0.506023
H    -8.534545  -0.068292  0.283067
H    -7.429820  -1.337911  -0.099017
H    -7.715542  1.760965  1.578474
H    -6.105214  2.285329  1.270531
N    -1.436412  -1.709579  4.443527
C    -1.260166  -2.733014  5.480422
H    -1.867449  -0.835847  4.737478
H    -2.132334  -2.715543  6.141909
H    -0.360409  -2.517773  6.071680
H    -1.171166  -3.716954  5.013910
Ca    0.940131  -3.565557  1.316932
