37
Energy: -39741.9839778 eV PBE+vdW (tier 2 basis)
C    -0.084621  -0.610816  -0.290903
C    -0.275062  -0.366665  1.165031
O    0.664127  0.116483  1.874803
H    0.158715  0.345113  -0.778516
H    -0.960672  -1.049102  -0.779854
H    0.782756  -1.268434  -0.442376
N    -1.460654  -0.655702  1.729015
C    -1.828935  -0.339546  3.120792
C    -1.019111  -1.238015  4.095996
O    0.055661  -0.740262  4.577316
H    -2.183868  -1.033939  1.120687
H    -1.435067  0.666441  3.331303
C    -3.364320  -0.277464  3.270844
C    -3.829597  0.116467  4.683279
C    -5.352916  0.144071  4.890658
N    -6.001941  1.284374  4.228958
C    -7.340033  1.401804  4.052867
N    -7.822461  2.463121  3.398598
N    -8.172750  0.452935  4.490855
H    -3.822315  -1.232969  2.980124
H    -3.713537  0.465840  2.537903
H    -3.403960  1.091965  4.970339
H    -3.441186  -0.598828  5.423939
H    -5.545355  0.173344  5.975404
H    -5.800694  -0.779130  4.493655
H    -5.488040  2.161316  4.228563
H    -8.812836  2.684427  3.408090
H    -7.222239  3.083780  2.868464
H    -9.155535  0.466960  4.236299
H    -7.909321  -0.192337  5.225754
N    -1.357477  -2.474040  4.420303
C    -2.463370  -3.318233  3.954060
H    -0.717871  -2.910613  5.087551
H    -2.171549  -4.362208  4.104926
H    -2.650043  -3.171645  2.886393
H    -3.376122  -3.130978  4.533312
Ca    1.753561  0.238880  3.693338
