37
Energy: -39739.6162941 eV PBE+vdW (tier 2 basis)
C    0.209948  1.180334  0.818050
C    -0.100678  1.788894  2.154974
O    0.724924  1.894100  3.058843
H    1.278787  1.314701  0.620358
H    -0.362194  1.607461  -0.013982
H    0.020971  0.095760  0.843296
N    -1.392329  2.270601  2.399040
C    -2.600892  1.618173  1.915859
C    -3.733085  2.647408  1.785784
O    -4.934505  2.385852  2.234933
H    -1.452717  2.673894  3.334333
H    -2.410587  1.306408  0.872412
C    -2.927168  0.329338  2.713910
C    -2.907532  0.441677  4.261121
C    -1.932174  -0.502958  4.988609
N    -0.534266  -0.155964  4.739743
C    0.534984  -0.945795  4.976353
N    1.738400  -0.519618  4.582167
N    0.390959  -2.144873  5.553480
H    -3.878043  -0.094921  2.361266
H    -2.166388  -0.397156  2.395026
H    -3.901126  0.205711  4.665942
H    -2.703314  1.472307  4.593298
H    -2.105791  -1.536888  4.651992
H    -2.157388  -0.461250  6.066931
H    -0.295443  0.807989  4.504188
H    2.589634  -0.967872  4.902267
H    1.825374  0.336790  4.036469
H    1.182081  -2.773324  5.646242
H    -0.435606  -2.383696  6.086839
N    -3.533755  3.803276  1.191209
C    -2.340173  4.314467  0.494346
H    -4.335865  4.434036  1.180865
H    -1.857929  3.519260  -0.080289
H    -2.675834  5.097363  -0.192850
H    -1.628582  4.739407  1.211340
Ca    -6.898140  2.067542  2.635072
