37
Energy: -39740.4880628 eV PBE+vdW (tier 2 basis)
C    1.185386  1.632609  2.099177
C    0.424567  0.657160  2.919957
O    0.721466  0.541039  4.192839
H    0.953670  1.571701  1.031572
H    2.261722  1.456598  2.235659
H    0.971908  2.649237  2.463391
N    -0.542870  -0.106821  2.448527
C    -1.173078  -0.165668  1.091010
C    -0.124178  -0.537255  -0.005827
O    0.336044  0.349631  -0.735214
H    -0.972832  -0.721826  3.140311
H    -1.886933  -0.994702  1.187193
C    -1.944052  1.121795  0.748113
C    -3.076916  0.946975  -0.283473
C    -2.703392  0.521281  -1.713431
N    -1.803643  1.437535  -2.415808
C    -2.120301  2.227939  -3.454176
N    -1.140411  2.723536  -4.223290
N    -3.392559  2.540229  -3.731115
H    -1.234228  1.888276  0.408946
H    -2.405686  1.494797  1.673215
H    -3.615591  1.905065  -0.323386
H    -3.806665  0.212163  0.091329
H    -3.621019  0.402878  -2.303626
H    -2.227966  -0.470428  -1.724743
H    -0.818782  1.357549  -2.159912
H    -1.317528  3.467559  -4.888707
H    -0.216574  2.308393  -4.232380
H    -3.645292  2.968772  -4.614516
H    -4.139337  2.391593  -3.065373
N    0.224435  -1.831750  -0.114907
C    -0.276279  -2.984479  0.633939
H    0.903256  -2.013719  -0.852832
H    0.218207  -3.880698  0.248294
H    -1.357754  -3.123037  0.502021
H    -0.037937  -2.914902  1.704055
Ca    1.455485  0.683681  6.071952
