37
Energy: -39742.0155897 eV PBE+vdW (tier 2 basis)
C    -1.015266  -3.086282  0.012372
C    -0.724176  -2.137946  1.121814
O    0.423852  -1.600572  1.238204
H    -0.872301  -2.560970  -0.944058
H    -2.028422  -3.499961  0.044290
H    -0.285745  -3.907872  0.029900
N    -1.693944  -1.842882  2.003914
C    -1.593894  -0.814444  3.056748
C    -0.598513  -1.282146  4.151824
O    0.608426  -0.873661  4.044829
H    -2.598653  -2.288320  1.863401
H    -1.080937  0.049993  2.608530
C    -3.007134  -0.354665  3.470882
C    -3.047700  0.805299  4.481885
C    -4.502292  1.221771  4.778476
N    -4.599296  2.299316  5.769451
C    -5.338670  3.427280  5.673386
N    -5.658739  3.948826  4.483714
N    -5.742895  4.038356  6.790931
H    -3.594779  -1.202865  3.848593
H    -3.498836  -0.035773  2.538107
H    -2.489384  1.671382  4.095914
H    -2.558259  0.512096  5.424678
H    -5.074219  0.356536  5.150391
H    -5.006783  1.544686  3.859554
H    -4.286185  2.073297  6.709480
H    -6.348497  4.689392  4.410605
H    -5.147027  3.719237  3.642056
H    -6.083210  4.994663  6.776342
H    -5.774757  3.558472  7.683764
N    -0.918804  -2.092463  5.146081
C    -2.177129  -2.784979  5.448473
H    -0.141514  -2.287788  5.780242
H    -2.864790  -2.135311  6.003693
H    -1.938771  -3.647933  6.077817
H    -2.654211  -3.155322  4.536439
Ca    2.020453  -0.862448  2.420278
