37
Energy: -39742.0894381 eV PBE+vdW (tier 2 basis)
C    -0.052150  0.549747  0.689117
C    -0.528152  0.096892  2.028502
O    -0.581091  -1.143991  2.300422
H    -0.695907  0.102156  -0.082281
H    0.960994  0.162281  0.511815
H    -0.045265  1.637610  0.565651
N    -0.892422  1.031605  2.923211
C    -1.491042  0.878767  4.271839
C    -0.544603  0.155727  5.256461
O    -0.299948  -1.088182  5.140648
H    -0.766461  1.991039  2.611269
H    -1.596994  1.911705  4.630473
C    -2.892078  0.218328  4.256128
C    -4.011776  1.027795  3.564705
C    -4.739256  2.027081  4.481957
N    -5.832396  2.683666  3.759309
C    -7.001413  3.104847  4.287047
N    -8.007466  3.433052  3.470653
N    -7.168535  3.173397  5.613131
H    -3.171432  0.000638  5.298472
H    -2.813730  -0.756195  3.757033
H    -4.756603  0.316009  3.183521
H    -3.611538  1.549107  2.680044
H    -4.043037  2.782827  4.884619
H    -5.175580  1.485602  5.333467
H    -5.675910  2.914503  2.782705
H    -8.021674  3.151001  2.496932
H    -8.807543  3.960597  3.804838
H    -8.089536  3.330912  6.009878
H    -6.382974  3.271322  6.244141
N    -0.035817  0.866871  6.246440
C    0.839401  0.351726  7.306014
H    -0.242192  1.863029  6.273287
H    0.680154  -0.722786  7.423563
H    0.596151  0.865470  8.241700
H    1.889883  0.547992  7.054166
Ca    -0.116060  -2.655146  3.706122
