37
Energy: -39742.2630128 eV PBE+vdW (tier 2 basis)
C    -4.329089  2.325981  4.962527
C    -3.401008  1.548984  4.094918
O    -3.315362  1.795509  2.849147
H    -4.343093  1.987928  6.003783
H    -5.346501  2.280382  4.550862
H    -4.026673  3.383984  4.933941
N    -2.643901  0.588448  4.649154
C    -1.557827  -0.163625  3.986144
C    -2.168423  -1.199261  3.007881
O    -2.516407  -0.804898  1.847799
H    -2.771324  0.429063  5.646751
H    -1.019216  0.548019  3.341129
C    -0.586870  -0.685050  5.065461
C    0.756688  -1.224595  4.540833
C    1.689005  -1.607571  5.704678
N    2.985991  -2.080494  5.214641
C    4.137119  -2.078982  5.921784
N    4.137883  -1.778344  7.224883
N    5.287678  -2.354819  5.299424
H    -1.084864  -1.438615  5.700742
H    -0.386158  0.168748  5.731311
H    1.250089  -0.457156  3.925768
H    0.596834  -2.102363  3.894322
H    1.208941  -2.378877  6.331071
H    1.867989  -0.724535  6.335435
H    2.998811  -2.603026  4.344020
H    5.010325  -1.619277  7.718889
H    3.308208  -1.877187  7.796969
H    5.368798  -2.331792  4.289382
H    6.131235  -2.569947  5.820907
N    -2.336538  -2.449126  3.393734
C    -2.944236  -3.515520  2.587866
H    -2.060844  -2.690165  4.342856
H    -4.015175  -3.597386  2.815586
H    -2.455698  -4.463738  2.832609
H    -2.808174  -3.294142  1.526414
Ca    -3.265210  0.976447  0.901379
