37
Energy: -39740.6023827 eV PBE+vdW (tier 2 basis)
C    -0.052741  0.059154  -0.544249
C    0.320691  -0.313269  0.845948
O    1.575128  -0.632310  1.061735
H    0.533117  0.948421  -0.826947
H    -1.111793  0.282352  -0.663338
H    0.205739  -0.757853  -1.227770
N    -0.454656  -0.180129  1.916683
C    -1.913164  -0.370291  1.986157
C    -2.168952  -1.805480  1.397071
O    -1.391133  -2.241692  0.546450
H    0.026069  -0.374754  2.794629
H    -2.132359  -0.360981  3.063196
C    -2.777368  0.739301  1.323838
C    -4.140765  0.902695  2.021833
C    -4.961695  2.133657  1.613337
N    -5.598898  1.985919  0.296072
C    -6.273318  2.973458  -0.332352
N    -6.815138  2.741356  -1.534066
N    -6.372625  4.186826  0.218962
H    -2.919873  0.531154  0.254873
H    -2.220462  1.684716  1.400987
H    -3.979111  1.000210  3.105995
H    -4.759936  0.000840  1.889749
H    -4.315571  3.024036  1.588179
H    -5.731548  2.294355  2.385781
H    -5.834824  1.040777  0.008077
H    -6.606933  1.901905  -2.060835
H    -7.468600  3.393557  -1.953873
H    -6.766956  4.964998  -0.299048
H    -6.202278  4.340851  1.205089
N    -3.255253  -2.445181  1.854663
C    -3.650561  -3.779730  1.392439
H    -3.750140  -2.061478  2.653277
H    -3.216944  -4.558677  2.032863
H    -3.296481  -3.921319  0.367747
H    -4.741733  -3.861409  1.419475
Ca    3.451409  -1.339785  0.944879
