37
Energy: -39742.185299 eV PBE+vdW (tier 2 basis)
C    1.020428  -1.492069  2.424165
C    0.473474  -0.116085  2.237774
O    1.254401  0.888237  2.256531
H    1.551599  -1.532674  3.386196
H    1.769795  -1.695214  1.646140
H    0.259090  -2.278475  2.399162
N    -0.848914  0.020337  2.049923
C    -1.684226  1.240587  1.945466
C    -1.323094  2.126661  0.733567
O    -0.212306  2.746230  0.666102
H    -1.366542  -0.854632  2.020923
H    -2.690975  0.845530  1.751263
C    -1.765106  2.064914  3.255670
C    -2.554112  1.344868  4.365587
C    -2.797893  2.239027  5.592947
N    -3.626396  1.538599  6.579239
C    -3.744994  1.865361  7.883661
N    -4.389608  1.036415  8.710629
N    -3.197510  2.990947  8.357160
H    -2.260640  3.016833  3.009096
H    -0.752449  2.317429  3.601811
H    -2.029492  0.431625  4.683092
H    -3.530727  1.032401  3.959501
H    -3.286825  3.175990  5.275792
H    -1.841451  2.498328  6.070429
H    -4.298471  0.863361  6.227071
H    -4.599958  0.079016  8.452415
H    -4.684970  1.335658  9.634205
H    -3.159568  3.166089  9.356245
H    -3.001146  3.780292  7.754184
N    -2.240886  2.257618  -0.207109
C    -2.128576  3.099925  -1.403124
H    -3.099935  1.719406  -0.113638
H    -3.099770  3.568542  -1.594130
H    -1.853799  2.484143  -2.269556
H    -1.372399  3.871104  -1.239908
Ca    1.831951  2.651677  1.242521
