37
Energy: -39742.0779226 eV PBE+vdW (tier 2 basis)
C    -2.951136  -0.006595  -0.334416
C    -2.358997  -0.239461  1.016085
O    -1.836630  -1.364490  1.296059
H    -3.727146  -0.764699  -0.514047
H    -2.180345  -0.162503  -1.102373
H    -3.384478  0.990620  -0.462923
N    -2.396844  0.768378  1.903788
C    -2.007957  0.818051  3.332433
C    -0.508666  0.555558  3.568241
O    0.015903  -0.576281  3.298635
H    -2.813391  1.625742  1.549545
H    -2.192294  1.862192  3.611608
C    -2.881268  -0.062964  4.263139
C    -4.329449  0.446678  4.385093
C    -5.132861  -0.315150  5.452713
N    -6.477939  0.253128  5.585247
C    -7.538801  -0.358535  6.153697
N    -8.749678  0.197639  6.048604
N    -7.391884  -1.526220  6.790616
H    -2.403254  -0.057395  5.255413
H    -2.864520  -1.105455  3.914032
H    -4.849067  0.368545  3.418713
H    -4.308523  1.515526  4.655727
H    -4.599528  -0.270444  6.417658
H    -5.234025  -1.372996  5.168346
H    -6.585678  1.244947  5.394907
H    -9.523801  -0.108593  6.628923
H    -8.944538  0.934448  5.380257
H    -8.203655  -2.056745  7.090422
H    -6.499916  -1.813850  7.173837
N    0.236614  1.502780  4.109902
C    -0.120502  2.875618  4.501071
H    1.202973  1.221683  4.288470
H    -0.589721  3.415142  3.670561
H    0.804838  3.397949  4.760305
H    -0.773448  2.878238  5.382554
Ca    -0.100390  -2.300488  2.066160
