37
Energy: -39741.4244865 eV PBE+vdW (tier 2 basis)
C    0.229332  2.006376  -0.042530
C    0.035725  0.918081  0.950271
O    1.012848  0.484366  1.640716
H    0.995704  1.653324  -0.752976
H    0.652298  2.905439  0.426562
H    -0.671511  2.258663  -0.608164
N    -1.180004  0.332324  1.126257
C    -2.397102  1.100561  1.389223
C    -2.237619  1.698632  2.830989
O    -1.205986  1.412582  3.527727
H    -1.122062  -0.532598  1.667459
H    -2.420767  1.953338  0.693135
C    -3.643964  0.212082  1.129357
C    -4.987525  0.960067  1.013190
C    -6.063022  0.259855  0.164076
N    -6.617107  -0.945196  0.795414
C    -7.377747  -1.857743  0.142883
N    -7.811564  -2.937457  0.801403
N    -7.664164  -1.707794  -1.153146
H    -3.699353  -0.580875  1.890396
H    -3.432673  -0.288013  0.172857
H    -4.829811  1.929519  0.513711
H    -5.409419  1.186389  2.005819
H    -5.627629  -0.031015  -0.803048
H    -6.864522  0.990876  -0.031914
H    -6.754747  -0.910825  1.801777
H    -8.525316  -3.543492  0.410121
H    -7.444436  -3.193872  1.710111
H    -8.107688  -2.455722  -1.677306
H    -7.613803  -0.806837  -1.613227
N    -3.159747  2.522148  3.288525
C    -3.124518  3.184583  4.601096
H    -3.932132  2.762631  2.672284
H    -4.114609  3.601590  4.803779
H    -2.389344  3.999408  4.597671
H    -2.869988  2.459511  5.380516
Ca    0.870144  0.797233  3.765955
