37
Energy: -39740.4937172 eV PBE+vdW (tier 2 basis)
C    -0.296397  -1.656389  -0.118982
C    -0.519886  -2.399751  1.151226
O    0.207248  -3.459720  1.379628
H    -0.949528  -0.788540  -0.237234
H    -0.487307  -2.345664  -0.956158
H    0.744962  -1.318424  -0.181621
N    -1.537864  -2.144485  1.969133
C    -2.025727  -0.779071  2.220063
C    -0.726282  0.084021  2.474991
O    0.366653  -0.494048  2.500013
H    -1.587177  -2.766169  2.777276
H    -2.530896  -0.404860  1.316595
C    -3.006785  -0.802426  3.409287
C    -4.366297  -1.483335  3.122972
C    -5.521289  -0.560278  2.709101
N    -6.060795  0.171883  3.865425
C    -7.033892  1.106044  3.801449
N    -7.425790  1.727808  4.919027
N    -7.576803  1.441194  2.625583
H    -3.164651  0.227249  3.753547
H    -2.503259  -1.304089  4.250212
H    -4.681556  -2.057534  4.007415
H    -4.256742  -2.234993  2.328068
H    -6.310604  -1.180094  2.253538
H    -5.190990  0.171562  1.955056
H    -5.918260  -0.255237  4.776300
H    -6.920338  1.628778  5.791596
H    -8.266529  2.295003  4.941885
H    -8.230400  2.214363  2.556776
H    -7.517418  0.829625  1.820766
N    -0.852809  1.410747  2.626570
C    -2.034081  2.259906  2.508107
H    0.029963  1.880372  2.824101
H    -1.725158  3.227453  2.098090
H    -2.509453  2.438557  3.482820
H    -2.764140  1.828904  1.813877
Ca    1.839244  -4.621454  1.569867
