37
Energy: -39742.1429785 eV PBE+vdW (tier 2 basis)
C    0.319999  0.781304  0.460265
C    0.115835  0.521581  1.912661
O    1.025619  0.801493  2.757173
H    0.483837  1.860489  0.319620
H    -0.520600  0.463547  -0.165095
H    1.236089  0.279341  0.120107
N    -1.050787  -0.004072  2.321008
C    -1.487629  -0.185552  3.720799
C    -0.712426  -1.370688  4.354593
O    0.454859  -1.151955  4.815357
H    -1.727741  -0.226357  1.593886
H    -1.149907  0.699942  4.281572
C    -3.029451  -0.242967  3.770168
C    -3.627707  -0.147663  5.185864
C    -5.154634  -0.356187  5.256104
N    -5.976797  0.736593  4.719085
C    -6.823009  1.513888  5.434173
N    -7.851887  2.102217  4.816555
N    -6.634802  1.713357  6.742583
H    -3.394255  -1.153384  3.261497
H    -3.389673  0.600747  3.161100
H    -3.365611  0.823314  5.632947
H    -3.185961  -0.917625  5.837182
H    -5.447839  -0.518813  6.300570
H    -5.438122  -1.276523  4.723301
H    -6.137689  0.742319  3.716828
H    -8.206119  1.767134  3.927345
H    -8.375254  2.850632  5.259871
H    -7.358502  2.135503  7.315268
H    -5.753353  1.513565  7.196795
N    -1.254401  -2.572273  4.386800
C    -0.615451  -3.782405  4.919649
H    -2.181302  -2.682989  3.982539
H    -0.130779  -4.341680  4.108668
H    -1.383919  -4.413461  5.376902
H    0.126688  -3.503038  5.671473
Ca    2.142684  0.117664  4.419787
