37
Energy: -39742.1330555 eV PBE+vdW (tier 2 basis)
C    -1.303922  0.448360  0.402567
C    -0.894317  -0.003034  1.763551
O    -0.285326  -1.110922  1.913665
H    -0.424802  0.473927  -0.256050
H    -1.792462  1.428041  0.389678
H    -1.990417  -0.300101  -0.020974
N    -1.183721  0.786267  2.808940
C    -1.048433  0.548017  4.267625
C    0.420123  0.347336  4.700882
O    1.064577  -0.709348  4.401855
H    -1.661108  1.652265  2.568509
H    -1.382826  1.497132  4.708817
C    -2.007330  -0.553466  4.785550
C    -2.298900  -0.451176  6.294903
C    -3.478498  -1.345613  6.713787
N    -3.796876  -1.155374  8.132138
C    -4.546033  -1.988425  8.886206
N    -4.625291  -1.785799  10.205040
N    -5.178779  -3.027893  8.329986
H    -1.618082  -1.549358  4.529287
H    -2.944902  -0.432369  4.223359
H    -2.550451  0.594970  6.537476
H    -1.411225  -0.715040  6.889311
H    -3.226511  -2.404948  6.557374
H    -4.355303  -1.107765  6.087469
H    -3.608179  -0.241708  8.533536
H    -3.982008  -1.172500  10.692351
H    -5.330308  -2.248917  10.769197
H    -5.622110  -3.733250  8.909884
H    -5.416518  -3.041084  7.345763
N    0.970569  1.306244  5.424837
C    2.339533  1.299412  5.952051
H    0.418055  2.141897  5.605453
H    2.684814  0.268883  6.065828
H    2.343048  1.800446  6.925351
H    3.007848  1.843376  5.271389
Ca    1.324072  -2.119480  2.813409
