37
Energy: -39740.3710649 eV PBE+vdW (tier 2 basis)
C    0.306989  1.060793  0.525801
C    0.134458  0.323625  1.808521
O    1.172256  0.080130  2.568312
H    -0.336401  1.952369  0.490457
H    0.012059  0.430464  -0.327526
H    1.346894  1.367419  0.388119
N    -1.053559  -0.093928  2.204525
C    -2.327344  0.089619  1.472749
C    -2.900487  1.544506  1.495464
O    -3.304854  1.974921  0.419682
H    -1.096210  -0.572123  3.106245
H    -2.098357  -0.055293  0.410656
C    -3.358607  -0.971837  1.921976
C    -4.797508  -0.743720  1.416547
C    -4.988030  -0.854801  -0.107779
N    -6.347210  -0.508681  -0.534578
C    -7.426511  -1.310085  -0.563135
N    -8.638080  -0.778334  -0.761155
N    -7.306380  -2.632048  -0.375060
H    -3.401953  -0.995124  3.021876
H    -2.994113  -1.961028  1.604491
H    -5.155930  0.243225  1.743032
H    -5.439709  -1.481605  1.917735
H    -4.721102  -1.858434  -0.471074
H    -4.331514  -0.152597  -0.635903
H    -6.490426  0.451528  -0.830627
H    -9.437360  -1.356017  -0.997344
H    -8.791439  0.223174  -0.742703
H    -6.419393  -3.100627  -0.506227
H    -8.128685  -3.224327  -0.342214
N    -2.965768  2.246586  2.650602
C    -2.641145  1.846744  4.014774
H    -3.362068  3.176487  2.523165
H    -3.147458  2.531346  4.702581
H    -1.562928  1.908805  4.225324
H    -3.008223  0.839332  4.247613
Ca    3.026161  -0.128877  3.351090
