37
Energy: -39741.9914948 eV PBE+vdW (tier 2 basis)
C    1.443655  0.987194  0.437820
C    0.810873  -0.135058  1.189034
O    1.501737  -1.149525  1.523656
H    2.309563  1.362807  1.000392
H    0.763086  1.818452  0.226973
H    1.834839  0.593945  -0.512488
N    -0.492622  -0.038913  1.495730
C    -1.422225  -1.033056  2.086669
C    -1.007474  -1.436001  3.516217
O    0.004937  -2.186466  3.718105
H    -0.939174  0.820808  1.184947
H    -2.365430  -0.480174  2.166968
C    -1.681758  -2.248412  1.161512
C    -3.009609  -2.970641  1.460145
C    -3.289607  -4.097963  0.446315
N    -4.533478  -4.824832  0.720540
C    -5.582277  -4.990642  -0.115066
N    -6.402339  -6.030014  0.066179
N    -5.817229  -4.130061  -1.112615
H    -0.838147  -2.952091  1.211262
H    -1.697607  -1.857795  0.133386
H    -3.840501  -2.248591  1.434335
H    -2.997126  -3.397771  2.475708
H    -2.464313  -4.826742  0.451275
H    -3.336695  -3.701755  -0.576084
H    -4.532783  -5.429876  1.536754
H    -7.317338  -6.063496  -0.372228
H    -6.127645  -6.842678  0.607138
H    -6.494054  -4.347871  -1.836626
H    -5.437907  -3.192561  -1.112478
N    -1.727260  -1.020411  4.544250
C    -2.905024  -0.137782  4.567475
H    -1.399366  -1.358876  5.451000
H    -3.145533  0.067142  5.614521
H    -3.773287  -0.623386  4.106022
H    -2.693214  0.818749  4.076279
Ca    2.005331  -2.519657  3.038978
