37
Energy: -39739.5971076 eV PBE+vdW (tier 2 basis)
C    -0.263183  1.109792  0.765135
C    -0.278525  0.176923  1.941863
O    0.732738  -0.335234  2.408612
H    0.706755  1.618632  0.747811
H    -1.061281  1.861036  0.792870
H    -0.337146  0.538448  -0.173115
N    -1.504640  -0.104545  2.569569
C    -2.709044  -0.386461  1.810554
C    -3.996689  0.093993  2.487762
O    -4.991614  0.429277  1.699908
H    -1.325849  -0.747321  3.338272
H    -2.666965  0.237449  0.905644
C    -2.794874  -1.869447  1.316939
C    -2.567720  -2.994515  2.349029
C    -1.123213  -3.396603  2.710234
N    -0.380714  -3.942469  1.562913
C    0.977047  -3.979832  1.473874
N    1.549641  -4.991099  0.810219
N    1.726789  -3.017168  2.006895
H    -2.053295  -1.957785  0.508944
H    -3.773403  -2.022464  0.837899
H    -3.075433  -3.892148  1.964084
H    -3.091772  -2.782045  3.294454
H    -1.176645  -4.154651  3.507779
H    -0.541238  -2.562579  3.114991
H    -0.850602  -4.693658  1.063045
H    2.526627  -4.955797  0.538015
H    1.063366  -5.863833  0.638202
H    2.735154  -3.122695  2.045728
H    1.351886  -2.095830  2.257838
N    -4.186753  0.213838  3.781527
C    -3.302264  -0.063541  4.930053
H    -5.102719  0.582672  4.040537
H    -2.501429  0.682071  4.984512
H    -2.889122  -1.074927  4.871085
H    -3.915447  -0.000053  5.833463
Ca    -6.506392  1.093205  0.525684
