37
Energy: -39740.3696949 eV PBE+vdW (tier 2 basis)
C    -0.207554  1.612902  2.682183
C    -0.016681  0.260368  2.088363
O    1.121800  -0.362931  2.253554
H    0.468440  1.756529  3.530790
H    -1.237927  1.787403  3.012742
H    0.030434  2.381298  1.927476
N    -0.961296  -0.324126  1.376947
C    -2.271139  0.266904  0.995163
C    -3.348698  0.246377  2.110893
O    -4.035071  1.269911  2.221581
H    -0.744795  -1.250576  1.005016
H    -2.093530  1.335149  0.823399
C    -2.759740  -0.361992  -0.332528
C    -3.762066  0.467775  -1.169100
C    -5.274897  0.351118  -0.882224
N    -5.794310  1.366789  0.032744
C    -6.990668  1.965199  -0.068383
N    -7.262594  3.015285  0.720573
N    -7.911201  1.552640  -0.950178
H    -3.164094  -1.370155  -0.153289
H    -1.866929  -0.492482  -0.963206
H    -3.629112  0.118427  -2.201768
H    -3.471119  1.528554  -1.182758
H    -5.521277  -0.660722  -0.518215
H    -5.790767  0.479679  -1.842342
H    -5.246699  1.547863  0.882479
H    -8.207047  3.366692  0.826257
H    -6.531981  3.483987  1.241429
H    -8.734452  2.111856  -1.143591
H    -7.879347  0.630852  -1.365773
N    -3.545910  -0.841446  2.880413
C    -2.919290  -2.159138  2.835916
H    -4.286845  -0.708718  3.567822
H    -1.953718  -2.177836  3.361152
H    -2.794197  -2.517496  1.806679
H    -3.582293  -2.869977  3.339250
Ca    3.035990  -0.898949  2.654676
