37
Energy: -39740.1493851 eV PBE+vdW (tier 2 basis)
C    0.707501  0.264158  0.478434
C    0.370118  0.325715  1.936898
O    1.179426  0.617264  2.820855
H    1.053587  1.252518  0.147334
H    -0.125328  -0.056292  -0.156600
H    1.549405  -0.428013  0.343248
N    -0.936853  0.017191  2.291429
C    -1.318044  0.189538  3.688684
C    -2.218587  -0.978358  4.082600
O    -3.517322  -0.920342  3.990457
H    -1.638988  -0.017306  1.558818
H    -0.362399  0.036448  4.218693
C    -1.822989  1.600924  4.061864
C    -1.410148  2.054561  5.473670
C    0.076004  2.406821  5.658151
N    0.449088  3.662451  4.985824
C    1.672438  3.942005  4.469402
N    2.414622  2.987392  3.907486
N    2.114924  5.204906  4.505163
H    -2.915728  1.665960  3.946697
H    -1.408500  2.294575  3.317263
H    -1.651252  1.279313  6.218818
H    -2.020685  2.923735  5.760745
H    0.729428  1.611576  5.282400
H    0.282039  2.502781  6.735169
H    -0.077403  4.481495  5.280245
H    3.384559  3.171355  3.675553
H    2.011699  2.108459  3.567817
H    1.736600  5.886474  5.153408
H    2.902014  5.503890  3.939016
N    -1.647930  -2.088122  4.495358
C    -2.320086  -3.345726  4.830846
H    -0.629015  -2.080801  4.544932
H    -1.561864  -4.075172  5.129218
H    -2.855528  -3.741384  3.957545
H    -3.006453  -3.200995  5.675532
Ca    -5.541355  -0.999655  3.946401
