37
Energy: -39740.4312155 eV PBE+vdW (tier 2 basis)
C    0.509116  1.058450  0.470950
C    0.085516  0.294250  1.676020
O    1.044258  -0.118035  2.470816
H    1.010578  1.977232  0.816293
H    -0.310203  1.341097  -0.186597
H    1.226549  0.467178  -0.109476
N    -1.162094  0.186255  2.140818
C    -2.364619  -0.061010  1.322578
C    -1.987084  -1.326221  0.467632
O    -0.798126  -1.459326  0.153860
H    -1.204607  -0.245481  3.063700
H    -3.150283  -0.286653  2.053862
C    -2.805831  1.139207  0.439349
C    -4.275430  1.189734  -0.022617
C    -5.298484  1.628152  1.035968
N    -6.618918  1.784019  0.414326
C    -7.589318  2.635508  0.797301
N    -8.617524  2.874957  -0.024193
N    -7.523975  3.257104  1.981340
H    -2.200477  1.148665  -0.474687
H    -2.564737  2.061703  0.988212
H    -4.574700  0.227769  -0.463526
H    -4.314885  1.919202  -0.844204
H    -5.001609  2.601151  1.453951
H    -5.357884  0.907011  1.869050
H    -6.838070  1.177083  -0.369825
H    -9.464280  3.324737  0.307161
H    -8.579587  2.642743  -1.010153
H    -8.163159  4.012292  2.205731
H    -6.967933  2.890633  2.743309
N    -2.939831  -2.191030  0.087707
C    -4.335041  -2.317354  0.497497
H    -2.582770  -2.933713  -0.513874
H    -4.511085  -3.327022  0.888568
H    -5.009227  -2.156965  -0.353976
H    -4.580024  -1.603604  1.289222
Ca    2.814626  -0.817971  3.115567
