37
Energy: -39740.7233551 eV PBE+vdW (tier 2 basis)
C    -0.434340  -1.338303  0.663368
C    -0.172321  -0.164682  1.540834
O    1.060190  0.036391  1.954850
H    0.159205  -1.248736  -0.258089
H    -1.487556  -1.446936  0.392647
H    -0.104846  -2.255741  1.171312
N    -1.093529  0.679372  1.920090
C    -2.487155  0.851199  1.470928
C    -2.670714  2.390679  1.667131
O    -1.903252  2.950746  2.465411
H    -0.860513  1.540897  2.479396
H    -2.565301  0.575860  0.411637
C    -3.519351  0.033484  2.291329
C    -3.649128  0.417760  3.773177
C    -4.700222  -0.385826  4.553109
N    -6.073223  0.027332  4.226133
C    -7.183704  -0.660083  4.569697
N    -8.383202  -0.210562  4.182233
N    -7.093317  -1.801102  5.260698
H    -3.257861  -1.032458  2.202520
H    -4.487286  0.145364  1.781741
H    -3.859196  1.493434  3.884165
H    -2.691768  0.258106  4.289665
H    -4.513274  -0.248472  5.630320
H    -4.602925  -1.457798  4.324915
H    -6.211605  1.014143  4.026635
H    -9.240168  -0.587997  4.572079
H    -8.480854  0.525502  3.493495
H    -7.906505  -2.392005  5.398742
H    -6.268721  -2.032636  5.800364
N    -3.656481  3.018989  1.014275
C    -4.467767  2.526209  -0.101879
H    -3.688770  4.021103  1.199816
H    -5.304795  3.215707  -0.246192
H    -4.887482  1.535812  0.106579
H    -3.892328  2.489303  -1.036874
Ca    3.010387  0.316678  2.331722
