37
Energy: -39742.0489923 eV PBE+vdW (tier 2 basis)
C    0.308681  0.171688  -0.028807
C    -0.236133  -0.287503  1.279187
O    0.506309  -0.341850  2.310427
H    1.159338  -0.462963  -0.314372
H    0.706242  1.190052  0.093275
H    -0.429658  0.167950  -0.837199
N    -1.530802  -0.640620  1.360558
C    -2.233493  -1.014393  2.601279
C    -1.733280  -2.398471  3.101034
O    -0.756377  -2.388123  3.927573
H    -2.075484  -0.604069  0.501798
H    -1.873990  -0.329187  3.383917
C    -3.759009  -0.824696  2.471454
C    -4.212770  0.646933  2.544324
C    -5.735087  0.773501  2.339176
N    -6.191965  2.167653  2.313040
C    -7.222885  2.700850  3.005499
N    -7.838240  3.785625  2.525485
N    -7.627804  2.171453  4.165773
H    -4.235099  -1.394860  3.283248
H    -4.118063  -1.277039  1.535189
H    -3.698061  1.242204  1.773353
H    -3.932926  1.083695  3.514676
H    -6.281022  0.240199  3.127229
H    -6.028621  0.297962  1.389645
H    -5.866085  2.729890  1.531643
H    -7.767598  4.055512  1.550484
H    -8.439656  4.354834  3.112685
H    -8.498908  2.466412  4.594321
H    -7.030656  1.569317  4.717009
N    -2.235418  -3.557893  2.717019
C    -3.278499  -3.883427  1.736365
H    -1.801152  -4.360041  3.178839
H    -3.100863  -4.906836  1.391699
H    -3.224251  -3.220918  0.867890
H    -4.275516  -3.839995  2.191222
Ca    1.122804  -1.373845  4.067062
