37
Energy: -39740.3480874 eV PBE+vdW (tier 2 basis)
C    0.031413  1.232497  1.270557
C    -0.155859  0.292778  2.425652
O    0.740742  -0.202597  3.073271
H    0.881484  1.891965  1.488361
H    -0.854951  1.827934  1.017653
H    0.315970  0.666989  0.369663
N    -1.532541  0.012721  2.854759
C    -2.474821  -0.534366  1.812617
C    -3.898741  -0.028927  2.134515
O    -4.018350  0.931928  2.978482
H    -1.421134  -0.703880  3.585932
H    -2.204870  -0.061253  0.854487
C    -2.335961  -2.067748  1.685529
C    -0.974378  -2.575809  1.132293
C    -0.234200  -3.513332  2.106474
N    0.964745  -4.110296  1.517945
C    2.241317  -3.938642  1.920309
N    3.162526  -4.837727  1.562213
N    2.597427  -2.883635  2.664163
H    -3.130792  -2.441545  1.026295
H    -2.552268  -2.516215  2.669732
H    -0.312472  -1.744068  0.853532
H    -1.158363  -3.117805  0.195384
H    -0.901501  -4.333614  2.411552
H    0.056161  -2.992039  3.028552
H    0.813179  -4.848733  0.836110
H    4.154669  -4.643288  1.648976
H    2.908828  -5.759010  1.221685
H    2.017563  -2.056586  2.752376
H    3.510035  -2.852717  3.105330
N    -4.941629  -0.534197  1.520275
C    -6.338475  -0.101430  1.674264
H    -4.780035  -1.288376  0.854369
H    -6.398334  0.694002  2.418966
H    -6.943805  -0.959412  1.990654
H    -6.708270  0.260595  0.706883
Ca    -2.639843  1.970302  4.122274
