37
Energy: -39741.9631848 eV PBE+vdW (tier 2 basis)
C    -2.451251  -0.563741  -0.141876
C    -1.865317  -0.457737  1.226182
O    -0.891841  -1.202213  1.562038
H    -2.795313  -1.596672  -0.298043
H    -1.666435  -0.380871  -0.889360
H    -3.283717  0.124133  -0.322373
N    -2.396448  0.439890  2.075659
C    -2.099482  0.693648  3.506086
C    -0.650287  1.175411  3.722660
O    0.327804  0.366340  3.595160
H    -3.147229  1.002060  1.683572
H    -2.762873  1.525354  3.770499
C    -2.423168  -0.505435  4.431501
C    -3.917086  -0.884733  4.536278
C    -4.681528  -0.174562  5.666416
N    -6.041861  -0.714848  5.761696
C    -7.056023  -0.186178  6.478761
N    -8.289503  -0.678450  6.332504
N    -6.839348  0.845704  7.304064
H    -2.019373  -0.279318  5.430481
H    -1.865633  -1.381520  4.076528
H    -3.963558  -1.967807  4.724060
H    -4.430942  -0.721617  3.576687
H    -4.753155  0.909048  5.484010
H    -4.140076  -0.325567  6.616078
H    -6.194639  -1.649606  5.394523
H    -9.027782  -0.460302  6.993864
H    -8.535602  -1.287352  5.560106
H    -7.618281  1.325780  7.743761
H    -5.923750  1.023601  7.698202
N    -0.416469  2.425256  4.083108
C    -1.352512  3.541925  4.276319
H    0.569290  2.630514  4.260053
H    -2.066661  3.609723  3.448825
H    -0.768948  4.467258  4.290769
H    -1.878193  3.453137  5.235406
Ca    1.010193  -1.320254  2.487794
