37
Energy: -39740.6632705 eV PBE+vdW (tier 2 basis)
C    -0.807659  -1.161492  0.215035
C    -0.455887  -1.096429  1.657793
O    0.464483  -1.901916  2.121367
H    -0.111667  -0.514599  -0.343670
H    -1.824220  -0.812123  0.009521
H    -0.702236  -2.186410  -0.156780
N    -1.036234  -0.257149  2.489224
C    -1.920954  0.871896  2.123025
C    -1.107453  1.803584  1.162176
O    0.110987  1.876778  1.298069
H    -0.674841  -0.253449  3.443565
H    -2.809710  0.455928  1.623134
C    -2.354562  1.598000  3.417736
C    -3.459318  2.642289  3.180949
C    -4.077283  3.256767  4.443962
N    -3.195056  4.246221  5.080523
C    -3.457200  4.846951  6.260600
N    -2.582020  5.726552  6.762993
N    -4.564062  4.543903  6.946076
H    -1.465767  2.062458  3.873530
H    -2.731416  0.840099  4.123367
H    -4.293048  2.168712  2.640594
H    -3.099359  3.451226  2.526610
H    -4.303400  2.468757  5.178049
H    -5.027629  3.734098  4.154490
H    -2.539244  4.729734  4.473913
H    -2.822930  6.321980  7.547744
H    -1.657667  5.845485  6.366791
H    -4.708574  4.896189  7.886386
H    -5.354409  4.086810  6.508435
N    -1.841527  2.470351  0.249023
C    -1.267972  3.430671  -0.696295
H    -2.836599  2.280559  0.180975
H    -1.771729  4.400191  -0.605010
H    -1.381072  3.068268  -1.725395
H    -0.205611  3.548166  -0.466886
Ca    2.019252  -3.166238  2.334117
