37
Energy: -39742.1162079 eV PBE+vdW (tier 2 basis)
C    0.936489  0.933690  0.722175
C    0.936286  1.127984  2.198587
O    1.571618  2.095111  2.727712
H    0.481471  1.820736  0.255479
H    0.391744  0.041508  0.396675
H    1.970678  0.883419  0.355299
N    0.243263  0.271719  2.967877
C    -0.004331  0.409964  4.417220
C    1.287951  0.070370  5.202765
O    2.170709  0.978695  5.333519
H    -0.231488  -0.489472  2.486709
H    -0.170872  1.480798  4.612645
C    -1.298755  -0.345684  4.790954
C    -1.784670  -0.085776  6.233087
C    -3.296118  -0.256953  6.473149
N    -3.753205  -1.650372  6.526568
C    -4.823376  -2.080133  7.236300
N    -5.048749  -3.394007  7.345824
N    -5.637113  -1.212803  7.844369
H    -1.185065  -1.424946  4.587443
H    -2.064328  0.011190  4.084051
H    -1.574601  0.963909  6.489454
H    -1.228826  -0.691976  6.962797
H    -3.860046  0.305015  5.709366
H    -3.520795  0.193210  7.449033
H    -3.413696  -2.296686  5.821812
H    -5.934942  -3.749505  7.689868
H    -4.327891  -4.078644  7.150253
H    -6.325261  -1.532140  8.519198
H    -5.706076  -0.244983  7.553730
N    1.460626  -1.139295  5.698873
C    2.650063  -1.599811  6.426380
H    0.726341  -1.823778  5.536797
H    3.341833  -2.104316  5.739144
H    2.337650  -2.307080  7.200975
H    3.147675  -0.744424  6.889766
Ca    2.898807  2.697467  4.262144
