37
Energy: -39739.6249608 eV PBE+vdW (tier 2 basis)
C    0.638649  -1.848831  0.041076
C    0.393694  -1.367026  1.445496
O    1.282661  -1.246661  2.281462
H    0.378230  -1.073763  -0.694583
H    0.050240  -2.752495  -0.178040
H    1.699398  -2.089509  -0.070648
N    -0.899179  -1.002600  1.811011
C    -2.167327  -1.354689  1.211699
C    -2.502384  -0.612538  -0.090928
O    -3.075903  -1.304235  -1.047215
H    -0.948355  -0.816127  2.814738
H    -2.191768  -2.421801  0.928482
C    -3.305646  -1.098905  2.242764
C    -3.199888  -1.904724  3.568052
C    -2.655661  -1.166830  4.811598
N    -1.189245  -1.023533  4.869138
C    -0.319937  -1.950087  5.386106
N    -0.762624  -2.963549  6.133325
N    0.968088  -1.811286  5.086782
H    -4.258437  -1.350455  1.757537
H    -3.354185  -0.020000  2.457169
H    -2.642490  -2.841615  3.416087
H    -4.220236  -2.213566  3.833199
H    -3.033461  -1.675947  5.708680
H    -3.070171  -0.152125  4.868497
H    -0.823819  -0.075145  4.904283
H    -0.135851  -3.714823  6.405984
H    -1.637099  -2.903250  6.643772
H    1.237049  -1.364816  4.198167
H    1.682058  -2.327866  5.592082
N    -2.282963  0.663229  -0.308520
C    -1.739678  1.710170  0.569965
H    -2.577651  0.999113  -1.227593
H    -1.042563  2.320468  -0.015467
H    -1.216134  1.262864  1.413876
H    -2.562628  2.348784  0.916788
Ca    -3.957048  -2.342193  -2.547414
