37
Energy: -39740.4445597 eV PBE+vdW (tier 2 basis)
C    -0.006472  0.188870  0.222615
C    -0.310797  0.139023  1.677008
O    0.613130  0.521651  2.523017
H    -0.772011  -0.280985  -0.398391
H    0.952844  -0.313834  0.036165
H    0.108846  1.238382  -0.089179
N    -1.462776  -0.285300  2.166967
C    -2.725878  -0.659688  1.455932
C    -2.628898  -1.939724  0.568266
O    -3.523396  -2.156103  -0.247858
H    -1.529094  -0.262187  3.185808
H    -3.390316  -0.965205  2.278780
C    -3.333444  0.609053  0.790957
C    -4.651006  0.490124  0.001968
C    -5.835487  -0.145908  0.748392
N    -7.021402  -0.279993  -0.096280
C    -7.307517  -1.341051  -0.873502
N    -8.510311  -1.418955  -1.458089
N    -6.409567  -2.314511  -1.055622
H    -2.594282  1.045439  0.105426
H    -3.464665  1.338723  1.605170
H    -4.471278  -0.051992  -0.932167
H    -4.927944  1.515992  -0.283754
H    -6.127692  0.461769  1.615582
H    -5.588243  -1.145431  1.131946
H    -7.665280  0.503362  -0.131969
H    -8.705604  -2.107688  -2.175223
H    -9.278717  -0.820396  -1.178969
H    -6.682465  -3.179526  -1.506909
H    -5.429764  -2.216956  -0.787694
N    -1.604142  -2.788705  0.780901
C    -1.518064  -4.079134  0.086161
H    -0.996911  -2.646187  1.578967
H    -2.266173  -4.784227  0.470613
H    -0.517834  -4.494153  0.238003
H    -1.689982  -3.931064  -0.984569
Ca    2.228987  1.266981  3.499075
