37
Energy: -39742.0850954 eV PBE+vdW (tier 2 basis)
C    -1.911473  0.514005  -0.085101
C    -1.634451  0.126435  1.329718
O    -1.179382  -1.030926  1.594638
H    -0.986719  0.430761  -0.673460
H    -2.314142  1.525942  -0.197271
H    -2.620049  -0.208097  -0.515971
N    -1.877644  1.032485  2.291688
C    -1.814418  0.919329  3.767587
C    -0.399938  0.612738  4.294991
O    0.178140  -0.494340  4.031757
H    -2.210007  1.930854  1.950289
H    -2.069149  1.928122  4.113304
C    -2.858498  -0.049758  4.380112
C    -4.306510  0.451680  4.226767
C    -5.316903  -0.440732  4.968440
N    -6.679651  0.075245  4.810553
C    -7.703768  -0.117688  5.668850
N    -8.829784  0.585686  5.512613
N    -7.591669  -0.981947  6.684091
H    -2.614362  -0.152046  5.449230
H    -2.745011  -1.049668  3.936975
H    -4.574440  0.494330  3.159002
H    -4.388358  1.476189  4.621363
H    -5.081471  -0.450747  6.042502
H    -5.252941  -1.477398  4.596937
H    -6.920666  0.494336  3.917377
H    -9.686538  0.323130  5.988947
H    -8.865532  1.418207  4.935358
H    -8.291926  -1.010506  7.418379
H    -6.931806  -1.749423  6.659929
N    0.203815  1.489771  5.077426
C    -0.239655  2.822015  5.517674
H    1.111058  1.178458  5.430614
H    0.602663  3.300970  6.025020
H    -1.070467  2.746742  6.229993
H    -0.518508  3.449293  4.663418
Ca    0.343654  -2.078398  2.627606
