37
Energy: -39740.3698133 eV PBE+vdW (tier 2 basis)
C    -0.783029  -0.322867  -0.276643
C    -0.024734  -0.063493  0.973895
O    1.284869  -0.004099  0.911420
H    -1.848547  -0.091579  -0.193436
H    -0.688060  -1.390011  -0.535019
H    -0.342513  0.253768  -1.099276
N    -0.582836  0.084365  2.159484
C    -2.009473  0.083078  2.618821
C    -2.923030  -0.917080  1.857233
O    -3.762902  -0.518660  1.041212
H    0.082077  0.262551  2.914780
H    -1.926429  -0.301195  3.647008
C    -2.582166  1.513386  2.757387
C    -2.595455  2.481685  1.557579
C    -3.864505  2.562515  0.692488
N    -5.060748  2.945881  1.449794
C    -6.230171  2.274550  1.485621
N    -7.346351  2.927601  1.835073
N    -6.279818  0.969613  1.205359
H    -2.012967  1.987010  3.570184
H    -3.597821  1.392882  3.163763
H    -1.752654  2.291895  0.874534
H    -2.398525  3.487238  1.957481
H    -4.063402  1.614576  0.187757
H    -3.702204  3.318381  -0.090044
H    -5.090706  3.900547  1.796797
H    -8.197951  2.429443  2.068390
H    -7.400278  3.939503  1.819675
H    -5.432385  0.404629  1.119164
H    -7.171263  0.515852  1.043903
N    -2.739598  -2.211559  2.167458
C    -3.555172  -3.292569  1.607030
H    -2.120241  -2.450442  2.936277
H    -3.879313  -3.014016  0.600368
H    -4.440780  -3.474230  2.230119
H    -2.957357  -4.208318  1.564696
Ca    3.259092  -0.023479  0.462316
