37
Energy: -39741.7023961 eV PBE+vdW (tier 2 basis)
C    -0.637407  -1.887600  -0.240152
C    -0.462508  -0.715006  0.667923
O    0.187150  0.301559  0.266346
H    -1.268340  -1.568449  -1.084970
H    -1.106293  -2.754459  0.237015
H    0.329507  -2.181577  -0.667841
N    -1.006932  -0.787663  1.895002
C    -1.334686  0.223623  2.923310
C    -0.338177  1.371735  3.108587
O    0.891063  1.289967  2.776100
H    -1.507391  -1.659691  2.056908
H    -2.285408  0.686865  2.612643
C    -1.622032  -0.517342  4.266130
C    -0.411354  -1.185670  4.938792
C    -0.758433  -2.228113  6.015384
N    -1.326089  -1.640604  7.237127
C    -1.984956  -2.347983  8.187220
N    -2.503033  -1.705087  9.238686
N    -2.152830  -3.667783  8.064831
H    -2.396526  -1.269265  4.041851
H    -2.108693  0.192308  4.947499
H    0.268470  -0.428497  5.361445
H    0.184938  -1.726036  4.188466
H    0.158961  -2.790251  6.254138
H    -1.493424  -2.940028  5.611743
H    -0.906830  -0.773046  7.560568
H    -2.835393  -2.208854  10.054672
H    -2.596597  -0.696503  9.257279
H    -2.771222  -4.172833  8.692170
H    -1.548904  -4.232309  7.479708
N    -0.781385  2.489429  3.673762
C    -2.129647  2.880057  4.103544
H    -0.048373  3.178276  3.849420
H    -2.231573  3.961172  3.962851
H    -2.282848  2.652855  5.166094
H    -2.899720  2.383590  3.505426
Ca    1.872276  1.416927  0.864422
