37
Energy: -39739.8859531 eV PBE+vdW (tier 2 basis)
C    -1.583222  1.296649  -0.657507
C    -0.827384  0.500875  0.370776
O    0.330514  0.133714  0.210214
H    -0.863750  1.934859  -1.182740
H    -2.374452  1.925571  -0.233468
H    -2.018508  0.626128  -1.413605
N    -1.455723  0.188045  1.585027
C    -2.846472  -0.225809  1.680023
C    -3.617437  0.503884  2.789703
O    -4.819446  0.950293  2.517088
H    -0.805382  -0.329587  2.174952
H    -3.342950  0.092827  0.754011
C    -3.005315  -1.771319  1.793784
C    -2.302469  -2.536807  0.643113
C    -0.895217  -3.063203  0.991280
N    -0.287615  -3.793699  -0.120598
C    0.932930  -3.576832  -0.662383
N    1.506538  -4.565239  -1.361001
N    1.561135  -2.408480  -0.524951
H    -4.078166  -2.010628  1.792583
H    -2.625658  -2.115816  2.768581
H    -2.249762  -1.915628  -0.263575
H    -2.934599  -3.395898  0.378323
H    -0.958316  -3.737084  1.860572
H    -0.210907  -2.254020  1.268880
H    -0.737257  -4.664004  -0.390116
H    2.308018  -4.391594  -1.957541
H    1.200620  -5.527942  -1.278590
H    1.092541  -1.545778  -0.235213
H    2.531005  -2.322105  -0.808364
N    -3.147957  0.705300  3.998904
C    -1.859544  0.310724  4.592052
H    -3.758891  1.234908  4.621998
H    -1.590974  -0.709039  4.302000
H    -1.975044  0.336478  5.679765
H    -1.074356  1.018296  4.298446
Ca    -6.671786  1.699577  2.169331
