37
Energy: -39740.388655 eV PBE+vdW (tier 2 basis)
C    0.368664  0.670112  0.322356
C    0.105554  0.505806  1.781289
O    1.096006  0.609862  2.623339
H    1.121056  -0.060242  -0.009287
H    0.773832  1.674779  0.130170
H    -0.529955  0.542561  -0.290967
N    -1.123468  0.257725  2.201633
C    -1.620734  0.119319  3.579146
C    -2.039148  -1.329395  3.987182
O    -2.599702  -1.455813  5.075417
H    -1.831444  0.243433  1.466264
H    -0.776036  0.362524  4.237372
C    -2.745549  1.140097  3.873546
C    -4.096682  1.010057  3.144511
C    -5.003308  -0.182067  3.510888
N    -5.263412  -0.332704  4.941861
C    -6.426036  -0.107993  5.576898
N    -6.618826  -0.634098  6.793497
N    -7.392182  0.635186  5.022381
H    -2.340920  2.142272  3.672812
H    -2.905864  1.094062  4.959118
H    -3.971355  0.996309  2.048449
H    -4.638700  1.945609  3.346713
H    -4.571656  -1.130876  3.163182
H    -5.958636  -0.085933  2.979156
H    -4.515746  -0.793647  5.463463
H    -7.384357  -0.331363  7.385322
H    -6.038425  -1.387744  7.141852
H    -8.326152  0.656379  5.416456
H    -7.218476  1.237475  4.228904
N    -1.737318  -2.349526  3.164081
C    -2.074239  -3.742861  3.477939
H    -1.308639  -2.160894  2.265669
H    -1.356477  -4.404455  2.983811
H    -3.085742  -3.991153  3.130880
H    -2.022980  -3.889555  4.560660
Ca    2.945644  0.919787  3.406236
