37
Energy: -39742.1561374 eV PBE+vdW (tier 2 basis)
C    -0.582293  -2.074080  0.364537
C    -0.422846  -1.058034  1.442867
O    0.551546  -0.241350  1.425119
H    0.331206  -2.679513  0.288271
H    -0.689168  -1.547952  -0.596034
H    -1.442706  -2.735802  0.507798
N    -1.333407  -1.011654  2.430479
C    -1.416807  0.006044  3.495286
C    -0.316449  -0.244737  4.560725
O    0.877393  0.101464  4.280731
H    -2.062113  -1.721119  2.408075
H    -1.133247  0.966865  3.036983
C    -2.860938  0.140376  4.022788
C    -3.836624  0.720355  2.974308
C    -5.153095  1.299028  3.525453
N    -6.172954  0.292686  3.842301
C    -7.507216  0.512807  3.805129
N    -8.344988  -0.524203  3.917382
N    -7.992790  1.745992  3.637364
H    -2.826081  0.820677  4.887256
H    -3.218751  -0.834450  4.398587
H    -4.065909  -0.011475  2.185894
H    -3.336868  1.561545  2.470592
H    -5.574162  1.947991  2.746099
H    -4.945363  1.930256  4.406124
H    -5.883915  -0.569017  4.292517
H    -8.041003  -1.477239  3.756189
H    -9.334279  -0.384490  4.095660
H    -8.975235  1.893275  3.427863
H    -7.448013  2.572749  3.850870
N    -0.624574  -0.797452  5.716768
C    0.314995  -1.085433  6.807771
H    -1.596470  -1.052109  5.875309
H    -0.153159  -0.809442  7.758606
H    1.228846  -0.504946  6.664919
H    0.552927  -2.156894  6.822342
Ca    2.136511  0.541282  2.603074
