37
Energy: -39741.9327595 eV PBE+vdW (tier 2 basis)
C    -1.572460  0.998735  0.712026
C    -0.979654  0.371179  1.928094
O    -0.277617  -0.684750  1.824478
H    -0.774677  1.224233  -0.009324
H    -2.140184  1.912168  0.916834
H    -2.233697  0.265237  0.227044
N    -1.206618  0.950518  3.118047
C    -0.863711  0.492780  4.487722
C    0.665579  0.391952  4.697441
O    1.344365  -0.546730  4.170802
H    -1.760293  1.803028  3.078251
H    -1.218789  1.312323  5.128120
C    -1.614310  -0.798753  4.895662
C    -1.605084  -1.093327  6.411127
C    -2.677389  -0.369319  7.254386
N    -4.024869  -0.945698  7.169276
C    -4.511212  -1.947729  7.937068
N    -5.761350  -2.375335  7.739805
N    -3.745135  -2.537620  8.861788
H    -1.182061  -1.651963  4.356157
H    -2.646638  -0.709254  4.526804
H    -0.621041  -0.849513  6.841662
H    -1.721121  -2.176126  6.555588
H    -2.781310  0.684562  6.962643
H    -2.356755  -0.332042  8.305713
H    -4.718492  -0.418284  6.650805
H    -6.334561  -2.031130  6.978162
H    -6.207388  -3.023187  8.381052
H    -4.105763  -3.306258  9.417931
H    -2.895288  -2.105328  9.200942
N    1.234871  1.302828  5.467591
C    2.663507  1.369038  5.797197
H    0.648443  2.048356  5.836584
H    3.101881  0.369934  5.734434
H    2.770499  1.756140  6.815478
H    3.179296  2.046751  5.104057
Ca    1.478025  -1.708413  2.377554
