37
Energy: -39740.6138946 eV PBE+vdW (tier 2 basis)
C    1.232309  -0.868813  1.724664
C    0.466348  0.415392  1.791417
O    0.956824  1.488223  1.378595
H    1.433279  -1.106008  0.670753
H    0.726007  -1.717976  2.195344
H    2.210421  -0.720481  2.200570
N    -0.799511  0.356855  2.304849
C    -1.712769  1.465256  2.627448
C    -2.029185  2.385245  1.436521
O    -3.289353  2.681862  1.201972
H    -1.124763  -0.562659  2.587655
H    -2.671400  0.974832  2.839788
C    -1.357510  2.239601  3.937186
C    0.050327  2.836761  4.085095
C    0.245243  3.442815  5.485273
N    1.615551  3.938199  5.649976
C    2.256002  4.106617  6.823350
N    1.598265  3.990820  7.982843
N    3.568374  4.367920  6.825876
H    -1.525609  1.517889  4.751055
H    -2.120135  3.024407  4.071529
H    0.230088  3.610148  3.322471
H    0.810438  2.059138  3.936341
H    0.070174  2.669945  6.248270
H    -0.479277  4.257266  5.654391
H    2.086981  4.294951  4.824493
H    2.100682  3.959675  8.863713
H    0.592608  4.091843  8.037523
H    4.144385  4.218751  6.005662
H    4.037991  4.703701  7.659896
N    -1.069335  2.855662  0.701703
C    -1.234366  3.718097  -0.463205
H    -0.087990  2.420829  0.961696
H    -0.242860  3.996697  -0.831199
H    -1.778332  4.634924  -0.199050
H    -1.758956  3.187860  -1.271326
Ca    -5.138608  3.049057  0.510943
