37
Energy: -39741.3875004 eV PBE+vdW (tier 2 basis)
C    -1.410014  0.806763  0.047388
C    -0.475287  0.471020  1.159272
O    0.755762  0.776236  1.070033
H    -2.396934  1.112760  0.407896
H    -1.544591  -0.062437  -0.617776
H    -0.969397  1.610166  -0.553211
N    -0.896067  -0.157412  2.292576
C    -1.679850  -1.405917  2.306729
C    -0.857772  -2.473723  1.502465
O    0.315741  -2.190524  1.083832
H    -0.174247  -0.141255  3.013991
H    -1.645222  -1.737619  3.356426
C    -3.165547  -1.286091  1.890267
C    -3.995312  -0.228891  2.653432
C    -4.626569  -0.727016  3.965978
N    -5.458209  0.321628  4.563137
C    -6.599694  0.138789  5.259953
N    -7.397638  1.184974  5.494664
N    -6.948581  -1.077976  5.695210
H    -3.636584  -2.271747  2.027068
H    -3.232449  -1.085770  0.814471
H    -4.807636  0.097992  1.990008
H    -3.375146  0.659383  2.851638
H    -3.854604  -1.053303  4.683536
H    -5.275637  -1.588503  3.753520
H    -5.116363  1.276609  4.510238
H    -8.131021  1.142391  6.194983
H    -7.320198  2.047179  4.966857
H    -7.877037  -1.244948  6.070135
H    -6.259505  -1.801510  5.858746
N    -1.375399  -3.667779  1.304006
C    -0.689846  -4.779951  0.627449
H    -2.312651  -3.848774  1.654035
H    -1.362955  -5.640875  0.615449
H    0.225718  -5.045712  1.168761
H    -0.443803  -4.502030  -0.403901
Ca    2.033898  -0.923826  0.706282
