37
Energy: -39740.3361004 eV PBE+vdW (tier 2 basis)
C    -0.795995  -1.296591  0.193643
C    -0.705909  -0.089616  1.072568
O    0.280574  0.686668  1.043809
H    -1.761651  -1.810655  0.243552
H    -0.011894  -2.008612  0.490950
H    -0.588604  -1.005923  -0.843888
N    -1.741991  0.155342  1.914710
C    -1.764468  1.112623  3.032550
C    -1.784474  2.574564  2.572348
O    -2.643047  3.398572  3.116863
H    -2.524448  -0.491571  1.878036
H    -2.753088  0.958406  3.480185
C    -0.723957  0.807388  4.182969
C    0.496959  1.712576  4.443846
C    1.800813  1.461821  3.674598
N    2.370463  0.133314  3.948606
C    3.117812  -0.591701  3.084185
N    2.931587  -0.489028  1.764622
N    4.029130  -1.444375  3.565884
H    -0.399340  -0.230898  4.027475
H    -1.310608  0.787963  5.109897
H    0.719419  1.628983  5.518901
H    0.245896  2.776104  4.306448
H    2.529701  2.231917  3.971789
H    1.649762  1.554475  2.597932
H    2.522282  -0.085088  4.930516
H    3.605539  -0.886555  1.120070
H    2.102208  -0.040089  1.371911
H    4.375515  -1.377607  4.516493
H    4.454164  -2.152798  2.976955
N    -0.943255  2.973186  1.660741
C    -0.846986  4.319293  1.099487
H    -0.307009  2.199496  1.313941
H    -0.644603  5.056975  1.886947
H    -1.768971  4.582551  0.563617
H    -0.019953  4.336992  0.384543
Ca    -4.055472  4.685589  3.775036
