37
Energy: -39741.821114 eV PBE+vdW (tier 2 basis)
C    0.983070  0.679820  0.449396
C    0.373662  -0.407796  1.267996
O    1.106607  -1.320181  1.764993
H    1.756850  1.190910  1.039178
H    0.261543  1.418978  0.086508
H    1.495886  0.224932  -0.411087
N    -0.956088  -0.388947  1.460641
C    -1.845270  -1.385964  2.105851
C    -1.499085  -1.577360  3.598835
O    -0.468354  -2.241286  3.949381
H    -1.436953  0.397069  1.029805
H    -2.834334  -0.914470  2.062228
C    -1.915050  -2.727363  1.336145
C    -3.094090  -3.635762  1.747821
C    -4.450212  -3.344453  1.068689
N    -4.573754  -3.845359  -0.305567
C    -4.983593  -5.082870  -0.667328
N    -5.037903  -5.401063  -1.963609
N    -5.297686  -5.999011  0.255698
H    -0.971239  -3.272024  1.469538
H    -1.969455  -2.487440  0.264110
H    -3.249194  -3.590475  2.837562
H    -2.818841  -4.679049  1.541737
H    -4.654918  -2.266452  1.016417
H    -5.266322  -3.749937  1.684451
H    -4.558321  -3.156399  -1.049345
H    -5.468515  -6.263785  -2.280138
H    -4.704454  -4.774046  -2.686705
H    -5.580030  -6.934248  -0.019628
H    -5.492331  -5.741360  1.214766
N    -2.293468  -1.067708  4.525066
C    -3.508147  -0.252078  4.371595
H    -2.003934  -1.269318  5.484298
H    -3.322144  0.622810  3.738565
H    -3.795768  0.106482  5.364164
H    -4.338248  -0.847745  3.971925
Ca    1.586086  -2.526053  3.427046
