37
Energy: -39742.0047477 eV PBE+vdW (tier 2 basis)
C    0.617810  -1.612582  1.132923
C    0.312514  -0.632640  2.212427
O    1.146484  0.277389  2.516918
H    1.575160  -2.108639  1.342811
H    0.751515  -1.060351  0.190264
H    -0.160234  -2.370368  0.994550
N    -0.865868  -0.717266  2.854393
C    -1.395893  0.264156  3.819350
C    -0.675766  0.117770  5.184585
O    0.476032  0.647972  5.308283
H    -1.477424  -1.480066  2.575006
H    -1.061765  1.251252  3.464907
C    -2.945339  0.316177  3.775702
C    -3.770037  -0.949657  4.102315
C    -5.179350  -0.982138  3.473844
N    -6.129177  -0.052288  4.091722
C    -7.465839  -0.256872  4.178663
N    -8.202994  0.574547  4.921893
N    -8.045960  -1.286607  3.556135
H    -3.185506  0.638295  2.750247
H    -3.244130  1.150108  4.427793
H    -3.888812  -1.094814  5.187871
H    -3.271684  -1.857759  3.727439
H    -5.578257  -1.995520  3.611704
H    -5.104492  -0.795748  2.389008
H    -5.826327  0.901889  4.260050
H    -7.786372  1.183970  5.616274
H    -9.215473  0.588492  4.850357
H    -9.005879  -1.544116  3.764790
H    -7.624630  -1.735646  2.751802
N    -1.234331  -0.533455  6.185496
C    -0.621830  -0.724368  7.507550
H    -2.143905  -0.957183  6.027132
H    -0.081882  0.181500  7.798396
H    0.071590  -1.575092  7.487102
H    -1.415298  -0.926356  8.232382
Ca    2.142350  1.272017  4.102914
