37
Energy: -39740.4157647 eV PBE+vdW (tier 2 basis)
C    -1.085890  0.689990  0.021092
C    -0.798066  0.357767  1.451436
O    0.313739  -0.078846  1.832894
H    -2.045687  1.194368  -0.133202
H    -1.089800  -0.241815  -0.563464
H    -0.275003  1.313422  -0.375456
N    -1.796469  0.550869  2.354740
C    -1.794418  0.078945  3.749854
C    -0.874706  0.924182  4.639937
O    -1.318529  1.371139  5.786116
H    -2.675769  0.925251  2.010212
H    -2.808694  0.293146  4.107019
C    -1.598961  -1.475190  3.897758
C    -0.206229  -2.071172  4.218056
C    0.105173  -3.371781  3.466366
N    0.504941  -3.089445  2.081070
C    0.950124  -4.012241  1.211069
N    1.535669  -3.616193  0.071402
N    0.808350  -5.316781  1.467085
H    -1.985917  -1.886212  2.954981
H    -2.304566  -1.811180  4.668499
H    -0.144155  -2.299788  5.289816
H    0.608860  -1.367760  4.011165
H    -0.779379  -4.029909  3.480586
H    0.922361  -3.898496  3.982095
H    0.595210  -2.106719  1.815874
H    1.786533  -4.280712  -0.651983
H    1.868465  -2.667073  -0.045725
H    0.235308  -5.654727  2.229574
H    1.220974  -6.019467  0.863559
N    0.338285  1.179799  4.233852
C    1.337245  1.985100  4.934055
H    0.570660  0.737817  3.304499
H    2.254696  1.989933  4.339418
H    1.561906  1.556838  5.919685
H    0.991871  3.022103  5.041508
Ca    -1.973812  2.230183  7.493133
