37
Energy: -39742.036227 eV PBE+vdW (tier 2 basis)
C    -2.482438  -0.532419  -0.156003
C    -1.940277  -0.392522  1.227648
O    -1.148695  -1.272057  1.693171
H    -2.995955  -1.501114  -0.238282
H    -1.648486  -0.560826  -0.871739
H    -3.171463  0.267763  -0.445309
N    -2.311269  0.680369  1.946363
C    -2.027065  1.041827  3.355143
C    -0.524678  1.241467  3.631944
O    0.285043  0.254896  3.612489
H    -2.926102  1.325819  1.456966
H    -2.504734  2.021744  3.471786
C    -2.668450  0.090686  4.397796
C    -4.205083  0.186925  4.439577
C    -4.818546  -0.735169  5.511835
N    -6.285227  -0.719770  5.507150
C    -7.103866  -0.414420  6.537131
N    -8.354691  -0.884566  6.537451
N    -6.686788  0.353523  7.551033
H    -2.251281  0.356812  5.381835
H    -2.354013  -0.944274  4.198314
H    -4.624501  -0.082624  3.457870
H    -4.511177  1.226223  4.635520
H    -4.470533  -0.460743  6.515834
H    -4.492407  -1.774370  5.349991
H    -6.738125  -1.163996  4.713467
H    -9.065627  -0.493837  7.147661
H    -8.632762  -1.671332  5.961080
H    -7.240344  0.440103  8.397006
H    -5.895527  0.976690  7.459854
N    -0.074177  2.444238  3.942668
C    -0.788406  3.728221  4.019479
H    0.921976  2.470294  4.170389
H    -1.368294  3.914972  3.108889
H    -0.038939  4.520014  4.108150
H    -1.435090  3.767869  4.904744
Ca    0.690995  -1.612415  2.685096
