37
Energy: -39740.4777706 eV PBE+vdW (tier 2 basis)
C    2.098744  0.025611  1.474935
C    0.938532  -0.634702  2.121566
O    1.136140  -1.776520  2.742649
H    1.808831  0.897350  0.880647
H    2.585824  -0.692054  0.799223
H    2.832964  0.298516  2.248057
N    -0.292091  -0.157841  2.124495
C    -0.899002  1.082463  1.542486
C    -0.767589  1.089471  -0.011894
O    0.282331  1.477055  -0.526785
H    -0.962394  -0.749059  2.616792
H    -1.957086  0.985070  1.822106
C    -0.364901  2.388698  2.158957
C    -1.231804  3.604289  1.737280
C    -0.635183  4.548377  0.683735
N    0.317354  5.494070  1.287877
C    1.073407  6.365694  0.589491
N    1.874864  7.217650  1.241410
N    1.056210  6.361639  -0.747226
H    0.679416  2.542998  1.857515
H    -0.379552  2.280812  3.251464
H    -1.502633  4.187337  2.629763
H    -2.197538  3.258380  1.340665
H    -1.459614  5.106090  0.210430
H    -0.113033  3.969462  -0.092308
H    0.148241  5.738618  2.259578
H    2.328271  7.988086  0.763104
H    2.006601  7.164415  2.244078
H    1.694998  6.940442  -1.281173
H    0.332569  5.882647  -1.267478
N    -1.856659  0.671530  -0.683687
C    -1.933901  0.624330  -2.144442
H    -2.690761  0.419129  -0.162942
H    -2.270965  -0.367295  -2.467572
H    -0.939624  0.824900  -2.552033
H    -2.640317  1.377000  -2.516215
Ca    1.825446  -3.505362  3.516918
