37
Energy: -39742.3037214 eV PBE+vdW (tier 2 basis)
C    -3.083219  2.567127  4.743934
C    -2.741051  1.427522  3.846347
O    -2.957475  1.500364  2.595173
H    -2.524988  3.454531  4.410488
H    -2.860645  2.377880  5.799120
H    -4.149138  2.812308  4.638829
N    -2.191598  0.324113  4.380946
C    -1.682616  -0.848847  3.643859
C    -2.871965  -1.700811  3.123659
O    -3.490889  -1.297164  2.085223
H    -2.093394  0.311064  5.393866
H    -1.197350  -0.468806  2.731180
C    -0.636550  -1.609966  4.482088
C    0.693252  -0.855352  4.683694
C    1.695264  -1.691059  5.499660
N    2.962867  -0.975879  5.668725
C    4.154083  -1.547348  5.949095
N    4.232290  -2.846072  6.259227
N    5.265822  -0.807541  5.886511
H    -0.427711  -2.557927  3.963946
H    -1.063909  -1.873917  5.465671
H    0.516242  0.102727  5.198094
H    1.135528  -0.617544  3.704683
H    1.905784  -2.633174  4.972368
H    1.260256  -1.941455  6.482423
H    2.924820  0.035882  5.747465
H    5.132617  -3.311735  6.313654
H    3.438635  -3.355815  6.627391
H    5.285786  0.089640  5.415322
H    6.139351  -1.132751  6.287674
N    -3.220461  -2.804592  3.753377
C    -4.322330  -3.698066  3.375028
H    -2.686676  -3.067727  4.578701
H    -4.620079  -3.494454  2.344368
H    -5.175684  -3.542661  4.047743
H    -3.981726  -4.735254  3.463446
Ca    -3.868145  0.486758  0.965023
