37
Energy: -39740.4973776 eV PBE+vdW (tier 2 basis)
C    0.126491  -0.408941  0.423026
C    -0.254568  0.586104  1.458593
O    0.353599  1.743192  1.471346
H    -0.313976  -0.105937  -0.539469
H    -0.221752  -1.419790  0.652326
H    1.217852  -0.426280  0.311769
N    -1.162459  0.346832  2.382241
C    -2.187375  -0.723953  2.365177
C    -2.900064  -0.637134  0.974204
O    -2.959452  0.458224  0.419573
H    -1.358235  1.124378  3.014264
H    -1.684179  -1.687313  2.524180
C    -3.162643  -0.399204  3.524956
C    -4.359935  -1.334628  3.767131
C    -4.058228  -2.607571  4.570810
N    -5.320643  -3.282231  4.897250
C    -5.449319  -4.514392  5.425217
N    -6.663917  -5.064797  5.527308
N    -4.368419  -5.203130  5.814346
H    -3.573710  0.599853  3.312062
H    -2.574839  -0.313539  4.453227
H    -4.857545  -1.589401  2.820921
H    -5.090461  -0.742964  4.340093
H    -3.520520  -2.335429  5.495294
H    -3.426983  -3.306977  4.002220
H    -6.163208  -2.715315  4.867148
H    -6.825225  -5.888525  6.096830
H    -7.470683  -4.670677  5.057009
H    -4.449087  -6.172656  6.102070
H    -3.499221  -4.736347  6.040595
N    -3.423772  -1.764254  0.443492
C    -3.354018  -3.149923  0.892951
H    -3.924109  -1.590590  -0.427931
H    -3.268076  -3.802452  0.016960
H    -4.253047  -3.449260  1.450411
H    -2.470197  -3.323387  1.516722
Ca    1.262828  3.475895  0.989492
