37
Energy: -39741.9596703 eV PBE+vdW (tier 2 basis)
C    -1.649220  0.978080  0.775701
C    -1.034823  0.319489  1.964232
O    -0.318376  -0.721798  1.818747
H    -0.862397  1.237714  0.053801
H    -2.226878  1.876414  1.016327
H    -2.306050  0.251907  0.273971
N    -1.258299  0.855544  3.175139
C    -0.894879  0.357500  4.524930
C    0.637760  0.264398  4.714632
O    1.318829  -0.652189  4.153555
H    -1.828251  1.698267  3.169995
H    -1.252701  1.149455  5.197630
C    -1.628126  -0.954873  4.896854
C    -1.574879  -1.312804  6.400544
C    -2.660370  -0.696617  7.304806
N    -3.918607  -1.451585  7.270517
C    -4.785930  -1.579691  8.298422
N    -5.742869  -2.511975  8.237144
N    -4.686391  -0.797856  9.378409
H    -1.203461  -1.781380  4.311799
H    -2.666181  -0.848060  4.548625
H    -0.598892  -1.024839  6.819591
H    -1.615254  -2.405166  6.511362
H    -2.843936  0.360177  7.043093
H    -2.295955  -0.718100  8.340450
H    -4.204275  -1.875273  6.393891
H    -5.686237  -3.297192  7.598783
H    -6.530112  -2.501008  8.877675
H    -5.216065  -1.005206  10.219298
H    -4.211495  0.095946  9.352795
N    1.207793  1.157381  5.504877
C    2.639569  1.225322  5.820346
H    0.619065  1.886164  5.902380
H    2.755313  1.594466  6.844242
H    3.144820  1.917872  5.134143
H    3.082326  0.229718  5.735490
Ca    1.451434  -1.749202  2.319802
