37
Energy: -39741.8436406 eV PBE+vdW (tier 2 basis)
C    0.915364  0.695318  0.571066
C    0.362787  -0.394429  1.426089
O    1.146116  -1.209815  2.007783
H    0.151392  1.346685  0.134396
H    1.505639  0.240465  -0.238281
H    1.613654  1.304341  1.162113
N    -0.971557  -0.482494  1.560079
C    -1.799310  -1.517702  2.225681
C    -1.497629  -1.602698  3.738507
O    -0.439804  -2.175385  4.161297
H    -1.498007  0.229575  1.059437
H    -2.823103  -1.139351  2.120035
C    -1.722175  -2.896337  1.526110
C    -2.817710  -3.895159  1.968241
C    -4.162758  -3.835101  1.218083
N    -4.133511  -4.570355  -0.051777
C    -5.176756  -5.227876  -0.603855
N    -4.954672  -6.088889  -1.602717
N    -6.420738  -5.039225  -0.151399
H    -0.733591  -3.338609  1.705577
H    -1.770128  -2.704703  0.443853
H    -3.034942  -3.763565  3.039260
H    -2.425624  -4.918231  1.887198
H    -4.476308  -2.790624  1.045558
H    -4.927823  -4.306608  1.849075
H    -3.281182  -4.550301  -0.602072
H    -5.715553  -6.434692  -2.178673
H    -4.035463  -6.476462  -1.782063
H    -7.175440  -5.654799  -0.438109
H    -6.687096  -4.203773  0.354662
N    -2.357439  -1.095853  4.605898
C    -3.614289  -0.371384  4.362712
H    -2.092423  -1.223891  5.584659
H    -4.386667  -1.040553  3.963823
H    -3.458370  0.480289  3.691080
H    -3.965451  0.017209  5.322979
Ca    1.653566  -2.302018  3.739696
