37
Energy: -39741.7922703 eV PBE+vdW (tier 2 basis)
C    -0.680006  -0.226886  0.179306
C    -0.227001  0.351048  1.478941
O    0.990031  0.687405  1.634390
H    -0.608092  0.564997  -0.583543
H    -1.708565  -0.602216  0.194834
H    -0.000240  -1.027182  -0.138966
N    -1.138857  0.497738  2.455210
C    -1.144117  1.319911  3.682161
C    0.111250  1.231110  4.562602
O    0.998511  0.325371  4.413653
H    -2.073678  0.200702  2.183687
H    -1.207365  2.374388  3.360647
C    -2.455842  1.023427  4.464494
C    -2.602350  -0.364160  5.114134
C    -3.969507  -0.474202  5.814483
N    -4.154940  -1.784832  6.441949
C    -5.347659  -2.325222  6.776690
N    -5.396457  -3.593878  7.195892
N    -6.475236  -1.615402  6.664695
H    -3.282757  1.201611  3.757763
H    -2.571892  1.801238  5.229883
H    -1.798214  -0.522696  5.850953
H    -2.514249  -1.166824  4.366789
H    -4.771847  -0.337667  5.074435
H    -4.064131  0.328849  6.565465
H    -3.335899  -2.235760  6.838209
H    -4.622824  -4.233607  7.057176
H    -6.225728  -3.970072  7.643779
H    -7.381204  -2.062936  6.762293
H    -6.472303  -0.602801  6.658746
N    0.276291  2.144277  5.512588
C    -0.509494  3.338028  5.851042
H    1.096358  1.980426  6.098545
H    -1.216826  3.124263  6.662372
H    -1.046975  3.722522  4.978895
H    0.183867  4.113280  6.194203
Ca    2.547025  0.103420  2.933609
