37
Energy: -39742.2628712 eV PBE+vdW (tier 2 basis)
C    -4.437238  2.150186  4.498479
C    -3.512444  1.265791  3.736627
O    -3.500373  1.279238  2.463975
H    -4.384069  2.010623  5.583095
H    -5.469339  1.986401  4.160007
H    -4.191590  3.196383  4.260110
N    -2.679600  0.458965  4.413760
C    -1.587621  -0.355524  3.840112
C    -2.187453  -1.581766  3.106079
O    -2.614587  -1.425666  1.916225
H    -2.749913  0.483654  5.429281
H    -1.119780  0.245753  3.044972
C    -0.539204  -0.620107  4.940322
C    0.800430  -1.203755  4.454087
C    1.832646  -1.238300  5.595996
N    3.122856  -1.751980  5.129143
C    4.097493  -2.250267  5.921470
N    3.992998  -2.188836  7.253440
N    5.159514  -2.837577  5.361009
H    -0.968146  -1.251908  5.737930
H    -0.346330  0.354957  5.414571
H    1.189677  -0.576783  3.635690
H    0.672442  -2.218370  4.048664
H    1.476504  -1.896729  6.402137
H    1.949965  -0.223796  6.013816
H    3.393377  -1.537784  4.173871
H    4.642451  -2.694942  7.847259
H    3.406267  -1.502527  7.711962
H    5.161591  -3.124489  4.388906
H    5.997892  -3.035197  5.897553
N    -2.265576  -2.744286  3.723718
C    -2.851039  -3.969512  3.165682
H    -1.927213  -2.791747  4.681935
H    -2.280282  -4.830034  3.528569
H    -2.806076  -3.931521  2.074623
H    -3.894666  -4.071018  3.491204
Ca    -3.502563  0.112470  0.701721
