37
Energy: -39739.5775897 eV PBE+vdW (tier 2 basis)
C    -5.068710  -0.172124  3.161119
C    -3.664350  -0.680353  3.406686
O    -3.048554  -0.499091  4.435062
H    -5.121793  0.456534  2.260194
H    -5.367197  0.428088  4.025306
H    -5.786448  -1.002830  3.062081
N    -3.036252  -1.392515  2.367974
C    -3.616228  -1.895566  1.157390
C    -4.573513  -3.086562  1.388057
O    -5.696837  -3.097880  0.709904
H    -2.079091  -1.641055  2.602662
H    -4.299735  -1.131496  0.752329
C    -2.560190  -2.117010  0.033132
C    -1.298529  -2.938254  0.358753
C    -0.247821  -2.778236  -0.757194
N    0.989948  -3.493809  -0.437304
C    2.231300  -3.137754  -0.833049
N    3.290068  -3.751416  -0.294250
N    2.411279  -2.165641  -1.734001
H    -3.067002  -2.547677  -0.843586
H    -2.255914  -1.100298  -0.256497
H    -1.548858  -4.004521  0.478495
H    -0.832949  -2.600762  1.296903
H    -0.000598  -1.712444  -0.863128
H    -0.657375  -3.128181  -1.719226
H    0.905244  -4.416049  -0.020411
H    3.219004  -4.286953  0.563353
H    4.212365  -3.674667  -0.710468
H    3.335583  -1.781780  -1.903214
H    1.688162  -1.910593  -2.395345
N    -4.391279  -4.033792  2.280080
C    -3.275303  -4.263137  3.215063
H    -5.161391  -4.698156  2.366045
H    -2.312700  -4.157902  2.711596
H    -3.334408  -3.567056  4.061291
H    -3.367192  -5.288403  3.585456
Ca    -7.517968  -2.886006  -0.145397
