37
Energy: -39741.0724226 eV PBE+vdW (tier 2 basis)
C    0.036304  0.318890  0.102551
C    0.269431  -0.312823  1.433055
O    1.439430  -0.721795  1.727857
H    -0.804353  1.014890  0.095130
H    -0.124463  -0.450690  -0.668683
H    0.955316  0.852100  -0.174146
N    -0.700257  -0.433759  2.381698
C    -2.005768  -1.100152  2.210237
C    -1.682371  -2.625301  2.112385
O    -0.539104  -2.990990  1.659150
H    -0.289357  -0.642331  3.294522
H    -2.537058  -0.927745  3.157169
C    -2.890946  -0.515961  1.072327
C    -4.401978  -0.776169  1.233950
C    -5.326784  0.211289  0.502147
N    -5.378009  0.011043  -0.953296
C    -5.981745  0.873940  -1.807549
N    -5.991359  0.600136  -3.116374
N    -6.529104  2.006992  -1.360323
H    -2.539352  -0.857765  0.090083
H    -2.727139  0.570219  1.115291
H    -4.676818  -0.676935  2.293954
H    -4.665169  -1.805559  0.947020
H    -4.988525  1.240089  0.695702
H    -6.335283  0.101840  0.933882
H    -5.329591  -0.950613  -1.278661
H    -5.428306  -0.142815  -3.512573
H    -6.572980  1.124459  -3.761821
H    -6.861615  2.715602  -2.006969
H    -6.780653  2.134879  -0.387648
N    -2.532131  -3.547474  2.528917
C    -3.808778  -3.434353  3.243383
H    -2.204033  -4.504915  2.383412
H    -4.646198  -3.667473  2.575277
H    -3.938319  -2.436180  3.667494
H    -3.804510  -4.162696  4.062448
Ca    1.634380  -2.858677  1.692479
