37
Energy: -39741.3364007 eV PBE+vdW (tier 2 basis)
C    -2.246492  1.352757  -0.052905
C    -1.102910  1.069980  0.862906
O    0.062256  1.493962  0.585147
H    -3.156350  1.606312  0.500707
H    -2.464345  0.473847  -0.681639
H    -1.976904  2.178851  -0.719056
N    -1.273390  0.350303  2.003285
C    -1.962633  -0.952691  2.048709
C    -1.311936  -1.859852  0.951128
O    -0.225662  -1.490191  0.388308
H    -0.454372  0.394578  2.610163
H    -1.630447  -1.394964  3.002470
C    -3.509247  -0.916921  2.110604
C    -4.011911  -0.038916  3.276341
C    -5.428138  -0.329577  3.795936
N    -6.496615  0.129179  2.895833
C    -7.804159  -0.189730  3.058407
N    -8.703691  0.269540  2.182179
N    -8.193520  -0.986355  4.057502
H    -3.852278  -1.948952  2.285665
H    -3.941335  -0.610438  1.149145
H    -3.916002  1.028973  3.025673
H    -3.352578  -0.186623  4.145050
H    -5.525208  0.160778  4.778583
H    -5.552086  -1.412080  3.948293
H    -6.326928  1.000303  2.400649
H    -9.699905  0.205406  2.364490
H    -8.427961  0.695271  1.305365
H    -9.145165  -1.337342  4.101891
H    -7.626029  -1.123662  4.885202
N    -1.860585  -3.021945  0.665802
C    -1.294938  -4.013586  -0.261985
H    -2.719791  -3.275187  1.146799
H    -1.985699  -4.858116  -0.324454
H    -0.325223  -4.367937  0.107578
H    -1.172707  -3.573703  -1.258141
Ca    1.367853  -0.092610  -0.084115
