37
Energy: -39742.0501229 eV PBE+vdW (tier 2 basis)
C    0.028247  -0.002267  -0.149619
C    -0.051014  -0.398205  1.284043
O    1.002487  -0.509141  1.987977
H    0.669237  -0.712230  -0.690918
H    0.522044  0.978350  -0.217462
H    -0.946901  0.050858  -0.644543
N    -1.256191  -0.632818  1.831693
C    -1.499818  -0.930328  3.254676
C    -0.967749  -2.348866  3.601005
O    0.236182  -2.418270  4.029271
H    -2.065691  -0.555385  1.219959
H    -0.831709  -0.272831  3.831383
C    -2.951342  -0.605544  3.664384
C    -3.227476  0.901490  3.836761
C    -4.707656  1.164138  4.177354
N    -5.028541  2.593069  4.266164
C    -5.676750  3.221766  5.271524
N    -6.334728  4.356040  5.014019
N    -5.660372  2.736744  6.518608
H    -3.153411  -1.125299  4.612936
H    -3.654831  -1.029977  2.932841
H    -2.972705  1.443239  2.911993
H    -2.586463  1.317115  4.628661
H    -4.982310  0.684049  5.124863
H    -5.356886  0.714776  3.409065
H    -4.972260  3.118984  3.398351
H    -6.612670  4.613445  4.073271
H    -6.624302  4.979763  5.760716
H    -6.281117  3.110913  7.228634
H    -4.953063  2.084509  6.830356
N    -1.664656  -3.462223  3.464623
C    -3.010205  -3.701563  2.928214
H    -1.160737  -4.295935  3.774940
H    -3.214067  -3.054193  2.070594
H    -3.774293  -3.564958  3.703023
H    -3.049536  -4.739754  2.584207
Ca    2.117252  -1.574460  3.455436
