37
Energy: -39740.4263226 eV PBE+vdW (tier 2 basis)
C    0.089713  0.625377  0.500261
C    0.022020  -0.410274  1.567452
O    1.168586  -0.811456  2.062548
H    0.541248  1.529778  0.939587
H    -0.876885  0.894349  0.079673
H    0.733092  0.275507  -0.315101
N    -1.077610  -0.794625  2.221847
C    -2.389476  -1.066554  1.604595
C    -2.059149  -2.072120  0.440667
O    -0.953030  -1.960931  -0.101991
H    -0.873178  -1.395149  3.020258
H    -2.972391  -1.546378  2.400401
C    -3.140701  0.195957  1.098670
C    -4.671422  0.107958  0.946982
C    -5.484876  0.192232  2.246876
N    -6.907347  0.340852  1.915582
C    -7.940167  0.233145  2.773036
N    -9.191270  0.226510  2.300778
N    -7.721119  0.098562  4.087679
H    -2.752275  0.466698  0.109830
H    -2.889774  1.025951  1.775805
H    -4.964406  -0.783540  0.376781
H    -4.953448  0.968657  0.320709
H    -5.367161  -0.713146  2.862422
H    -5.137586  1.055675  2.839901
H    -7.126074  0.700683  0.991024
H    -9.988696  0.358010  2.913798
H    -9.389724  0.106878  1.314001
H    -6.855065  0.406405  4.511645
H    -8.487413  -0.104687  4.720779
N    -2.967690  -2.981702  0.058271
C    -4.230274  -3.386806  0.668442
H    -2.663672  -3.531379  -0.745628
H    -4.225211  -4.472159  0.826605
H    -5.079562  -3.137710  0.018956
H    -4.369486  -2.907153  1.641625
Ca    3.105683  -1.330725  2.197786
