37
Energy: -39741.8304633 eV PBE+vdW (tier 2 basis)
C    -0.125203  -0.958639  0.269979
C    0.143362  0.139251  1.243725
O    1.291553  0.685747  1.286607
H    0.574287  -1.783557  0.471207
H    0.092196  -0.606068  -0.747873
H    -1.149980  -1.342259  0.305885
N    -0.854945  0.524187  2.054230
C    -0.877432  1.459341  3.205359
C    -0.461550  2.893972  2.825164
O    0.752112  3.176488  2.544622
H    -1.726459  0.017281  1.916407
H    -1.938947  1.499556  3.475981
C    -0.130223  0.908558  4.448801
C    -0.463754  1.699555  5.735469
C    -0.594191  0.879460  7.028914
N    0.685661  0.375532  7.546292
C    0.785147  -0.545755  8.535867
N    1.995786  -0.951086  8.933637
N    -0.308976  -1.077408  9.087400
H    0.951388  0.874197  4.261789
H    -0.458463  -0.135639  4.554776
H    -1.445906  2.183949  5.621612
H    0.246913  2.526666  5.885564
H    -1.250305  0.015516  6.846675
H    -1.080855  1.519879  7.783021
H    1.486260  0.994569  7.453733
H    2.832788  -0.735097  8.405901
H    2.118666  -1.496504  9.780557
H    -0.240211  -1.865305  9.724094
H    -1.212012  -0.622023  9.033603
N    -1.366441  3.858195  2.828127
C    -2.815726  3.802654  3.075511
H    -0.986514  4.784979  2.623588
H    -3.259773  4.709719  2.654143
H    -3.031747  3.782273  4.151073
H    -3.272487  2.942111  2.576357
Ca    2.404336  2.468061  1.396089
