37
Energy: -39742.1942767 eV PBE+vdW (tier 2 basis)
C    2.599283  2.908742  2.704920
C    1.471955  2.452376  1.844141
O    1.696120  1.856979  0.742711
H    2.276877  3.434156  3.609794
H    3.267255  3.560925  2.125829
H    3.194795  2.029237  2.993005
N    0.211617  2.670726  2.255865
C    -1.021162  2.175663  1.611593
C    -1.312432  3.006710  0.334588
O    -0.642526  2.746146  -0.717701
H    0.102118  3.197514  3.119838
H    -0.800317  1.164034  1.235955
C    -2.166957  2.081904  2.641580
C    -1.929539  0.996451  3.711361
C    -2.953025  0.945532  4.856887
N    -4.244742  0.373640  4.450135
C    -5.364202  0.411853  5.213071
N    -6.493984  -0.127048  4.743433
N    -5.358138  1.014514  6.405415
H    -3.097461  1.870523  2.095065
H    -2.306301  3.058874  3.137312
H    -0.952824  1.149895  4.192843
H    -1.862929  0.006106  3.232298
H    -3.133872  1.959624  5.243522
H    -2.513575  0.347918  5.672117
H    -4.208391  -0.388379  3.778259
H    -7.296569  -0.280475  5.345227
H    -6.591025  -0.408435  3.775013
H    -6.222596  1.165328  6.916084
H    -4.500301  1.178274  6.918297
N    -2.224744  3.957718  0.358696
C    -2.587337  4.826889  -0.767540
H    -2.716891  4.118386  1.234561
H    -2.119651  5.812416  -0.644632
H    -3.675587  4.947640  -0.784271
H    -2.252699  4.371935  -1.702297
Ca    1.219758  1.872712  -1.324975
