37
Energy: -39741.2849455 eV PBE+vdW (tier 2 basis)
C    0.347660  -1.789052  -0.266600
C    0.619196  -1.689196  1.196036
O    1.723183  -2.123976  1.655734
H    -0.312298  -1.001731  -0.637431
H    -0.096549  -2.767081  -0.512510
H    1.309901  -1.740459  -0.791649
N    -0.249963  -1.110709  2.073774
C    -1.662891  -1.491442  2.253172
C    -1.664074  -2.945385  2.830191
O    -0.597754  -3.651940  2.760741
H    0.209217  -0.931705  2.969042
H    -2.035680  -0.828453  3.049353
C    -2.578230  -1.325143  1.017611
C    -2.660422  0.116609  0.455233
C    -3.913871  0.891160  0.901524
N    -3.934136  2.229358  0.305678
C    -5.026705  2.910832  -0.100537
N    -4.873443  3.993437  -0.869149
N    -6.255416  2.501601  0.237329
H    -3.581012  -1.671111  1.302220
H    -2.261972  -2.015904  0.227972
H    -2.668548  0.064423  -0.641948
H    -1.757577  0.681750  0.734924
H    -3.961759  0.964311  2.001652
H    -4.811152  0.356967  0.558661
H    -3.054622  2.736250  0.267463
H    -4.007950  4.182707  -1.362116
H    -5.630105  4.656431  -1.003533
H    -7.074210  2.910985  -0.201454
H    -6.420145  1.938930  1.062641
N    -2.736808  -3.444952  3.413833
C    -4.034133  -2.822701  3.695971
H    -2.633778  -4.411285  3.730871
H    -4.369592  -3.164888  4.681143
H    -4.777477  -3.128491  2.948473
H    -3.949701  -1.732598  3.721514
Ca    1.543262  -3.982265  2.728400
