37
Energy: -39740.5491199 eV PBE+vdW (tier 2 basis)
C    -0.351873  1.266970  1.194028
C    -0.611012  -0.002307  1.946847
O    0.280018  -0.852622  2.156342
H    0.372213  1.870518  1.759395
H    -1.248209  1.867431  1.005536
H    0.131009  1.027266  0.237454
N    -1.878432  -0.205416  2.414098
C    -2.354527  -1.436706  3.058791
C    -1.778764  -1.589366  4.479247
O    -2.578110  -1.756478  5.500711
H    -2.565103  0.525494  2.255557
H    -3.437014  -1.301469  3.179135
C    -2.122492  -2.758727  2.268464
C    -2.659165  -2.805699  0.824856
C    -1.776608  -2.206186  -0.287090
N    -0.429898  -2.778154  -0.392129
C    0.002181  -3.625280  -1.346565
N    -0.859352  -4.324839  -2.093117
N    1.318152  -3.775813  -1.543687
H    -2.635311  -3.543901  2.844161
H    -1.058128  -3.023573  2.286749
H    -3.643709  -2.317105  0.759413
H    -2.842486  -3.864930  0.592118
H    -1.657943  -1.123292  -0.165027
H    -2.284395  -2.330440  -1.252627
H    0.279194  -2.384309  0.222025
H    -0.551839  -4.812131  -2.927886
H    -1.835930  -4.416400  -1.846211
H    1.987236  -3.091518  -1.210975
H    1.682628  -4.529985  -2.115721
N    -0.482592  -1.571753  4.622065
C    0.253650  -1.699440  5.877561
H    0.036426  -1.405296  3.713290
H    1.323199  -1.645239  5.657217
H    0.045902  -2.667551  6.352439
H    0.001288  -0.878416  6.562386
Ca    -3.680147  -1.941711  7.180135
