37
Energy: -39740.2200194 eV PBE+vdW (tier 2 basis)
C    0.448723  -1.260854  0.673663
C    0.130382  -0.149117  1.617218
O    1.100652  0.597760  2.070658
H    0.932555  -0.858893  -0.228613
H    -0.437718  -1.824334  0.362641
H    1.151616  -1.961973  1.147333
N    -1.119816  0.055075  1.980268
C    -1.689170  1.069631  2.891606
C    -2.692022  0.388597  3.877306
O    -3.848752  0.803151  3.944957
H    -1.793856  -0.581764  1.554746
H    -0.850479  1.458941  3.486603
C    -2.314534  2.254365  2.115793
C    -3.294033  1.971926  0.952770
C    -4.803813  1.915631  1.239795
N    -5.359266  3.203137  1.678066
C    -6.171331  3.400447  2.739831
N    -7.009037  4.446292  2.731990
N    -6.121064  2.590041  3.797615
H    -1.469348  2.829211  1.710654
H    -2.786276  2.905541  2.864691
H    -3.038121  1.038640  0.426263
H    -3.127403  2.753727  0.197053
H    -5.045569  1.158659  1.989263
H    -5.314977  1.623875  0.310177
H    -5.377258  3.940356  0.978619
H    -7.479225  4.750013  3.577413
H    -7.274218  4.910626  1.871092
H    -6.847732  2.620377  4.503112
H    -5.350087  1.933043  3.926615
N    -2.251459  -0.629496  4.646004
C    -0.906822  -1.166304  4.813241
H    -2.975940  -1.012187  5.252936
H    -0.827727  -1.595975  5.817139
H    -0.152508  -0.371884  4.739784
H    -0.683385  -1.962676  4.088564
Ca    2.983200  1.340225  2.283567
