37
Energy: -39740.6122308 eV PBE+vdW (tier 2 basis)
C    -0.944308  0.623970  0.577873
C    -0.166001  0.047834  1.709415
O    1.114343  0.326934  1.749303
H    -1.979886  0.287837  0.545474
H    -0.467369  0.370291  -0.374819
H    -0.938778  1.720297  0.691788
N    -0.701848  -0.484957  2.815401
C    -1.789490  -1.475927  2.798011
C    -1.335907  -2.522989  1.713320
O    -0.548547  -2.150602  0.832635
H    -0.012884  -0.654353  3.547681
H    -1.761307  -1.939377  3.794723
C    -3.219030  -0.905000  2.586610
C    -4.324141  -1.851031  3.089845
C    -5.762436  -1.340409  2.919238
N    -6.123053  -0.310307  3.904544
C    -7.267299  0.407165  3.865823
N    -7.500718  1.327363  4.809204
N    -8.147759  0.232095  2.875537
H    -3.397176  -0.695230  1.523433
H    -3.267147  0.056161  3.118524
H    -4.155100  -2.119817  4.146251
H    -4.285979  -2.794413  2.527365
H    -6.441816  -2.203064  3.013528
H    -5.891696  -0.916113  1.912263
H    -5.682251  -0.382503  4.817184
H    -8.415114  1.752515  4.917778
H    -6.783578  1.614621  5.464053
H    -8.943217  0.852942  2.769426
H    -8.146002  -0.601413  2.300752
N    -1.841359  -3.756588  1.803402
C    -1.523689  -4.824415  0.848256
H    -2.375799  -4.009776  2.627648
H    -2.327391  -5.566197  0.868714
H    -0.576421  -5.313306  1.109817
H    -1.443581  -4.400572  -0.156887
Ca    3.033322  0.597475  1.228421
