37
Energy: -39740.5936195 eV PBE+vdW (tier 2 basis)
C    0.114161  0.676257  0.081660
C    0.140180  0.532907  1.558566
O    1.285580  0.680374  2.182709
H    -0.856640  0.423994  -0.355262
H    0.873831  0.012991  -0.356053
H    0.389965  1.708253  -0.183344
N    -0.920436  0.263710  2.296588
C    -2.368674  0.104211  1.939554
C    -2.584655  -1.090673  0.955930
O    -2.631616  -0.882755  -0.262436
H    -0.728669  0.198910  3.296893
H    -2.832574  -0.143203  2.904804
C    -2.985642  1.410675  1.409521
C    -4.520368  1.502033  1.525484
C    -5.373111  0.517724  0.706654
N    -5.167852  0.577039  -0.741921
C    -6.030951  1.060382  -1.650431
N    -5.881551  0.725261  -2.939928
N    -7.030518  1.877875  -1.297105
H    -2.675077  1.555590  0.365683
H    -2.565543  2.244114  1.989802
H    -4.794203  2.530724  1.248909
H    -4.819982  1.389524  2.579229
H    -6.434295  0.696834  0.921986
H    -5.191527  -0.521720  1.015408
H    -4.342154  0.085239  -1.084899
H    -5.338375  -0.084174  -3.214823
H    -6.386297  1.211124  -3.672709
H    -7.055147  2.338844  -0.397116
H    -7.788723  2.084184  -1.937854
N    -2.714267  -2.297606  1.530349
C    -2.938525  -3.533326  0.777033
H    -2.738262  -2.359275  2.543836
H    -2.351557  -4.343077  1.223243
H    -2.625614  -3.378116  -0.258820
H    -3.999991  -3.812993  0.797291
Ca    3.198754  0.977975  2.761545
