37
Energy: -39740.4690584 eV PBE+vdW (tier 2 basis)
C    -0.700320  2.464437  -0.349222
C    -0.000983  1.212947  0.052232
O    1.279820  1.143858  -0.222074
H    -1.771059  2.448733  -0.154345
H    -0.545576  2.654505  -1.416908
H    -0.253944  3.294093  0.222970
N    -0.485586  0.283215  0.884433
C    -1.834664  -0.303993  0.789551
C    -1.954802  -0.717669  -0.722607
O    -1.357420  -0.008956  -1.546463
H    0.221764  -0.389231  1.180178
H    -1.798807  -1.185189  1.442979
C    -2.994546  0.606143  1.277853
C    -4.289521  -0.162916  1.591067
C    -5.460385  0.698666  2.085743
N    -5.310552  1.113745  3.488528
C    -6.129850  1.989211  4.110911
N    -5.908277  2.302948  5.393055
N    -7.134629  2.570445  3.448283
H    -3.224521  1.365947  0.519521
H    -2.636108  1.136838  2.172041
H    -4.101708  -0.972207  2.315793
H    -4.654429  -0.654953  0.680314
H    -6.385979  0.112467  1.966128
H    -5.549857  1.602655  1.464658
H    -4.806847  0.475767  4.098077
H    -5.059870  2.026044  5.871687
H    -6.595523  2.811082  5.939057
H    -7.673707  3.319225  3.870338
H    -7.491197  2.191554  2.579711
N    -2.682082  -1.785042  -1.078877
C    -3.284337  -2.849417  -0.276751
H    -2.726831  -1.912797  -2.090163
H    -4.379847  -2.812777  -0.328202
H    -2.972877  -2.783453  0.769136
H    -2.954393  -3.819705  -0.666645
Ca    3.043225  1.270790  -1.174134
