37
Energy: -39739.7077038 eV PBE+vdW (tier 2 basis)
C    -0.805623  0.224301  -0.531655
C    -0.713041  0.867291  0.828265
O    -0.158135  1.944206  1.015028
H    -0.531852  0.961640  -1.291447
H    -1.810215  -0.160324  -0.756029
H    -0.093908  -0.612112  -0.596111
N    -1.215414  0.179608  1.931051
C    -2.408934  -0.658573  1.996230
C    -2.207887  -2.014986  1.305546
O    -3.117860  -2.498619  0.499895
H    -0.995978  0.667648  2.797939
H    -2.499127  -0.936382  3.063317
C    -3.713074  0.088293  1.626417
C    -3.875471  1.413731  2.419416
C    -3.509790  2.683526  1.621705
N    -3.461644  3.873001  2.469183
C    -2.440872  4.752659  2.580414
N    -2.684112  5.944726  3.140976
N    -1.206643  4.458447  2.167010
H    -4.565238  -0.568227  1.855102
H    -3.742064  0.290125  0.543985
H    -3.279932  1.383497  3.343920
H    -4.919976  1.497051  2.748479
H    -4.251125  2.847411  0.823694
H    -2.540984  2.584679  1.124125
H    -4.332322  4.152336  2.911693
H    -1.928271  6.563335  3.413331
H    -3.626027  6.294069  3.273458
H    -0.903604  3.527470  1.870820
H    -0.505340  5.189530  2.119822
N    -1.138075  -2.740919  1.541436
C    -0.026406  -2.493050  2.475077
H    -1.080951  -3.619628  1.025471
H    0.705929  -1.810093  2.029209
H    0.451508  -3.456394  2.677653
H    -0.395947  -2.075305  3.416574
Ca    -4.569544  -3.409390  -0.581627
