37
Energy: -39740.4699372 eV PBE+vdW (tier 2 basis)
C    -0.323855  0.380586  0.837001
C    -0.522939  -0.096115  2.235477
O    0.550761  -0.213058  2.977735
H    0.430263  -0.232141  0.331860
H    0.043690  1.418401  0.887616
H    -1.233908  0.371768  0.237870
N    -1.707117  -0.102284  2.872946
C    -2.903150  -0.727823  2.288488
C    -2.372442  -2.104495  1.733749
O    -1.157131  -2.203113  1.498805
H    -1.611857  -0.272967  3.873705
H    -3.580252  -0.897717  3.137534
C    -3.654325  0.112148  1.216191
C    -5.168530  -0.186511  1.112026
C    -6.112720  0.680653  1.958077
N    -6.331928  1.993694  1.332951
C    -7.094442  2.977040  1.856913
N    -7.697729  2.811539  3.039114
N    -7.212978  4.138631  1.204172
H    -3.204771  -0.066414  0.232013
H    -3.495317  1.175000  1.448554
H    -5.379794  -1.232615  1.371436
H    -5.476376  -0.112906  0.058260
H    -5.708519  0.836730  2.970829
H    -7.072492  0.147405  2.055127
H    -6.165789  2.049360  0.332161
H    -8.186696  3.580298  3.485593
H    -7.850666  1.891450  3.432765
H    -6.642350  4.358481  0.396477
H    -7.910761  4.825432  1.469213
N    -3.258646  -3.077386  1.520372
C    -2.903895  -4.385583  0.957301
H    -4.214446  -2.949827  1.833858
H    -2.585927  -5.076717  1.748344
H    -2.090168  -4.261004  0.237391
H    -3.779835  -4.799732  0.449281
Ca    2.400927  -0.725439  3.561647
