37
Energy: -39741.178555 eV PBE+vdW (tier 2 basis)
C    -0.338278  -1.540548  -1.058672
C    0.311330  -1.147713  0.224823
O    1.576099  -1.232436  0.335472
H    -1.233466  -0.954912  -1.281895
H    -0.612691  -2.607740  -1.042597
H    0.394276  -1.411337  -1.864443
N    -0.387213  -0.663247  1.290915
C    -1.535034  -1.328766  1.932624
C    -0.991714  -2.659592  2.549084
O    0.155939  -3.099205  2.188682
H    0.243678  -0.244642  1.977064
H    -1.804342  -0.672418  2.775164
C    -2.795082  -1.512918  1.050171
C    -3.319116  -0.190823  0.436343
C    -4.449062  0.538642  1.178973
N    -5.757736  -0.084814  0.929182
C    -6.924215  0.342867  1.467626
N    -8.057900  -0.300789  1.173448
N    -6.941167  1.372248  2.320730
H    -3.573281  -1.978879  1.669231
H    -2.587029  -2.242021  0.258390
H    -3.649926  -0.381614  -0.595862
H    -2.491426  0.525134  0.338157
H    -4.455958  1.584517  0.830871
H    -4.267443  0.551097  2.265428
H    -5.845317  -0.615973  0.067224
H    -8.059939  -1.183382  0.675391
H    -8.964494  0.087466  1.412775
H    -6.186179  2.046325  2.356577
H    -7.794918  1.629954  2.805903
N    -1.681855  -3.319745  3.460031
C    -2.955719  -2.985016  4.103576
H    -1.242104  -4.186456  3.776516
H    -2.894140  -3.281966  5.156232
H    -3.780845  -3.534960  3.633257
H    -3.145914  -1.908832  4.061548
Ca    2.213774  -2.910958  1.519249
