37
Energy: -39740.5040364 eV PBE+vdW (tier 2 basis)
C    0.176960  1.778974  0.916002
C    -0.020227  0.494967  1.644818
O    0.906094  -0.426766  1.608846
H    -0.053785  2.641854  1.555484
H    -0.497354  1.830026  0.045839
H    1.205455  1.868881  0.556583
N    -1.125305  0.258799  2.331850
C    -2.322524  1.130461  2.426215
C    -2.249146  2.262781  3.487164
O    -3.121774  3.128974  3.414512
H    -1.193082  -0.652293  2.790233
H    -2.401429  1.659935  1.467368
C    -3.603478  0.270706  2.645221
C    -4.686381  0.439739  1.564727
C    -5.524585  1.725221  1.605308
N    -6.489681  1.736701  2.716117
C    -6.818315  2.807454  3.472918
N    -8.046855  2.876278  4.002846
N    -5.927438  3.769606  3.717700
H    -4.020414  0.488613  3.637941
H    -3.315879  -0.791438  2.668140
H    -5.363208  -0.425802  1.625115
H    -4.229429  0.374627  0.565092
H    -6.081235  1.808320  0.659827
H    -4.893289  2.616634  1.683873
H    -7.188408  0.998283  2.694171
H    -8.263246  3.528151  4.748787
H    -8.818984  2.334483  3.631977
H    -6.221943  4.645009  4.134344
H    -4.926023  3.617410  3.577097
N    -1.270117  2.248218  4.405273
C    -1.173467  3.254119  5.469827
H    -0.654587  1.445114  4.459705
H    -0.139468  3.298971  5.823846
H    -1.833314  3.001803  6.309764
H    -1.462760  4.230149  5.069308
Ca    2.513467  -1.600664  1.203189
