37
Energy: -39742.1553677 eV PBE+vdW (tier 2 basis)
C    0.239009  -0.033302  -0.340906
C    0.340346  0.510086  1.042067
O    0.707821  1.711480  1.243874
H    -0.052861  -1.087877  -0.378066
H    1.198393  0.096695  -0.860211
H    -0.500478  0.563449  -0.896161
N    0.026292  -0.285595  2.078073
C    -0.072148  0.125845  3.493028
C    1.352308  0.346108  4.067364
O    1.918738  1.468203  3.861969
H    -0.236178  -1.243361  1.853687
H    -0.533835  1.125435  3.506169
C    -0.996331  -0.851332  4.251502
C    -1.393558  -0.367440  5.659659
C    -2.196960  -1.370888  6.508281
N    -3.613490  -1.464366  6.138337
C    -4.614022  -1.791077  6.987376
N    -5.882940  -1.635037  6.594136
N    -4.348424  -2.245162  8.215806
H    -0.537004  -1.854056  4.306160
H    -1.891165  -0.974702  3.621445
H    -1.952739  0.577998  5.592977
H    -0.487781  -0.143616  6.242648
H    -2.157313  -1.026807  7.550257
H    -1.722003  -2.366175  6.468893
H    -3.862120  -1.443172  5.155101
H    -6.649277  -2.056198  7.109261
H    -6.131179  -1.042710  5.810312
H    -5.084204  -2.320560  8.911288
H    -3.459813  -2.670103  8.451476
N    1.955702  -0.622959  4.727352
C    3.313502  -0.558559  5.283207
H    1.456013  -1.502300  4.836786
H    3.574012  0.482096  5.491299
H    4.032915  -0.987175  4.573202
H    3.341412  -1.137998  6.211242
Ca    1.963362  3.003133  2.358110
