37
Energy: -39740.6393688 eV PBE+vdW (tier 2 basis)
C    -1.994747  -1.542344  0.269400
C    -1.936976  -0.126498  0.752503
O    -0.992608  0.635720  0.464299
H    -2.826577  -2.122834  0.682214
H    -1.046957  -2.039071  0.513951
H    -2.066978  -1.538885  -0.827238
N    -2.983167  0.320103  1.516285
C    -3.017436  1.598043  2.240359
C    -3.112109  2.797809  1.278662
O    -4.091537  3.660614  1.404814
H    -3.739506  -0.330619  1.702328
H    -3.958515  1.590730  2.805704
C    -1.847866  1.784795  3.252411
C    -1.795977  0.663078  4.302879
C    -0.716648  0.824226  5.385838
N    0.629965  0.468838  4.919744
C    1.629213  0.026247  5.709178
N    1.513005  0.057385  7.040646
N    2.742752  -0.465164  5.150569
H    -1.992784  2.755341  3.752431
H    -0.905001  1.855846  2.693117
H    -1.669068  -0.316581  3.819848
H    -2.759298  0.619686  4.833387
H    -0.966988  0.144805  6.211837
H    -0.724999  1.852875  5.783782
H    0.877566  0.671945  3.957095
H    2.176428  -0.430748  7.633125
H    0.839418  0.652149  7.506892
H    2.769154  -0.757234  4.181039
H    3.581409  -0.622485  5.698939
N    -2.198704  2.928827  0.361782
C    -2.130260  3.987584  -0.639656
H    -1.513037  2.093365  0.337098
H    -1.212609  3.856169  -1.219844
H    -2.098272  4.975672  -0.161062
H    -2.982646  3.927558  -1.331523
Ca    -5.572885  5.015250  1.278464
