37
Energy: -39742.1447284 eV PBE+vdW (tier 2 basis)
C    -0.827879  -0.037212  0.306087
C    -0.479359  -0.238393  1.742002
O    0.350324  -1.143729  2.077805
H    -1.267010  -0.969339  -0.080027
H    0.089046  0.139400  -0.273036
H    -1.528172  0.786102  0.131889
N    -1.059458  0.555481  2.654646
C    -1.032892  0.501813  4.137693
C    0.386344  0.712882  4.708875
O    1.286865  -0.181052  4.601820
H    -1.695448  1.251185  2.271083
H    -1.627818  1.377342  4.432221
C    -1.754536  -0.746626  4.703524
C    -2.212701  -0.578938  6.164882
C    -3.152292  -1.716235  6.604248
N    -3.615900  -1.517089  7.979932
C    -4.786563  -1.955771  8.490819
N    -5.180559  -1.519251  9.691458
N    -5.563015  -2.797304  7.798985
H    -1.119272  -1.637237  4.592160
H    -2.632340  -0.909919  4.061260
H    -2.748656  0.376312  6.277401
H    -1.340973  -0.540499  6.838103
H    -2.644276  -2.690345  6.506651
H    -4.035927  -1.729908  5.950259
H    -2.949179  -1.146714  8.650607
H    -4.769713  -0.700154  10.124771
H    -5.928205  -1.979169  10.200779
H    -6.510391  -2.996284  8.104506
H    -5.186752  -3.398176  7.076084
N    0.617816  1.850097  5.341143
C    1.886948  2.237269  5.966641
H    -0.131254  2.538907  5.368862
H    2.471279  2.860919  5.277117
H    2.455715  1.342078  6.229593
H    1.670858  2.817075  6.869745
Ca    2.036345  -1.642522  3.229412
