37
Energy: -39742.0033052 eV PBE+vdW (tier 2 basis)
C    0.402135  -1.297550  1.206904
C    0.008594  -0.290145  2.231199
O    0.711490  0.752665  2.418792
H    -0.261948  -2.167174  1.168272
H    1.430689  -1.634292  1.395160
H    0.408755  -0.807400  0.221532
N    -1.109738  -0.493767  2.949133
C    -1.727158  0.473355  3.876623
C    -0.914714  0.540572  5.195761
O    0.135571  1.261587  5.210179
H    -1.613999  -1.356841  2.763007
H    -1.563965  1.467205  3.432830
C    -3.266687  0.300374  3.932862
C    -3.876826  -1.039554  4.398857
C    -5.311289  -1.299857  3.900419
N    -6.301313  -0.391206  4.492151
C    -7.558030  -0.217930  4.013543
N    -8.357122  0.683147  4.592531
N    -7.986812  -0.907835  2.952739
H    -3.611337  0.503716  2.907209
H    -3.657206  1.128930  4.540015
H    -3.880764  -1.128094  5.498484
H    -3.291493  -1.901462  4.041665
H    -5.565624  -2.347762  4.128664
H    -5.344555  -1.173285  2.808313
H    -6.178872  -0.155070  5.473096
H    -8.001804  1.377442  5.239572
H    -9.352829  0.709173  4.397111
H    -8.867693  -0.674603  2.504486
H    -7.565385  -1.787678  2.679808
N    -1.291242  -0.128820  6.267516
C    -0.574182  -0.128816  7.550409
H    -2.120214  -0.711178  6.196804
H    -1.269879  -0.432356  8.337465
H    -0.197089  0.875991  7.762575
H    0.263768  -0.837110  7.519142
Ca    1.620769  2.020627  3.855175
