37
Energy: -39742.0731431 eV PBE+vdW (tier 2 basis)
C    0.625810  -1.678427  -0.494821
C    0.031425  -1.350472  0.829505
O    0.762392  -1.244462  1.865996
H    1.343696  -0.888033  -0.761601
H    -0.114477  -1.772949  -1.295862
H    1.201591  -2.611249  -0.418839
N    -1.295036  -1.156062  0.923203
C    -1.995072  -0.679769  2.130822
C    -1.982835  -1.788505  3.216820
O    -1.047297  -1.730440  4.086672
H    -1.836583  -1.239360  0.065115
H    -1.364623  0.106385  2.573334
C    -3.334814  -0.027152  1.730846
C    -4.125425  0.603396  2.891006
C    -5.323714  1.411293  2.361099
N    -6.070735  2.035670  3.456115
C    -7.339692  2.492395  3.373644
N    -7.964717  2.892486  4.485619
N    -7.981197  2.517820  2.200388
H    -3.968776  -0.741797  1.188186
H    -3.071653  0.760811  1.007529
H    -3.464610  1.273081  3.465159
H    -4.486974  -0.167439  3.588549
H    -6.010484  0.746071  1.816944
H    -4.962990  2.177731  1.654024
H    -5.544305  2.331668  4.272650
H    -8.826787  3.426216  4.443691
H    -7.616514  2.659739  5.408563
H    -8.976558  2.712865  2.158774
H    -7.482400  2.535466  1.319258
N    -2.848692  -2.786064  3.266301
C    -3.939670  -3.150944  2.354852
H    -2.699298  -3.418406  4.055207
H    -4.855450  -2.594006  2.588389
H    -4.144004  -4.217407  2.490970
H    -3.652066  -2.994303  1.311152
Ca    1.088531  -1.493846  3.944741
