37
Energy: -39740.3697219 eV PBE+vdW (tier 2 basis)
C    -0.243377  0.986393  0.738582
C    -0.185122  -0.219779  1.618398
O    0.918456  -0.929406  1.642372
H    0.550559  1.693381  1.019718
H    -1.204903  1.506440  0.800297
H    -0.082174  0.691426  -0.308826
N    -1.232487  -0.537513  2.333576
C    -1.530390  -1.659909  3.238148
C    -3.027295  -1.937165  2.905306
O    -3.733334  -0.937823  2.727609
H    -2.098826  0.022502  2.221750
H    -0.863454  -2.500212  3.016943
C    -1.381893  -1.181043  4.711870
C    -1.984891  -2.117340  5.783002
C    -3.429252  -1.819705  6.219943
N    -3.486354  -0.671288  7.136437
C    -4.616886  -0.026909  7.495520
N    -4.541557  1.025530  8.318936
N    -5.803267  -0.406816  7.010572
H    -1.841898  -0.184624  4.787693
H    -0.309353  -1.043158  4.904667
H    -1.339123  -2.095515  6.673724
H    -1.952366  -3.164019  5.452389
H    -3.834835  -2.716397  6.715662
H    -4.062181  -1.591290  5.350973
H    -2.698534  -0.560723  7.768969
H    -5.369371  1.412384  8.758969
H    -3.655064  1.451731  8.560660
H    -6.634416  0.153201  7.167532
H    -5.943747  -1.323814  6.606414
N    -3.491757  -3.197781  2.873127
C    -2.760924  -4.464529  2.899760
H    -4.478144  -3.249516  2.617333
H    -3.411652  -5.237732  3.321578
H    -1.873362  -4.400713  3.537414
H    -2.464248  -4.779355  1.889742
Ca    2.781942  -1.462874  1.067351
