37
Energy: -39741.3403196 eV PBE+vdW (tier 2 basis)
C    0.732400  -0.083884  0.579782
C    0.386436  0.310096  1.968616
O    1.258174  0.815565  2.743266
H    1.249788  0.726384  0.049933
H    -0.116756  -0.451029  -0.002939
H    1.466888  -0.904538  0.660163
N    -0.868447  0.112347  2.463097
C    -2.075542  0.626953  1.801450
C    -1.886208  2.169610  1.683863
O    -1.070654  2.750110  2.487275
H    -0.902202  0.224195  3.478376
H    -2.148505  0.193702  0.794873
C    -3.298678  0.183333  2.653077
C    -4.694504  0.459808  2.071756
C    -5.864578  -0.006240  2.961417
N    -6.130489  -1.446896  2.882320
C    -7.341260  -2.020811  3.061981
N    -7.508110  -3.310005  2.746751
N    -8.372389  -1.310164  3.529055
H    -3.220020  0.656519  3.645941
H    -3.148893  -0.896092  2.809593
H    -4.804752  0.007331  1.075016
H    -4.835412  1.542465  1.947140
H    -6.770019  0.508792  2.614605
H    -5.689045  0.298461  4.006979
H    -5.343502  -2.085655  2.838684
H    -6.862825  -3.799835  2.137920
H    -8.325658  -3.825911  3.055664
H    -9.316153  -1.682901  3.496959
H    -8.240581  -0.460570  4.064357
N    -2.509190  2.883324  0.764219
C    -3.367861  2.468246  -0.350404
H    -2.315049  3.886442  0.812219
H    -4.393813  2.819787  -0.188093
H    -3.367835  1.382624  -0.467482
H    -2.984721  2.924227  -1.271052
Ca    0.885224  2.831013  3.431805
