37
Energy: -39741.4569799 eV PBE+vdW (tier 2 basis)
C    -0.731958  1.696116  -0.549625
C    -0.363050  0.969313  0.691911
O    0.811700  1.051402  1.172161
H    -0.077056  1.307592  -1.348458
H    -0.499391  2.766572  -0.470776
H    -1.769862  1.549641  -0.860036
N    -1.260376  0.169410  1.332454
C    -2.588328  0.634232  1.741637
C    -2.357254  1.783319  2.779425
O    -1.194363  1.966234  3.275985
H    -0.815578  -0.428507  2.032024
H    -3.099111  1.067807  0.868718
C    -3.403981  -0.582484  2.261171
C    -4.907216  -0.348320  2.490756
C    -5.694219  -1.592124  2.951863
N    -6.019641  -2.522911  1.865947
C    -7.102535  -3.332226  1.840654
N    -7.414703  -3.972203  0.708340
N    -7.871010  -3.480827  2.923918
H    -2.943631  -0.953695  3.191171
H    -3.248040  -1.364420  1.502368
H    -5.384177  0.060542  1.586014
H    -5.050271  0.390893  3.292459
H    -6.645651  -1.244505  3.375188
H    -5.142292  -2.109689  3.754419
H    -5.320583  -2.702425  1.152926
H    -8.082334  -4.736551  0.702655
H    -7.051522  -3.676921  -0.190477
H    -8.775157  -3.938106  2.859640
H    -7.525872  -3.292599  3.857358
N    -3.371263  2.562308  3.101162
C    -3.317995  3.679934  4.054643
H    -4.254932  2.413264  2.619083
H    -4.332191  3.878758  4.412627
H    -2.932178  4.582432  3.562912
H    -2.679059  3.415727  4.902070
Ca    0.976979  1.961953  3.120503
