37
Energy: -39741.4715432 eV PBE+vdW (tier 2 basis)
C    0.930950  0.911220  0.816542
C    0.243875  0.586741  2.093018
O    0.904662  0.438243  3.169814
H    1.550249  1.813238  0.914019
H    0.259000  0.998549  -0.041241
H    1.636629  0.086423  0.618883
N    -1.105058  0.409391  2.141174
C    -2.054492  1.397906  1.623473
C    -1.855893  2.694918  2.478748
O    -1.156154  2.651122  3.546880
H    -1.410002  -0.014106  3.019996
H    -1.784487  1.639213  0.584228
C    -3.481812  0.786310  1.653945
C    -4.574968  1.569935  0.909038
C    -5.945121  0.869687  0.850645
N    -5.971201  -0.256829  -0.092088
C    -6.958785  -1.183085  -0.145066
N    -6.866151  -2.186640  -1.023243
N    -7.997774  -1.123573  0.693041
H    -3.786891  0.636424  2.702258
H    -3.376935  -0.214916  1.210665
H    -4.250052  1.811144  -0.117353
H    -4.766459  2.531243  1.407467
H    -6.698059  1.622113  0.565911
H    -6.209464  0.488788  1.848102
H    -5.447112  -0.137221  -0.954931
H    -7.659104  -2.786719  -1.225800
H    -6.006822  -2.383818  -1.522632
H    -8.662573  -1.888745  0.750739
H    -8.264014  -0.262572  1.155143
N    -2.397457  3.821893  2.060358
C    -2.300554  5.119115  2.745516
H    -2.884024  3.811576  1.166864
H    -3.119018  5.756065  2.398300
H    -1.346129  5.606066  2.506697
H    -2.385203  4.976389  3.826657
Ca    0.505954  1.880813  4.721868
