37
Energy: -39740.7095696 eV PBE+vdW (tier 2 basis)
C    -0.415846  -0.108057  -0.686715
C    -0.143639  -0.007489  0.773172
O    1.099755  -0.129570  1.182062
H    0.150154  0.669033  -1.220129
H    -1.474650  -0.004322  -0.936668
H    -0.061538  -1.080302  -1.057990
N    -1.068571  0.198862  1.672382
C    -2.517969  0.445476  1.538495
C    -2.799308  1.266394  2.832704
O    -2.090002  1.005841  3.814326
H    -0.835710  0.282574  2.688073
H    -2.710894  1.018462  0.624097
C    -3.273391  -0.910450  1.518810
C    -4.813312  -0.867134  1.408249
C    -5.555519  -0.923484  2.751899
N    -6.996023  -1.079082  2.515134
C    -7.961552  -0.977280  3.448355
N    -9.246120  -1.007433  3.076465
N    -7.643072  -0.810853  4.738538
H    -2.973358  -1.478016  2.412708
H    -2.885854  -1.472316  0.657712
H    -5.111570  -1.750380  0.823584
H    -5.147571  0.004591  0.827946
H    -5.393984  -0.007042  3.337827
H    -5.171081  -1.775537  3.338036
H    -7.276127  -1.463944  1.617677
H    -9.990344  -1.132206  3.754163
H    -9.523481  -0.922014  2.105417
H    -8.361385  -0.618100  5.428419
H    -6.732066  -1.070965  5.095176
N    -3.777355  2.186335  2.856049
C    -4.617353  2.707473  1.780106
H    -3.856558  2.651609  3.760458
H    -5.653368  2.355450  1.875445
H    -4.233927  2.414524  0.798518
H    -4.620417  3.802639  1.823520
Ca    3.056433  -0.259705  1.606769
