37
Energy: -39742.1746706 eV PBE+vdW (tier 2 basis)
C    -0.046782  -0.901218  -0.364543
C    -0.161935  -0.277830  0.983299
O    0.736589  0.514809  1.411858
H    0.908674  -1.437953  -0.442633
H    -0.017668  -0.099593  -1.117945
H    -0.866982  -1.586117  -0.602974
N    -1.236925  -0.556540  1.739054
C    -1.586322  0.078871  3.025745
C    -0.640144  -0.448715  4.136765
O    0.503726  0.096469  4.265402
H    -1.909848  -1.213689  1.349442
H    -1.336832  1.147626  2.934757
C    -3.104724  -0.052635  3.269403
C    -3.626275  0.802108  4.438907
C    -5.124735  0.653600  4.751300
N    -5.986588  1.296778  3.749670
C    -7.324884  1.103389  3.660353
N    -8.009389  1.712802  2.687204
N    -7.955100  0.283662  4.506752
H    -3.382385  -1.111327  3.416026
H    -3.602009  0.251307  2.335804
H    -3.394010  1.864790  4.261301
H    -3.099061  0.541206  5.368299
H    -5.305847  1.090848  5.746571
H    -5.394178  -0.412058  4.798109
H    -5.651573  2.174674  3.361775
H    -7.545391  2.164125  1.907712
H    -9.023683  1.746043  2.695404
H    -8.925662  0.026965  4.354991
H    -7.563878  0.042724  5.409342
N    -1.019468  -1.451963  4.903896
C    -0.211150  -2.071609  5.961589
H    -1.937515  -1.855309  4.732279
H    0.536935  -1.357810  6.314601
H    0.285656  -2.972230  5.577577
H    -0.869867  -2.354066  6.788963
Ca    1.992231  1.038866  3.034943
