37
Energy: -39742.0145871 eV PBE+vdW (tier 2 basis)
C    2.498313  -0.071523  2.129656
C    1.163236  -0.409919  2.699222
O    0.685497  0.258850  3.668995
H    2.459877  0.958500  1.743982
H    2.816057  -0.742535  1.324913
H    3.254503  -0.077933  2.926297
N    0.469329  -1.427803  2.161105
C    -0.918730  -1.808171  2.477105
C    -0.977627  -2.574566  3.826815
O    -0.788662  -1.906565  4.894825
H    0.934857  -1.944776  1.420179
H    -1.451174  -0.871100  2.702959
C    -1.636325  -2.426272  1.248454
C    -0.917427  -3.530565  0.445294
C    -1.795294  -4.239350  -0.604438
N    -2.137876  -3.377831  -1.743136
C    -3.116725  -3.652263  -2.640167
N    -3.387311  -2.763929  -3.601053
N    -3.832573  -4.776840  -2.548654
H    -1.869624  -1.589113  0.575682
H    -2.614495  -2.790836  1.598216
H    -0.529573  -4.331480  1.094419
H    -0.025789  -3.131870  -0.067574
H    -2.734269  -4.571397  -0.137410
H    -1.253514  -5.134731  -0.950011
H    -1.410125  -2.752560  -2.078741
H    -3.965823  -3.008068  -4.398573
H    -3.033861  -1.814736  -3.568416
H    -3.482673  -5.596533  -2.067157
H    -4.658324  -4.913359  -3.123792
N    -1.243215  -3.865522  3.861290
C    -1.352916  -4.688435  5.072241
H    -1.386842  -4.339932  2.974532
H    -2.250001  -5.312822  4.998076
H    -1.427181  -4.039987  5.947322
H    -0.470489  -5.334526  5.163958
Ca    -0.137824  0.009634  5.608525
