37
Energy: -39741.9965489 eV PBE+vdW (tier 2 basis)
C    0.836657  1.891649  1.987614
C    0.263688  0.840246  2.872722
O    0.926033  0.386266  3.859019
H    0.173280  2.183858  1.167097
H    1.792759  1.542356  1.573411
H    1.066185  2.777663  2.598312
N    -0.973681  0.376915  2.622248
C    -1.713493  -0.571726  3.474626
C    -1.078533  -1.984917  3.369561
O    -0.175955  -2.270981  4.229855
H    -1.452545  0.754747  1.807645
H    -1.497963  -0.287511  4.516047
C    -3.238836  -0.447787  3.264117
C    -3.813880  0.825228  3.916745
C    -5.286085  1.135175  3.603967
N    -6.223416  0.243418  4.301943
C    -7.550733  0.182164  4.037431
N    -8.314565  -0.678819  4.717814
N    -8.092063  0.941890  3.080877
H    -3.715125  -1.344471  3.686078
H    -3.476874  -0.453509  2.190331
H    -3.247545  1.705653  3.578101
H    -3.669649  0.789577  5.008988
H    -5.466702  1.042696  2.522596
H    -5.475893  2.182934  3.888830
H    -5.956584  -0.049322  5.238042
H    -9.327502  -0.629515  4.681741
H    -7.914772  -1.406313  5.298580
H    -9.053813  0.801491  2.787580
H    -7.639617  1.783806  2.745928
N    -1.395402  -2.877750  2.449335
C    -2.311152  -2.796384  1.305265
H    -0.894525  -3.763029  2.551922
H    -1.985193  -3.534825  0.566273
H    -2.269335  -1.809217  0.836088
H    -3.338761  -3.036145  1.603893
Ca    1.539123  -1.271200  5.042299
