37
Energy: -39740.1729685 eV PBE+vdW (tier 2 basis)
C    0.153568  0.372294  -0.529382
C    -0.001431  0.817162  0.884866
O    1.059190  0.997766  1.630120
H    -0.192117  -0.667789  -0.645686
H    1.201455  0.418368  -0.837890
H    -0.444843  0.988474  -1.214353
N    -1.193213  1.036247  1.406819
C    -2.496782  0.763581  0.757668
C    -3.134524  1.853694  -0.157196
O    -4.143400  1.476518  -0.753950
H    -1.214763  1.350263  2.378222
H    -2.308647  -0.051261  0.046050
C    -3.517055  0.208687  1.781460
C    -4.268689  1.172896  2.716960
C    -5.365215  2.061106  2.087164
N    -6.283303  1.358525  1.191209
C    -7.580701  1.086856  1.412493
N    -8.373223  0.794439  0.373693
N    -8.094495  1.096840  2.649288
H    -2.993641  -0.543957  2.389231
H    -4.246224  -0.363199  1.192664
H    -3.581134  1.845673  3.256796
H    -4.723047  0.545010  3.497223
H    -4.921726  2.881234  1.507264
H    -5.940160  2.547333  2.885556
H    -5.924830  1.215142  0.244941
H    -8.096230  1.002274  -0.578551
H    -9.292366  0.387753  0.507007
H    -9.096768  1.065028  2.798745
H    -7.509116  1.079259  3.473506
N    -2.619152  3.091179  -0.331073
C    -1.576202  3.823606  0.380787
H    -3.142103  3.619278  -1.029212
H    -1.703760  4.887556  0.157811
H    -0.565537  3.540162  0.053152
H    -1.664520  3.712085  1.468530
Ca    2.933237  0.982101  2.405631
