37
Energy: -39740.4804936 eV PBE+vdW (tier 2 basis)
C    -0.120547  -0.548923  0.220602
C    -0.459302  -1.540315  1.275336
O    0.329769  -2.582261  1.395960
H    -0.077143  -1.050789  -0.753202
H    0.876430  -0.136787  0.443842
H    -0.839081  0.266322  0.147610
N    -1.399300  -1.393342  2.197473
C    -2.658888  -0.635720  2.101845
C    -3.411083  -1.223899  0.857852
O    -2.751219  -1.658377  -0.086974
H    -1.412544  -2.134989  2.896864
H    -3.202346  -0.923281  3.008721
C    -2.506221  0.924634  2.125575
C    -3.174368  1.725175  0.992675
C    -3.078196  3.233873  1.262757
N    -3.766787  3.995569  0.215092
C    -3.686276  5.329086  0.041037
N    -4.236746  5.888080  -1.043003
N    -3.037592  6.091950  0.928376
H    -1.434926  1.164055  2.165243
H    -2.912903  1.265916  3.087145
H    -4.236491  1.449414  0.912358
H    -2.717495  1.493946  0.018204
H    -2.024688  3.551802  1.287693
H    -3.522665  3.453880  2.248630
H    -4.475464  3.511177  -0.326777
H    -4.530321  5.334140  -1.838953
H    -4.368638  6.891401  -1.110669
H    -2.857223  7.071802  0.737491
H    -2.854554  5.773343  1.871612
N    -4.755545  -1.214313  0.900084
C    -5.628756  -0.884803  2.028580
H    -5.193344  -1.621934  0.075585
H    -6.658358  -0.841431  1.661408
H    -5.392662  0.096980  2.458208
H    -5.585713  -1.648144  2.817838
Ca    1.558922  -4.151875  1.145022
