37
Energy: -39740.4033194 eV PBE+vdW (tier 2 basis)
C    -1.492920  -2.188026  1.135782
C    -0.789805  -1.508300  2.272279
O    0.428617  -1.310484  2.309042
H    -2.566838  -2.330092  1.297701
H    -1.021193  -3.164226  0.961857
H    -1.345890  -1.600184  0.219490
N    -1.576478  -1.097752  3.334407
C    -0.981941  -0.339113  4.426191
C    -1.433591  -0.945101  5.752335
O    -2.200748  -0.277619  6.577751
H    -2.586621  -1.150469  3.239826
H    0.096952  -0.563541  4.335615
C    -1.164435  1.187410  4.312949
C    -0.546376  1.796675  3.037118
C    0.993285  1.849159  3.026587
N    1.524660  2.394023  1.778353
C    2.241916  1.731126  0.847208
N    2.929336  2.438658  -0.059286
N    2.272969  0.396726  0.811987
H    -0.714297  1.663210  5.200289
H    -2.238972  1.429857  4.319971
H    -0.935338  2.819875  2.935910
H    -0.903744  1.255124  2.150125
H    1.432900  0.855607  3.171790
H    1.357504  2.481441  3.850475
H    1.422943  3.393797  1.632406
H    3.133487  3.422578  0.072270
H    3.311524  2.000992  -0.890098
H    1.609701  -0.194536  1.319681
H    2.954265  -0.075221  0.228193
N    -1.064348  -2.160617  6.090255
C    -0.210341  -3.099446  5.349636
H    -1.443830  -2.516690  6.968714
H    -0.831963  -3.745406  4.715984
H    0.322174  -3.717862  6.079170
H    0.514926  -2.566196  4.728651
Ca    -3.324359  0.760067  7.898467
