37
Energy: -39742.0233313 eV PBE+vdW (tier 2 basis)
C    -1.290250  -1.656081  -0.338592
C    -1.334535  -1.112505  1.049301
O    -0.618842  -1.633814  1.963054
H    -1.600099  -2.711470  -0.310390
H    -0.253770  -1.644378  -0.703438
H    -1.927271  -1.115802  -1.046333
N    -2.141967  -0.069247  1.297638
C    -2.509685  0.583197  2.578501
C    -1.287367  1.202868  3.285266
O    -0.430045  0.467401  3.879544
H    -2.663061  0.266439  0.490661
H    -3.154878  1.411980  2.264168
C    -3.358969  -0.329620  3.497552
C    -4.179848  0.448117  4.544268
C    -5.227884  -0.446228  5.229004
N    -6.051106  0.333055  6.158738
C    -6.838864  -0.180893  7.127923
N    -7.408610  0.641518  8.014292
N    -7.025089  -1.502274  7.225464
H    -2.723019  -1.083423  3.983223
H    -4.041744  -0.879383  2.833161
H    -4.703291  1.277966  4.040688
H    -3.525689  0.894563  5.308536
H    -4.731049  -1.245970  5.798087
H    -5.860457  -0.918977  4.458266
H    -6.194120  1.315426  5.944593
H    -8.161301  0.327720  8.618305
H    -7.104564  1.601968  8.126290
H    -7.496762  -1.899212  8.031908
H    -6.899679  -2.117226  6.430794
N    -1.140744  2.516755  3.297033
C    -1.966006  3.557339  2.662463
H    -0.322761  2.843789  3.814918
H    -1.446732  4.512328  2.783220
H    -2.945979  3.637644  3.148173
H    -2.083676  3.370440  1.589119
Ca    0.669710  -1.345011  3.600601
