37
Energy: -39740.0705028 eV PBE+vdW (tier 2 basis)
C    1.490400  -0.522838  0.525367
C    0.975182  -0.615965  1.930357
O    1.670311  -0.965947  2.886089
H    2.341572  0.170705  0.500127
H    0.743017  -0.193843  -0.205532
H    1.884532  -1.503627  0.226690
N    -0.364607  -0.290838  2.128765
C    -0.868617  -0.205869  3.485582
C    -2.109644  -1.066972  3.689543
O    -2.822883  -1.484115  2.679460
H    -0.798865  0.291168  1.417655
H    -0.072776  -0.680502  4.089243
C    -1.090695  1.257490  3.999780
C    -0.000693  1.868825  4.905496
C    1.305726  2.405947  4.279195
N    2.408312  1.444338  4.249845
C    3.692195  1.713951  4.546292
N    4.120957  2.964298  4.758148
N    4.558681  0.696188  4.648295
H    -2.034160  1.303996  4.561327
H    -1.255346  1.899528  3.120669
H    0.252368  1.186203  5.730320
H    -0.479196  2.734297  5.385204
H    1.624737  3.251859  4.900235
H    1.116856  2.806888  3.269557
H    2.223678  0.513024  3.861534
H    5.043524  3.140446  5.140802
H    3.598429  3.772525  4.446134
H    4.241244  -0.265191  4.672388
H    5.559317  0.854437  4.680090
N    -2.490749  -1.407650  4.901841
C    -1.835052  -1.114743  6.183776
H    -3.361743  -1.935366  4.966363
H    -2.171815  -0.147005  6.576747
H    -0.747067  -1.113108  6.067269
H    -2.113392  -1.900835  6.892406
Ca    -3.804112  -2.354045  1.141346
