37
Energy: -39740.2685859 eV PBE+vdW (tier 2 basis)
C    0.338277  1.235633  2.794755
C    0.097740  -0.063205  2.104645
O    1.099904  -0.868916  1.863855
H    0.192161  2.075038  2.095705
H    1.359707  1.287546  3.180860
H    -0.363373  1.385980  3.626768
N    -1.114287  -0.422391  1.726197
C    -2.338031  0.413041  1.800960
C    -3.118800  0.465220  3.143765
O    -3.928225  1.393384  3.219791
H    -1.198679  -1.331592  1.269058
H    -2.002067  1.450131  1.675451
C    -3.289514  0.097885  0.620386
C    -4.251927  -1.096572  0.768372
C    -5.630134  -0.795143  1.391121
N    -6.431084  0.139045  0.592252
C    -7.020698  1.272969  1.033041
N    -8.087975  1.743201  0.373784
N    -6.541985  1.934668  2.087592
H    -2.668022  -0.024147  -0.278677
H    -3.867358  1.013740  0.436248
H    -3.804556  -1.915385  1.355719
H    -4.417723  -1.526291  -0.229914
H    -5.548426  -0.393128  2.405682
H    -6.187024  -1.739756  1.475075
H    -6.781722  -0.217145  -0.292652
H    -8.635344  1.155635  -0.244632
H    -8.430731  2.684606  0.530093
H    -7.088148  2.675176  2.513058
H    -5.610523  1.757669  2.474674
N    -2.950309  -0.417768  4.149344
C    -2.179360  -1.654031  4.243865
H    -3.529040  -0.185928  4.956552
H    -2.573841  -2.230631  5.086446
H    -1.114130  -1.468382  4.441934
H    -2.293092  -2.278356  3.349443
Ca    2.933466  -1.688829  1.571074
