37
Energy: -39740.6011023 eV PBE+vdW (tier 2 basis)
C    1.388321  -1.320235  -0.791449
C    0.967087  0.106046  -0.787368
O    1.814652  1.009356  -1.209570
H    1.222675  -1.730780  -1.800099
H    0.823127  -1.937413  -0.086497
H    2.454716  -1.399383  -0.551389
N    -0.215011  0.498659  -0.360034
C    -1.354845  -0.388467  -0.056305
C    -1.727615  -1.130688  -1.386201
O    -1.297711  -0.691824  -2.452362
H    -0.415716  1.493902  -0.455743
H    -1.007776  -1.111528  0.694800
C    -2.531130  0.398737  0.566747
C    -3.497134  1.090035  -0.412251
C    -4.659785  1.747287  0.346692
N    -5.655685  2.297644  -0.578594
C    -6.935312  2.582308  -0.268677
N    -7.798084  2.889504  -1.244831
N    -7.354559  2.537585  1.001049
H    -2.120445  1.120290  1.290955
H    -3.098605  -0.320226  1.173140
H    -3.903235  0.350958  -1.118543
H    -2.974594  1.848431  -1.017986
H    -4.276256  2.538776  1.012576
H    -5.159757  0.993461  0.973348
H    -5.334804  2.596209  -1.494207
H    -8.703008  3.298875  -1.039457
H    -7.596349  2.690235  -2.217562
H    -8.342357  2.596411  1.224656
H    -6.709181  2.596851  1.778751
N    -2.508240  -2.224906  -1.284907
C    -3.052642  -2.882116  -0.098618
H    -2.740115  -2.635083  -2.188451
H    -3.177526  -3.947575  -0.317080
H    -4.033604  -2.475876  0.185004
H    -2.368994  -2.804335  0.754823
Ca    3.400698  1.905256  -2.070215
