37
Energy: -39741.7118295 eV PBE+vdW (tier 2 basis)
C    0.450786  1.272561  0.241549
C    0.122860  0.810565  1.623589
O    1.041747  0.338026  2.363685
H    1.019520  0.499156  -0.290162
H    1.116269  2.146189  0.326943
H    -0.423984  1.557102  -0.352348
N    -1.154505  0.912852  2.031203
C    -1.797592  0.881918  3.362102
C    -1.255690  -0.139428  4.369507
O    -0.600596  -1.179420  4.024767
H    -1.763409  1.328571  1.329565
H    -1.631184  1.874207  3.813432
C    -3.338725  0.734148  3.173799
C    -3.828321  -0.601358  2.589831
C    -5.351721  -0.810353  2.646809
N    -6.095494  0.063801  1.728746
C    -7.428789  0.293605  1.806434
N    -7.993475  1.156577  0.955946
N    -8.171912  -0.302191  2.743799
H    -3.667845  1.583836  2.554959
H    -3.805818  0.901891  4.153758
H    -3.395217  -1.440643  3.154444
H    -3.477722  -0.735819  1.554066
H    -5.711613  -0.610900  3.666827
H    -5.558646  -1.868248  2.417754
H    -5.686559  0.213663  0.810480
H    -7.441503  1.794593  0.394742
H    -9.001547  1.213871  0.852799
H    -9.134922  -0.020054  2.898862
H    -7.879396  -1.163048  3.190289
N    -1.511480  0.063405  5.656763
C    -2.182354  1.173339  6.344884
H    -1.200289  -0.699514  6.260246
H    -1.691300  1.319975  7.312803
H    -3.239061  0.937644  6.524922
H    -2.102297  2.104188  5.775747
Ca    1.438643  -1.455126  3.403055
