37
Energy: -39741.3741305 eV PBE+vdW (tier 2 basis)
C    -0.648804  0.178041  0.460687
C    -0.074989  -0.108684  1.806500
O    1.184854  -0.089024  1.977827
H    -1.581408  0.747820  0.515696
H    -0.854328  -0.761711  -0.078411
H    0.090636  0.733912  -0.126311
N    -0.860383  -0.390389  2.883557
C    -1.914563  -1.420462  2.896961
C    -1.234904  -2.779105  2.501604
O    0.031346  -2.834290  2.340454
H    -0.319333  -0.374624  3.748872
H    -2.183083  -1.522834  3.960216
C    -3.202346  -1.093448  2.104473
C    -3.888954  0.245201  2.453212
C    -4.870761  0.187566  3.636303
N    -5.597044  1.457538  3.735608
C    -6.334661  1.870122  4.787884
N    -6.795694  3.124015  4.813762
N    -6.575947  1.046075  5.815217
H    -3.920721  -1.911125  2.270338
H    -2.988536  -1.116848  1.029408
H    -4.452648  0.549240  1.558291
H    -3.139008  1.029260  2.633568
H    -4.342805  0.018333  4.587258
H    -5.577072  -0.646628  3.482333
H    -5.695729  1.999570  2.881994
H    -6.445594  3.836717  4.183374
H    -7.520166  3.407572  5.465401
H    -7.014668  1.393490  6.662109
H    -6.551727  0.040067  5.703426
N    -1.978948  -3.858220  2.379114
C    -1.466543  -5.203745  2.076161
H    -2.982472  -3.767693  2.515392
H    -0.767423  -5.527130  2.856264
H    -0.963465  -5.207162  1.102259
H    -2.313547  -5.893714  2.044146
Ca    2.048711  -2.053662  2.197690
