37
Energy: -39742.1554922 eV PBE+vdW (tier 2 basis)
C    0.213856  0.076918  -0.304420
C    0.299158  0.585887  1.092667
O    0.635386  1.790544  1.326922
H    -0.049694  -0.983713  -0.370050
H    1.169864  0.246336  -0.818519
H    -0.540899  0.668208  -0.844810
N    0.003957  -0.244625  2.106648
C    -0.107838  0.126888  3.531637
C    1.309215  0.368287  4.115690
O    1.847653  1.509156  3.940764
H    -0.233588  -1.202532  1.856552
H    -0.594958  1.113690  3.569693
C    -1.008219  -0.893104  4.261926
C    -1.418720  -0.457298  5.681953
C    -2.197717  -1.502766  6.502266
N    -3.611955  -1.619312  6.130279
C    -4.604433  -1.987806  6.971655
N    -5.876760  -1.850084  6.582677
N    -4.328010  -2.464816  8.189011
H    -0.523990  -1.885145  4.290391
H    -1.899084  -1.021771  3.627327
H    -2.001219  0.475377  5.639824
H    -0.519338  -0.226709  6.272137
H    -2.165480  -1.186892  7.553361
H    -1.699552  -2.485138  6.435397
H    -3.861479  -1.581330  5.147757
H    -6.633224  -2.300727  7.087350
H    -6.138437  -1.245175  5.812963
H    -5.061521  -2.572617  8.882635
H    -3.430687  -2.877144  8.413848
N    1.935177  -0.601556  4.753123
C    3.289245  -0.516538  5.315268
H    1.457941  -1.495916  4.838284
H    3.330875  -1.123390  6.225078
H    3.520137  0.524068  5.556204
H    4.022260  -0.902818  4.594922
Ca    1.856078  3.083565  2.477591
