37
Energy: -39740.2396781 eV PBE+vdW (tier 2 basis)
C    -0.276072  -0.908443  0.345418
C    -0.370481  -0.612513  1.814632
O    0.589905  -0.666538  2.589086
H    0.323877  -0.124728  -0.139533
H    -1.245807  -0.966603  -0.161023
H    0.266424  -1.851275  0.204315
N    -1.617274  -0.237044  2.283763
C    -1.786653  0.173788  3.673363
C    -2.991449  -0.575007  4.249365
O    -2.761711  -1.688111  4.900425
H    -2.354106  -0.068259  1.605035
H    -0.917293  -0.273029  4.180387
C    -1.738018  1.695822  3.960064
C    -0.306784  2.274836  4.030215
C    0.291608  2.713721  2.680268
N    1.633382  3.276863  2.817798
C    2.797057  2.645501  2.574804
N    3.928646  3.361365  2.540318
N    2.840661  1.324751  2.364790
H    -2.218541  1.872184  4.934503
H    -2.332530  2.252745  3.222518
H    0.367616  1.556786  4.519316
H    -0.338368  3.157402  4.684489
H    -0.339452  3.489100  2.223446
H    0.342709  1.892611  1.956558
H    1.698092  4.246287  3.112843
H    4.837922  2.913969  2.523707
H    3.919252  4.373362  2.484595
H    2.052124  0.697986  2.532288
H    3.694500  0.897776  2.024778
N    -4.240944  -0.189343  4.125549
C    -4.813156  0.973645  3.430117
H    -4.928805  -0.789447  4.584462
H    -5.796640  0.682865  3.046296
H    -4.185020  1.282878  2.592553
H    -4.937587  1.808765  4.131159
Ca    -2.292835  -3.409167  5.851145
