37
Energy: -39741.3056595 eV PBE+vdW (tier 2 basis)
C    0.733714  1.373318  1.098495
C    0.286823  0.704795  2.346690
O    1.130017  0.241760  3.179139
H    1.429725  2.196098  1.310921
H    -0.084654  1.715040  0.458957
H    1.319357  0.627170  0.534312
N    -1.037595  0.533697  2.619623
C    -1.986627  1.649220  2.631023
C    -1.631117  2.520529  3.878541
O    -0.747638  2.098622  4.706557
H    -1.182231  -0.120490  3.389850
H    -1.784682  2.272838  1.747042
C    -3.451219  1.152259  2.509145
C    -3.998305  0.298909  3.666207
C    -5.260120  -0.514018  3.321991
N    -6.455413  0.314935  3.117564
C    -7.572545  -0.105674  2.474466
N    -8.587645  0.747577  2.305077
N    -7.654165  -1.343764  1.979666
H    -3.476274  0.572232  1.574748
H    -4.101252  2.019556  2.338359
H    -4.182729  0.915941  4.560550
H    -3.263537  -0.460216  3.977119
H    -5.434501  -1.239925  4.132503
H    -5.079374  -1.079026  2.396175
H    -6.602500  1.070439  3.781480
H    -9.502350  0.427127  2.003850
H    -8.482199  1.743345  2.458926
H    -7.074473  -2.098703  2.325768
H    -8.420186  -1.608989  1.368166
N    -2.189390  3.701815  4.065875
C    -3.119440  4.444781  3.208008
H    -1.890345  4.181777  4.917129
H    -2.871396  5.509149  3.279745
H    -4.153905  4.306138  3.546033
H    -3.021784  4.140101  2.162010
Ca    1.124519  1.090406  5.162588
