37
Energy: -39742.108344 eV PBE+vdW (tier 2 basis)
C    -1.440443  2.467066  1.387931
C    -1.828096  1.056325  1.670184
O    -2.754811  0.494780  1.005725
H    -1.075697  2.524086  0.350916
H    -0.665781  2.852472  2.058794
H    -2.325624  3.114687  1.443707
N    -1.172291  0.382739  2.631301
C    -1.286468  -1.057562  2.918301
C    -2.585192  -1.361590  3.709648
O    -3.691610  -1.293589  3.082135
H    -0.462277  0.902935  3.139300
H    -1.472750  -1.547158  1.949233
C    0.054095  -1.649547  3.421287
C    0.805153  -1.009704  4.609417
C    2.160763  -1.716383  4.810642
N    2.921442  -1.126074  5.914253
C    3.915745  -1.743239  6.593276
N    4.370666  -2.938418  6.202999
N    4.420970  -1.158763  7.683604
H    0.724613  -1.633154  2.548899
H    -0.126201  -2.716143  3.624666
H    0.240980  -1.058708  5.554022
H    0.996799  0.060373  4.423275
H    2.737239  -1.667815  3.871222
H    1.989099  -2.776929  5.045508
H    2.858989  -0.120315  6.042389
H    5.000221  -3.470803  6.795631
H    4.270904  -3.263301  5.248841
H    3.946390  -0.394503  8.150805
H    5.292240  -1.475785  8.096642
N    -2.537708  -1.712301  4.979479
C    -3.696033  -2.058320  5.812706
H    -1.624849  -1.744233  5.424066
H    -3.995103  -1.193997  6.419651
H    -3.419400  -2.885239  6.474638
H    -4.527586  -2.362535  5.173055
Ca    -4.541387  -0.626357  1.225850
