37
Energy: -39739.6300099 eV PBE+vdW (tier 2 basis)
C    0.218244  0.621228  0.420868
C    -0.003528  0.121287  1.816297
O    0.026645  -1.067596  2.123016
H    0.956884  -0.030879  -0.060282
H    0.571050  1.657524  0.374612
H    -0.708516  0.521677  -0.164836
N    -0.232084  1.052205  2.848701
C    -1.197666  2.126894  2.708924
C    -0.820025  3.425412  3.428823
O    -1.351462  4.530716  2.960699
H    -0.315073  0.537787  3.725928
H    -1.195512  2.428394  1.650864
C    -2.651982  1.643202  3.032445
C    -2.840535  0.832622  4.344494
C    -3.412612  -0.586071  4.182781
N    -2.455295  -1.541363  3.622749
C    -2.614462  -2.879646  3.598563
N    -1.641298  -3.627189  3.066234
N    -3.711134  -3.456704  4.100893
H    -3.336476  2.502978  3.023612
H    -2.944207  1.029472  2.168221
H    -3.544352  1.368851  4.993231
H    -1.912135  0.768928  4.933785
H    -4.321876  -0.541471  3.558703
H    -3.715934  -0.929855  5.183691
H    -1.599495  -1.218956  3.161093
H    -0.800855  -3.195749  2.694080
H    -1.723287  -4.634238  2.991132
H    -3.811363  -4.465421  4.122085
H    -4.487811  -2.918318  4.460484
N    -0.006263  3.533629  4.453043
C    0.751604  2.521982  5.217879
H    0.134484  4.491677  4.776389
H    0.074677  1.789741  5.669982
H    1.487617  2.028447  4.575926
H    1.269623  3.049254  6.023666
Ca    -2.037325  6.278047  2.189243
