37
Energy: -39740.265839 eV PBE+vdW (tier 2 basis)
C    0.905043  -0.508936  0.768359
C    0.094157  0.616266  1.326942
O    0.612946  1.670188  1.765143
H    1.631495  -0.109858  0.049765
H    0.305716  -1.291344  0.290706
H    1.482514  -0.968084  1.584359
N    -1.259429  0.472759  1.347068
C    -2.189008  1.347539  2.077539
C    -2.355720  2.708708  1.388648
O    -3.560137  3.156144  1.137365
H    -1.647030  -0.390321  0.977242
H    -3.164289  0.863123  1.953678
C    -1.914591  1.399628  3.634030
C    -1.592776  2.709821  4.378755
C    -0.159224  3.278327  4.340897
N    0.909938  2.322822  4.637180
C    1.601463  2.230039  5.788797
N    2.805055  1.643991  5.786916
N    1.101563  2.706773  6.935163
H    -1.126419  0.661383  3.830706
H    -2.814475  0.985874  4.105384
H    -1.861087  2.518249  5.428593
H    -2.268715  3.523689  4.068940
H    -0.092185  4.114356  5.050455
H    0.077159  3.702088  3.359024
H    1.291120  1.842893  3.823303
H    3.263643  1.376625  6.651450
H    3.340391  1.535091  4.933449
H    1.683288  2.795739  7.761429
H    0.118813  2.918447  7.045711
N    -1.293428  3.384698  1.054361
C    -1.262734  4.666047  0.352906
H    -0.392414  2.882245  1.310024
H    -0.224232  5.003391  0.294496
H    -1.847571  5.421532  0.893185
H    -1.644473  4.556254  -0.671418
Ca    -5.378220  3.792384  0.530160
