37
Energy: -39740.2956918 eV PBE+vdW (tier 2 basis)
C    2.146223  2.282508  0.240061
C    1.425982  1.613097  1.378653
O    1.949173  1.406567  2.477484
H    2.900286  1.587936  -0.158132
H    2.685183  3.156592  0.624145
H    1.496531  2.591370  -0.586542
N    0.123463  1.232572  1.107197
C    -0.785809  0.413325  1.906213
C    -1.961439  1.230907  2.471172
O    -3.176013  0.770123  2.279043
H    -0.187475  1.416111  0.157955
H    -1.263351  -0.285174  1.201364
C    -0.162450  -0.439290  3.046281
C    0.949937  -1.398777  2.579636
C    1.942459  -1.673302  3.728475
N    3.209673  -2.253176  3.291911
C    4.366145  -1.577541  3.142423
N    4.379748  -0.242280  3.069419
N    5.514536  -2.262820  3.064365
H    -0.986146  -1.009838  3.502403
H    0.227135  0.225151  3.825228
H    1.502497  -0.964550  1.738537
H    0.519602  -2.341856  2.214577
H    1.503607  -2.356084  4.468508
H    2.167149  -0.739571  4.260414
H    3.254272  -3.260734  3.177338
H    5.255790  0.258101  3.167723
H    3.541208  0.320155  2.905191
H    5.580669  -3.228344  3.365611
H    6.374963  -1.818540  2.764687
N    -1.826816  2.351081  3.138227
C    -0.614211  3.084315  3.528902
H    -2.701319  2.792800  3.427483
H    -0.770847  3.468972  4.542795
H    -0.468702  3.932657  2.847204
H    0.267231  2.438986  3.512445
Ca    -5.061665  0.108005  1.968234
