37
Energy: -39741.4354502 eV PBE+vdW (tier 2 basis)
C    -0.275313  -0.178125  -0.909975
C    -0.086588  -0.221157  0.564109
O    1.064833  -0.412056  1.066665
H    0.347018  0.604273  -1.366447
H    -1.316727  -0.060628  -1.220732
H    0.105353  -1.131794  -1.311183
N    -1.143095  -0.079505  1.411626
C    -2.072404  1.052464  1.329193
C    -1.231643  2.349322  1.557105
O    -0.029201  2.243678  1.988290
H    -0.898245  -0.316042  2.375632
H    -2.501079  1.092104  0.317244
C    -3.186579  0.894667  2.393316
C    -4.118276  -0.325945  2.220828
C    -5.335315  -0.078059  1.308212
N    -6.205847  -1.249525  1.174467
C    -7.430168  -1.417969  1.717556
N    -7.831271  -0.676932  2.758208
N    -8.254255  -2.333418  1.199994
H    -3.777440  1.820453  2.427749
H    -2.697260  0.831720  3.377773
H    -4.476538  -0.615198  3.218906
H    -3.549160  -1.192079  1.850586
H    -5.020204  0.204245  0.292194
H    -5.942671  0.757569  1.682671
H    -5.908268  -1.974359  0.528549
H    -7.172052  -0.229294  3.381368
H    -8.802695  -0.681374  3.051936
H    -9.071646  -2.655576  1.708363
H    -8.118005  -2.713173  0.269515
N    -1.735324  3.541922  1.306251
C    -3.045492  3.911145  0.761423
H    -1.112617  4.322183  1.527134
H    -3.704079  4.268981  1.563331
H    -3.509685  3.066151  0.245925
H    -2.902682  4.722407  0.038912
Ca    1.888064  1.252930  2.175125
