37
Energy: -39742.1149698 eV PBE+vdW (tier 2 basis)
C    -1.806598  2.077544  0.373226
C    -1.958618  0.829870  1.171836
O    -2.693596  -0.122514  0.757527
H    -1.184591  2.836530  0.858764
H    -2.796536  2.501638  0.156716
H    -1.358970  1.815732  -0.597718
N    -1.296835  0.717399  2.335719
C    -1.197403  -0.500026  3.165768
C    -2.538337  -0.739773  3.905360
O    -3.478367  -1.323656  3.275352
H    -0.737633  1.519208  2.619821
H    -1.109400  -1.352481  2.474238
C    0.094980  -0.440722  4.009776
C    0.425020  -1.755285  4.749257
C    1.914177  -1.994883  5.058957
N    2.447299  -1.185666  6.160922
C    3.476931  -1.557922  6.957687
N    4.181423  -2.662472  6.697651
N    3.771866  -0.817112  8.031623
H    0.061429  0.418799  4.702066
H    0.903891  -0.216730  3.296569
H    0.129511  -2.601010  4.109648
H    -0.160654  -1.857197  5.674202
H    2.512688  -1.843601  4.144514
H    2.017744  -3.047780  5.352734
H    2.208190  -0.200163  6.195353
H    4.827470  -3.039913  7.384007
H    4.213629  -3.075384  5.773353
H    3.112997  -0.153092  8.420942
H    4.644380  -0.942925  8.534581
N    -2.689905  -0.325647  5.148242
C    -3.914605  -0.456689  5.947584
H    -1.906230  0.154888  5.582945
H    -4.511309  -1.288587  5.565860
H    -4.498147  0.472014  5.899475
H    -3.637527  -0.650429  6.988636
Ca    -4.193363  -1.529962  1.255804
