37
Energy: -39742.1021843 eV PBE+vdW (tier 2 basis)
C    1.711447  -2.488207  4.270300
C    0.921539  -1.255542  3.998280
O    1.446005  -0.267018  3.392369
H    2.021853  -2.920822  3.306823
H    1.161888  -3.245017  4.839441
H    2.633503  -2.226589  4.806952
N    -0.361987  -1.204335  4.391370
C    -1.331978  -0.141581  4.056750
C    -1.025039  1.124132  4.895696
O    -0.117793  1.917306  4.484211
H    -0.719644  -2.019904  4.884567
H    -1.129418  0.159971  3.017218
C    -2.763005  -0.718318  4.114191
C    -3.848345  0.206661  3.527361
C    -5.136092  -0.512901  3.077561
N    -6.016810  -0.993881  4.152087
C    -7.301669  -0.613617  4.347537
N    -8.142458  -1.443778  4.972536
N    -7.733864  0.586071  3.946906
H    -3.016704  -1.031009  5.142058
H    -2.730469  -1.645639  3.520131
H    -3.450155  0.689709  2.621280
H    -4.098664  1.019480  4.225019
H    -4.880564  -1.373903  2.441318
H    -5.718537  0.162031  2.438917
H    -5.768081  -1.878466  4.584232
H    -7.965126  -2.440431  5.033649
H    -9.039797  -1.121672  5.321377
H    -8.725225  0.801463  3.919973
H    -7.098724  1.331786  3.694601
N    -1.681843  1.346061  6.017761
C    -1.454676  2.476856  6.926376
H    -2.376802  0.659169  6.299895
H    -1.063496  3.326587  6.361226
H    -0.741339  2.194324  7.711722
H    -2.406145  2.751211  7.392032
Ca    1.714213  1.830810  3.355279
