37
Energy: -39741.4607283 eV PBE+vdW (tier 2 basis)
C    0.417537  1.743839  -0.092583
C    0.195108  0.703586  0.944359
O    1.175208  0.128911  1.514667
H    1.012443  1.273454  -0.893532
H    1.038114  2.564496  0.293032
H    -0.503164  2.135481  -0.533157
N    -1.063956  0.314783  1.291845
C    -2.094092  1.266275  1.719182
C    -1.598532  1.891609  3.062004
O    -0.576163  1.384996  3.645974
H    -1.058914  -0.534998  1.859791
H    -2.156469  2.074648  0.974974
C    -3.466363  0.554232  1.825363
C    -3.978024  0.078919  0.450878
C    -5.174272  -0.889936  0.466168
N    -6.475985  -0.234624  0.640365
C    -7.644139  -0.691537  0.137146
N    -8.723044  0.099735  0.161794
N    -7.727296  -1.912808  -0.398738
H    -4.179544  1.238916  2.304291
H    -3.364120  -0.301396  2.513481
H    -3.164502  -0.459256  -0.056887
H    -4.215716  0.941753  -0.190033
H    -5.026538  -1.664180  1.237969
H    -5.198538  -1.395678  -0.508097
H    -6.550344  0.533610  1.298269
H    -9.651414  -0.271412  -0.011961
H    -8.646706  1.103905  0.273056
H    -7.064064  -2.644565  -0.174506
H    -8.541007  -2.188442  -0.939478
N    -2.196218  2.944380  3.585755
C    -3.311324  3.743628  3.068713
H    -1.806346  3.254372  4.478540
H    -3.084756  4.802013  3.239695
H    -4.237683  3.495108  3.602245
H    -3.442973  3.588430  1.994412
Ca    1.372946  0.434036  3.645435
