37
Energy: -39740.2226232 eV PBE+vdW (tier 2 basis)
C    0.595974  -0.253798  0.051487
C    0.109029  0.578910  1.188870
O    0.755519  1.667322  1.505829
H    1.635302  -0.564683  0.232217
H    0.582006  0.338533  -0.875505
H    -0.010180  -1.151765  -0.109980
N    -0.964878  0.205666  1.858091
C    -1.639343  0.897932  2.967594
C    -1.334948  0.415800  4.414199
O    -1.689443  1.210009  5.293049
H    -1.405259  -0.647860  1.515629
H    -1.258535  1.925884  2.958771
C    -3.169790  0.957607  2.725873
C    -3.983174  -0.323114  2.995231
C    -4.500227  -0.529140  4.431472
N    -5.477773  0.486060  4.841579
C    -5.451403  1.209353  5.982410
N    -6.604439  1.674674  6.479765
N    -4.298881  1.482221  6.599310
H    -3.322560  1.284315  1.687718
H    -3.551160  1.777395  3.349934
H    -3.424144  -1.233370  2.721344
H    -4.849169  -0.322739  2.317844
H    -3.692550  -0.542072  5.170096
H    -4.985599  -1.514668  4.487109
H    -6.378397  0.450161  4.371257
H    -7.498952  1.277998  6.214439
H    -6.618776  2.394050  7.194346
H    -4.305180  1.861805  7.539166
H    -3.389483  1.384932  6.139122
N    -0.759755  -0.767041  4.708501
C    -0.388937  -1.914013  3.877822
H    -0.632892  -0.884698  5.713407
H    -0.148814  -2.745100  4.547991
H    0.501424  -1.719717  3.266326
H    -1.219061  -2.251442  3.243839
Ca    2.097405  3.190993  1.480705
