37
Energy: -39742.176803 eV PBE+vdW (tier 2 basis)
C    0.100454  1.886152  1.315378
C    0.451047  1.670589  2.747367
O    1.165671  2.514847  3.375214
H    -0.462778  2.828011  1.233164
H    -0.493426  1.075190  0.881249
H    1.017592  2.019298  0.725409
N    -0.009525  0.572222  3.369781
C    0.121786  0.259091  4.806204
C    1.574133  -0.193238  5.110716
O    2.471239  0.704814  5.222864
H    -0.531051  -0.088357  2.797354
H    0.009675  1.209243  5.351794
C    -1.000797  -0.702615  5.253247
C    -2.402082  -0.055364  5.216259
C    -3.591750  -1.010155  5.426184
N    -3.840595  -1.354057  6.830837
C    -5.046710  -1.691287  7.339483
N    -5.202196  -1.762842  8.666361
N    -6.084288  -1.933558  6.533032
H    -0.758768  -1.037551  6.273048
H    -0.997627  -1.603994  4.615069
H    -2.563764  0.406075  4.231057
H    -2.460324  0.766659  5.945598
H    -3.453906  -1.924017  4.823334
H    -4.491995  -0.502708  5.054598
H    -3.048172  -1.484375  7.450251
H    -6.018551  -2.203990  9.077293
H    -4.554741  -1.316681  9.305511
H    -7.025243  -2.010059  6.906407
H    -5.961837  -2.192456  5.561574
N    1.855963  -1.474736  5.236650
C    3.185371  -2.036851  5.506786
H    1.094987  -2.140581  5.123697
H    3.827710  -1.264989  5.936373
H    3.628089  -2.414478  4.575917
H    3.080266  -2.865961  6.214229
Ca    2.887146  2.714710  4.600712
