37
Energy: -39742.0735901 eV PBE+vdW (tier 2 basis)
C    -1.174660  -2.901080  -0.468857
C    -0.821885  -2.015634  0.674044
O    0.365206  -1.581399  0.822622
H    -0.514050  -3.779144  -0.471676
H    -0.978098  -2.358166  -1.405820
H    -2.218283  -3.231875  -0.460728
N    -1.777205  -1.666502  1.552337
C    -1.608494  -0.681058  2.636615
C    -0.677123  -1.261375  3.734137
O    0.562738  -0.958781  3.654217
H    -2.713901  -2.028669  1.385076
H    -1.015145  0.148104  2.222186
C    -2.984968  -0.110090  3.036395
C    -2.946987  1.003060  4.098329
C    -4.335055  1.647032  4.264602
N    -4.308366  2.719636  5.262369
C    -5.390308  3.220081  5.898353
N    -6.624019  2.839804  5.548714
N    -5.216802  4.079429  6.907587
H    -3.660333  -0.914459  3.358988
H    -3.413897  0.296681  2.106947
H    -2.223937  1.777368  3.794332
H    -2.609585  0.611630  5.070134
H    -5.059546  0.889877  4.599338
H    -4.676609  2.035144  3.289848
H    -3.454877  3.264453  5.341446
H    -7.424521  3.092036  6.119767
H    -6.827317  2.467229  4.629224
H    -5.987646  4.631570  7.269160
H    -4.318073  4.198431  7.360748
N    -1.084457  -2.061831  4.704037
C    -2.404413  -2.645365  4.971121
H    -0.338470  -2.339689  5.345002
H    -2.254428  -3.541626  5.580888
H    -2.897720  -2.948763  4.043135
H    -3.039567  -1.950291  5.533986
Ca    1.997801  -1.016768  2.049397
