37
Energy: -39740.2534834 eV PBE+vdW (tier 2 basis)
C    0.001307  -1.179012  0.583090
C    0.018651  -0.290073  1.773467
O    1.192618  0.133799  2.188063
H    0.485132  -2.131699  0.849518
H    0.597558  -0.724958  -0.219831
H    -0.996321  -1.391288  0.202540
N    -1.033208  0.099815  2.467294
C    -2.523228  -0.048278  2.386576
C    -3.121738  -0.696446  3.674569
O    -4.076286  -0.107685  4.188192
H    -0.778200  0.693032  3.260729
H    -2.858694  0.993153  2.480029
C    -3.149300  -0.636371  1.109141
C    -4.693661  -0.677602  1.154500
C    -5.398891  0.690421  1.224925
N    -6.847215  0.565609  1.366487
C    -7.536607  0.648443  2.521395
N    -8.872592  0.736895  2.474900
N    -6.907343  0.649580  3.699712
H    -2.818023  -1.670634  0.949918
H    -2.819988  -0.042022  0.242938
H    -5.025842  -1.305344  1.993120
H    -5.022204  -1.197694  0.243806
H    -5.207140  1.268916  0.310374
H    -5.037161  1.299749  2.063115
H    -7.387809  0.403136  0.522922
H    -9.438185  0.626177  3.308483
H    -9.363532  0.959211  1.616803
H    -5.923576  0.395611  3.808765
H    -7.417229  0.877437  4.545391
N    -2.641711  -1.860761  4.154151
C    -1.621508  -2.753253  3.614884
H    -3.129523  -2.173593  4.992998
H    -1.795338  -3.755959  4.017953
H    -0.606364  -2.448293  3.908615
H    -1.687922  -2.831441  2.523793
Ca    3.132510  0.657431  2.437194
