37
Energy: -39740.735836 eV PBE+vdW (tier 2 basis)
C    -0.175333  -0.124714  -0.336237
C    -0.113399  -0.075706  1.151016
O    1.067910  -0.118323  1.720790
H    0.361872  0.739486  -0.754025
H    -1.192553  -0.126935  -0.734464
H    0.336852  -1.030406  -0.691390
N    -1.176166  0.013086  1.913299
C    -2.589288  0.188051  1.516252
C    -3.213437  0.919371  2.726721
O    -2.771270  0.634688  3.858827
H    -1.081635  0.054282  2.942282
H    -2.621706  0.811614  0.615520
C    -3.308737  -1.160233  1.232327
C    -3.600496  -2.071523  2.442399
C    -4.976738  -1.806767  3.085106
N    -5.207174  -2.568245  4.311408
C    -5.113001  -2.091007  5.565484
N    -5.642010  -2.796273  6.573994
N    -4.501694  -0.926065  5.815184
H    -2.697993  -1.705668  0.499472
H    -4.243808  -0.920985  0.703594
H    -2.813315  -1.985172  3.204960
H    -3.576024  -3.114516  2.098828
H    -5.772786  -2.079872  2.378343
H    -5.128573  -0.745499  3.317486
H    -5.538675  -3.522832  4.211602
H    -5.438657  -2.571261  7.541085
H    -6.314417  -3.537110  6.410270
H    -4.597952  -0.491063  6.725360
H    -3.901198  -0.453093  5.137248
N    -4.219992  1.770664  2.509861
C    -4.779925  2.213534  1.227002
H    -4.577909  2.219012  3.352110
H    -5.656742  2.832385  1.437345
H    -5.112517  1.366329  0.615863
H    -4.063520  2.825915  0.663909
Ca    3.030347  -0.083942  2.183896
