37
Energy: -39740.1303345 eV PBE+vdW (tier 2 basis)
C    -0.111207  -0.456790  -0.146745
C    -0.230759  0.167365  1.208822
O    0.714294  0.271556  2.000998
H    0.579173  0.143772  -0.755336
H    -1.064608  -0.550881  -0.677500
H    0.344798  -1.449972  -0.040991
N    -1.477686  0.639188  1.576509
C    -1.625154  1.318568  2.858438
C    -2.915768  0.830020  3.513633
O    -3.952202  1.614813  3.661917
H    -2.208315  0.688057  0.872658
H    -0.806288  0.889837  3.463611
C    -1.406766  2.849744  2.827425
C    -0.558747  3.397588  4.005648
C    0.903759  3.747477  3.685166
N    1.714946  2.585007  3.329022
C    3.060013  2.556797  3.303202
N    3.789125  3.606688  3.696220
N    3.667584  1.436865  2.889218
H    -2.376518  3.367732  2.787097
H    -0.924871  3.087741  1.869519
H    -0.586393  2.701001  4.858755
H    -1.004561  4.332670  4.368949
H    1.325779  4.214589  4.587324
H    0.930446  4.500322  2.878228
H    1.259886  1.782720  2.877386
H    4.801157  3.560485  3.733878
H    3.367885  4.492158  3.942799
H    3.124248  0.635236  2.588385
H    4.675626  1.375189  2.810489
N    -3.010472  -0.413383  3.932032
C    -2.003602  -1.481661  3.868500
H    -3.914578  -0.690287  4.317023
H    -2.184037  -2.165891  4.703426
H    -0.991871  -1.073632  3.948428
H    -2.103259  -2.030884  2.923222
Ca    -5.576797  2.796703  3.917822
