37
Energy: -39740.6560434 eV PBE+vdW (tier 2 basis)
C    -0.379982  -1.528254  1.306584
C    0.201400  -0.174971  1.523025
O    1.504476  -0.069677  1.629209
H    -0.104066  -2.178834  2.149564
H    0.048127  -1.973474  0.397093
H    -1.468718  -1.528621  1.216638
N    -0.526295  0.912650  1.613307
C    -1.978241  1.085846  1.408253
C    -2.112616  2.548008  0.920042
O    -1.323106  3.399816  1.372786
H    -0.070221  1.828929  1.758496
H    -2.297705  0.401017  0.611859
C    -2.843304  0.807121  2.670258
C    -2.372796  1.308536  4.046210
C    -2.326987  2.812784  4.344259
N    -3.634063  3.474915  4.203521
C    -3.819518  4.755016  3.811910
N    -4.889658  5.426070  4.254970
N    -2.969413  5.341090  2.961764
H    -2.959854  -0.283285  2.749054
H    -3.850333  1.189367  2.445430
H    -1.368695  0.916634  4.271136
H    -3.026727  0.822839  4.786751
H    -1.610491  3.321827  3.695081
H    -1.974217  2.943489  5.379055
H    -4.387042  3.084668  4.765536
H    -5.405083  5.127395  5.075546
H    -5.179082  6.300785  3.830682
H    -2.991679  6.345357  2.826969
H    -2.287549  4.802076  2.423027
N    -3.097786  2.792858  0.053999
C    -3.389400  4.112851  -0.509097
H    -3.676240  2.017322  -0.257520
H    -3.658242  3.999631  -1.564325
H    -2.497030  4.740342  -0.429758
H    -4.225615  4.587557  0.020067
Ca    3.509736  -0.306130  1.599159
