37
Energy: -39741.1344466 eV PBE+vdW (tier 2 basis)
C    0.226752  0.537951  0.477711
C    0.110597  0.081769  1.891126
O    1.155508  0.050262  2.618173
H    0.897217  1.410325  0.480446
H    -0.724306  0.821126  0.026113
H    0.724054  -0.222487  -0.143286
N    -1.079367  -0.236191  2.479872
C    -2.014579  -1.295109  2.047667
C    -1.336677  -2.636890  2.469485
O    -0.056136  -2.706331  2.486621
H    -0.985010  -0.224729  3.498182
H    -2.914015  -1.156519  2.663718
C    -2.440100  -1.219513  0.558044
C    -3.634645  -2.112138  0.171618
C    -4.097236  -1.969008  -1.292403
N    -4.974713  -0.815100  -1.520780
C    -5.928261  -0.744709  -2.476190
N    -6.822330  0.249512  -2.438672
N    -5.996263  -1.666422  -3.441709
H    -1.588930  -1.464542  -0.092392
H    -2.686663  -0.161974  0.381698
H    -4.495452  -1.931982  0.832718
H    -3.357712  -3.168374  0.292760
H    -4.672294  -2.868054  -1.550595
H    -3.223249  -1.930850  -1.964352
H    -4.793541  0.044603  -1.013796
H    -7.414846  0.454683  -3.236731
H    -6.991490  0.786206  -1.595781
H    -6.806345  -1.720566  -4.051260
H    -5.198833  -2.235137  -3.699370
N    -2.044568  -3.683524  2.855595
C    -3.484493  -3.844955  3.087994
H    -1.477790  -4.503707  3.084076
H    -3.920239  -4.505250  2.328650
H    -3.999107  -2.881934  3.077554
H    -3.622475  -4.307078  4.072599
Ca    1.870959  -1.916429  3.105318
