37
Energy: -39741.4527619 eV PBE+vdW (tier 2 basis)
C    -1.055581  -1.610693  2.014261
C    -0.255964  -0.631991  2.799739
O    0.947242  -0.885942  3.120599
H    -0.634366  -1.743219  1.006502
H    -2.115869  -1.355244  1.937426
H    -0.955920  -2.589314  2.508775
N    -0.799953  0.548825  3.208231
C    -1.469670  1.452524  2.268403
C    -0.363790  1.988907  1.288016
O    0.847912  1.604670  1.423473
H    -0.196820  1.041432  3.870829
H    -2.166544  0.859954  1.655523
C    -2.254455  2.570990  2.988417
C    -3.591756  2.158434  3.649333
C    -3.502217  1.698822  5.117764
N    -4.812086  1.387134  5.696970
C    -5.516540  2.136773  6.570156
N    -6.503354  1.570038  7.270635
N    -5.234171  3.432898  6.753315
H    -2.484189  3.346478  2.245819
H    -1.589773  3.067620  3.714852
H    -4.082584  1.376389  3.049729
H    -4.264641  3.026252  3.598405
H    -3.025594  2.467100  5.742698
H    -2.884400  0.794746  5.213665
H    -5.211182  0.480657  5.473411
H    -6.582218  0.563855  7.369344
H    -7.197287  2.130918  7.754383
H    -5.646463  3.947628  7.524577
H    -4.744718  3.977861  6.055936
N    -0.717437  2.804709  0.317904
C    0.191741  3.368941  -0.691389
H    -1.701908  3.049211  0.232862
H    -0.320706  4.194953  -1.191811
H    0.454164  2.606727  -1.436049
H    1.098913  3.745669  -0.208356
Ca    2.440518  0.324385  2.130524
