37
Energy: -39739.6013633 eV PBE+vdW (tier 2 basis)
C    -0.394512  0.084607  0.008789
C    -0.400459  0.418810  1.468818
O    0.360608  1.399741  1.876792
H    -0.711381  0.961905  -0.574841
H    -1.058493  -0.747396  -0.250100
H    0.623431  -0.187637  -0.307210
N    -1.171804  -0.290938  2.268909
C    -1.550856  -0.318135  3.708526
C    -3.069941  0.041626  3.914807
O    -3.722350  -0.757541  4.574094
H    -1.684534  -1.011039  1.757323
H    -1.567361  -1.393882  3.925535
C    -0.594176  0.346351  4.713844
C    -1.145611  0.414238  6.159197
C    -1.591452  -0.866902  6.880402
N    -0.475082  -1.722954  7.310540
C    -0.652244  -2.966551  7.814609
N    0.405091  -3.653949  8.263623
N    -1.864251  -3.527543  7.831883
H    -0.384016  1.382759  4.418013
H    0.361532  -0.198715  4.684343
H    -2.022837  1.076633  6.168950
H    -0.394705  0.934343  6.774045
H    -2.260266  -1.451063  6.234320
H    -2.178185  -0.550682  7.758456
H    0.358483  -1.242005  7.638271
H    0.292603  -4.516806  8.784545
H    1.352079  -3.316815  8.142127
H    -2.707394  -2.982505  7.699640
H    -1.988343  -4.497089  8.103516
N    -3.592489  1.184337  3.411634
C    -2.959297  2.267845  2.679383
H    -4.589012  1.277571  3.606193
H    -2.895547  2.062371  1.599280
H    -3.562777  3.172323  2.809105
H    -1.959374  2.485388  3.077722
Ca    1.726735  2.873211  1.573792
