37
Energy: -39740.486431 eV PBE+vdW (tier 2 basis)
C    -0.541253  -0.804337  0.037518
C    -0.262307  -0.245583  1.392681
O    0.960388  -0.261901  1.848827
H    -0.217603  -1.854368  -0.010615
H    0.029333  -0.244784  -0.718643
H    -1.601624  -0.758679  -0.233633
N    -1.254429  0.252968  2.108829
C    -1.224862  0.895707  3.435096
C    -2.155644  0.185678  4.479536
O    -2.589239  0.851995  5.420807
H    -2.163223  0.244072  1.642848
H    -0.197120  0.794788  3.809839
C    -1.580969  2.392214  3.347535
C    -3.041737  2.707982  2.942129
C    -3.673356  3.852769  3.743848
N    -3.856832  3.459858  5.142921
C    -4.541488  4.160309  6.057970
N    -4.734608  3.637245  7.277337
N    -5.037867  5.369432  5.769073
H    -0.877178  2.885962  2.663639
H    -1.365084  2.792685  4.346761
H    -3.688754  1.823468  3.057285
H    -3.090786  2.990856  1.882563
H    -4.648763  4.097553  3.296541
H    -3.034845  4.750241  3.675945
H    -3.436652  2.568922  5.429664
H    -5.170519  4.169139  8.021098
H    -4.464484  2.684974  7.488835
H    -5.623699  5.869734  6.427557
H    -4.829280  5.840334  4.898741
N    -2.414518  -1.121321  4.313348
C    -3.237020  -1.882029  5.262199
H    -1.990112  -1.627420  3.545571
H    -3.411149  -2.880108  4.851628
H    -4.199208  -1.379407  5.409063
H    -2.731688  -1.967768  6.231804
Ca    2.975127  -0.528200  1.930753
