37
Energy: -39740.6168365 eV PBE+vdW (tier 2 basis)
C    1.316342  -0.973769  0.839368
C    0.730077  0.315833  0.376780
O    1.462258  1.066371  -0.405291
H    2.248838  -0.750231  1.380557
H    1.555925  -1.607382  -0.023064
H    0.666403  -1.543152  1.507060
N    -0.397095  0.826085  0.867500
C    -1.519334  -0.031235  1.257728
C    -1.825423  -0.914849  -0.021881
O    -1.004705  -0.916248  -0.945160
H    -0.642404  1.741529  0.490109
H    -1.160866  -0.726839  2.030033
C    -2.694331  0.751140  1.875885
C    -3.421187  1.749624  0.957903
C    -4.834081  2.139211  1.418990
N    -4.847024  2.874842  2.691079
C    -5.945774  3.065172  3.454073
N    -5.824872  3.670738  4.641077
N    -7.141726  2.625768  3.049248
H    -2.328066  1.244645  2.787741
H    -3.413097  0.000674  2.238727
H    -3.549606  1.316293  -0.045483
H    -2.827675  2.668570  0.816751
H    -5.436185  1.228011  1.551502
H    -5.303401  2.741885  0.624581
H    -4.073399  3.508473  2.868720
H    -4.923791  3.799585  5.085655
H    -6.637782  3.999498  5.151227
H    -7.937438  2.629711  3.679188
H    -7.339417  2.438488  2.073801
N    -2.943147  -1.648570  -0.000420
C    -3.287623  -2.594860  -1.068686
H    -3.511831  -1.660171  0.838890
H    -2.654190  -3.489437  -1.016901
H    -3.149168  -2.117061  -2.043626
H    -4.334673  -2.887424  -0.952389
Ca    2.805121  1.522057  -1.832398
