37
Energy: -39740.1388759 eV PBE+vdW (tier 2 basis)
C    -0.468454  -0.359733  0.090978
C    -0.322033  -0.332840  1.580861
O    0.766021  -0.406951  2.162209
H    0.091293  0.481628  -0.339182
H    -1.506836  -0.316738  -0.254499
H    -0.001838  -1.278252  -0.290155
N    -1.488083  -0.229331  2.323768
C    -1.389568  -0.146334  3.776972
C    -2.494080  -1.017364  4.375473
O    -3.690512  -0.556383  4.605471
H    -2.346040  0.018023  1.841166
H    -0.441226  -0.664485  3.994136
C    -1.281194  1.284395  4.363687
C    -0.240730  1.426901  5.504890
C    1.104861  2.063865  5.123051
N    1.885785  1.258844  4.185285
C    3.200597  1.407932  3.942304
N    3.943962  2.283642  4.627262
N    3.767446  0.639430  3.002402
H    -2.267735  1.620050  4.715576
H    -1.031466  1.957768  3.532184
H    -0.058868  0.452713  5.986146
H    -0.655918  2.072014  6.289800
H    1.677315  2.181808  6.054853
H    0.928337  3.073271  4.712676
H    1.389690  0.668363  3.506775
H    4.945923  2.346864  4.487199
H    3.537744  2.933055  5.287239
H    3.212340  -0.026374  2.476028
H    4.741994  0.742644  2.746341
N    -2.222842  -2.276967  4.631575
C    -3.158198  -3.290247  5.127793
H    -1.271526  -2.585448  4.430938
H    -2.624092  -4.240336  5.217367
H    -3.988872  -3.424787  4.422606
H    -3.532558  -3.012475  6.121858
Ca    -5.572052  0.025661  5.095825
