37
Energy: -39740.4058221 eV PBE+vdW (tier 2 basis)
C    0.570503  0.713730  0.553119
C    0.183660  -0.237120  1.636866
O    1.114908  -0.965701  2.201666
H    1.310923  1.433217  0.931431
H    -0.284662  1.270938  0.157315
H    1.031963  0.160962  -0.278425
N    -1.072684  -0.327829  1.996688
C    -1.731026  -1.223675  2.955961
C    -3.138934  -1.424060  2.341227
O    -3.583598  -0.499291  1.630321
H    -1.789124  0.193293  1.460003
H    -1.166245  -2.163045  2.994684
C    -1.821829  -0.625365  4.396344
C    -3.039478  0.228128  4.804459
C    -3.178911  1.672279  4.261337
N    -4.177212  1.801780  3.198344
C    -5.115974  2.757621  3.105827
N    -6.137140  2.589550  2.253718
N    -5.059455  3.870498  3.849149
H    -0.891903  -0.067840  4.585718
H    -1.796005  -1.483216  5.082561
H    -2.974961  0.305080  5.898404
H    -3.976021  -0.318571  4.620990
H    -2.205367  2.059840  3.917818
H    -3.495730  2.312778  5.093324
H    -4.174024  1.068880  2.481367
H    -6.339140  1.686485  1.842568
H    -6.745729  3.359268  1.999117
H    -5.852287  4.500424  3.904583
H    -4.204821  4.174282  4.296892
N    -3.824535  -2.529308  2.630844
C    -3.402879  -3.679360  3.435420
H    -4.749605  -2.570557  2.204391
H    -4.202087  -4.424963  3.403830
H    -3.243958  -3.403919  4.485371
H    -2.498699  -4.146960  3.025091
Ca    2.945262  -1.777392  2.517136
