37
Energy: -39740.0828971 eV PBE+vdW (tier 2 basis)
C    0.205070  0.453998  0.167896
C    -0.055022  0.050086  1.574701
O    0.981293  -0.024498  2.382335
H    -0.666801  0.375037  -0.480091
H    1.009894  -0.172458  -0.240554
H    0.560394  1.495472  0.149975
N    -1.234196  -0.237172  2.088658
C    -2.655998  -0.269781  1.615857
C    -3.222927  -1.731168  1.591760
O    -4.281612  -1.913986  2.183485
H    -1.180270  -0.503815  3.074420
H    -3.189582  0.161268  2.473664
C    -3.026728  0.572050  0.378214
C    -4.485875  1.088525  0.371307
C    -5.592843  0.047794  0.133966
N    -6.872888  0.715658  -0.107701
C    -8.081387  0.294767  0.310947
N    -9.146585  1.087959  0.139538
N    -8.231370  -0.892134  0.908888
H    -2.823885  0.025298  -0.554028
H    -2.395948  1.471828  0.370276
H    -4.530422  1.837856  -0.434066
H    -4.691684  1.630638  1.306199
H    -5.695994  -0.592421  1.017493
H    -5.339654  -0.597096  -0.724279
H    -6.875183  1.484777  -0.771860
H    -10.090701  0.734253  0.246449
H    -9.049631  2.065032  -0.110181
H    -7.521031  -1.610767  0.857804
H    -9.100655  -1.136153  1.369969
N    -2.575714  -2.718807  0.926845
C    -1.418380  -2.672986  0.044122
H    -3.054592  -3.614328  1.008796
H    -1.404365  -3.592555  -0.549107
H    -0.468859  -2.627832  0.598544
H    -1.473940  -1.837901  -0.664374
Ca    2.744575  0.048887  3.365241
