37
Energy: -39740.1789543 eV PBE+vdW (tier 2 basis)
C    -0.030513  0.024821  -0.603969
C    0.100680  -0.577487  0.765707
O    0.990011  -1.354047  1.080343
H    0.978529  0.174303  -1.005289
H    -0.569657  0.978897  -0.622250
H    -0.532833  -0.682447  -1.281258
N    -0.832726  -0.198535  1.760694
C    -2.262565  -0.092096  1.497729
C    -2.814735  1.211972  2.096259
O    -4.081203  1.505664  2.022329
H    -0.611385  -0.689228  2.630005
H    -2.402949  0.014257  0.408936
C    -3.031496  -1.357518  1.961523
C    -2.499990  -2.665973  1.318711
C    -1.520429  -3.465221  2.202953
N    -1.076428  -4.699182  1.554682
C    0.200109  -5.110874  1.377598
N    0.427423  -6.412452  1.158148
N    1.221323  -4.253783  1.404636
H    -4.091665  -1.236324  1.701438
H    -2.990528  -1.425193  3.061017
H    -2.032412  -2.458277  0.344638
H    -3.363367  -3.309571  1.099781
H    -2.009520  -3.724981  3.155306
H    -0.627294  -2.884208  2.457490
H    -1.789207  -5.402598  1.383630
H    1.322633  -6.738986  0.811124
H    -0.261663  -7.122168  1.378387
H    1.107765  -3.241561  1.315608
H    2.173179  -4.603205  1.421653
N    -1.962111  2.029444  2.654842
C    -2.242391  3.329748  3.262006
H    -0.991716  1.690269  2.602195
H    -2.509866  4.065532  2.491359
H    -1.339205  3.677569  3.771365
H    -3.044608  3.240351  4.005245
Ca    -5.984304  2.191818  1.928000
