37
Energy: -39741.2761972 eV PBE+vdW (tier 2 basis)
C    0.977769  1.699435  0.353487
C    0.431464  0.706999  1.312648
O    1.199667  0.046679  2.081559
H    1.603504  1.134179  -0.359443
H    1.656900  2.405371  0.849136
H    0.214013  2.231099  -0.220398
N    -0.904985  0.448934  1.373721
C    -1.912778  1.498122  1.572286
C    -1.589404  2.154604  2.949777
O    -0.868156  1.500621  3.786897
H    -1.108569  -0.398642  1.906875
H    -1.800592  2.252569  0.781388
C    -3.321139  0.843103  1.454867
C    -4.500828  1.796058  1.184678
C    -5.728940  1.146044  0.518092
N    -6.587715  0.386293  1.433328
C    -7.910035  0.175225  1.243183
N    -8.636471  -0.360225  2.231211
N    -8.498220  0.514382  0.092701
H    -3.500818  0.225073  2.349451
H    -3.229189  0.150329  0.604477
H    -4.175965  2.568655  0.472751
H    -4.818897  2.320898  2.096401
H    -5.400348  0.511147  -0.322300
H    -6.341786  1.956358  0.101018
H    -6.151912  -0.176443  2.155949
H    -9.572623  -0.714290  2.063525
H    -8.313993  -0.359855  3.191639
H    -9.510065  0.527397  0.010434
H    -7.974273  0.629361  -0.766554
N    -2.003729  3.368085  3.264347
C    -2.698770  4.380276  2.462345
H    -1.746013  3.663625  4.208717
H    -2.193450  5.341396  2.611663
H    -3.740518  4.479410  2.789479
H    -2.667597  4.131175  1.399341
Ca    0.917551  0.328663  4.203181
