37
Energy: -39740.0707846 eV PBE+vdW (tier 2 basis)
C    -0.461958  0.474170  0.128820
C    -0.432927  0.092484  1.578057
O    0.606397  -0.094745  2.209607
H    -1.470454  0.582288  -0.286287
H    0.092669  -0.277182  -0.449032
H    0.079586  1.421082  -0.002851
N    -1.672071  -0.055085  2.212105
C    -1.683983  -0.222401  3.651354
C    -2.374189  -1.516946  4.067260
O    -3.251755  -2.084432  3.285971
H    -2.459127  0.412659  1.771060
H    -0.615831  -0.345060  3.903166
C    -2.257794  0.981969  4.457708
C    -1.773780  2.382436  4.034095
C    -0.272721  2.675320  3.923453
N    0.490493  2.422152  5.159075
C    1.804126  2.082037  5.180886
N    2.335310  1.331769  4.212324
N    2.557699  2.464508  6.219040
H    -2.023070  0.816886  5.518184
H    -3.356411  0.980886  4.390952
H    -2.231436  3.089171  4.743490
H    -2.204483  2.655447  3.059543
H    -0.159396  3.733632  3.641352
H    0.185425  2.092439  3.121006
H    0.178595  2.946404  5.973774
H    1.770074  0.867060  3.499337
H    3.341607  1.227997  4.139808
H    2.285880  3.235456  6.819285
H    3.489043  2.088051  6.362602
N    -2.119879  -2.085570  5.225082
C    -1.150674  -1.699369  6.257483
H    -2.676975  -2.912670  5.445534
H    -0.383040  -1.042436  5.841430
H    -0.675305  -2.610548  6.637244
H    -1.667017  -1.197414  7.085785
Ca    -4.388241  -3.083812  1.946954
