37
Energy: -39740.1854256 eV PBE+vdW (tier 2 basis)
C    -0.071847  -0.178955  1.462278
C    -0.473418  0.623907  2.646639
O    0.426352  1.380951  3.225931
H    -0.889136  -0.755108  1.019163
H    0.724080  -0.878566  1.759912
H    0.351328  0.487850  0.697295
N    -1.689426  0.608187  3.158452
C    -2.916907  -0.075093  2.645942
C    -2.712425  -1.606960  2.472937
O    -2.856067  -2.128383  1.363127
H    -1.824015  1.200941  3.978523
H    -3.638276  0.050505  3.466626
C    -3.440525  0.690542  1.406070
C    -4.600598  0.127092  0.552462
C    -5.817496  -0.529320  1.241136
N    -5.791212  -1.988058  1.075127
C    -6.858396  -2.771986  0.858615
N    -6.679978  -4.011200  0.377791
N    -8.097846  -2.335342  1.116299
H    -2.603914  0.850159  0.711871
H    -3.720041  1.688661  1.775470
H    -4.199025  -0.582345  -0.178875
H    -4.966703  0.980504  -0.032853
H    -6.734661  -0.154628  0.768632
H    -5.883197  -0.266275  2.309944
H    -4.864105  -2.412381  1.011789
H    -7.431661  -4.691253  0.381319
H    -5.820342  -4.277400  -0.087019
H    -8.910508  -2.847247  0.791260
H    -8.269851  -1.531286  1.705987
N    -2.419994  -2.322903  3.580184
C    -2.320276  -1.888840  4.970746
H    -2.303112  -3.318264  3.395720
H    -2.447578  -2.763424  5.616134
H    -3.114226  -1.176942  5.231278
H    -1.340407  -1.445444  5.198703
Ca    2.056282  2.462831  3.749838
