37
Energy: -39740.5760377 eV PBE+vdW (tier 2 basis)
C    -0.589271  0.884057  0.964396
C    -0.145954  0.413815  2.310225
O    1.050105  -0.106163  2.436643
H    0.102025  1.652326  0.588996
H    -1.600222  1.303962  0.976945
H    -0.577782  0.043620  0.254797
N    -0.959381  0.525818  3.330832
C    -0.822579  0.086310  4.725506
C    -2.286353  -0.230637  5.133923
O    -3.182516  0.430561  4.571687
H    -1.925824  0.862105  3.169184
H    -0.183285  -0.804149  4.748471
C    -0.219435  1.183640  5.662567
C    -1.189938  2.169941  6.338576
C    -1.809575  3.255424  5.438683
N    -2.785541  4.080534  6.147678
C    -4.123345  3.922022  6.127652
N    -4.897769  4.863051  6.682314
N    -4.683920  2.849162  5.558614
H    0.554113  1.726622  5.098256
H    0.312653  0.649693  6.461342
H    -0.627960  2.669738  7.141053
H    -1.991098  1.616230  6.850101
H    -2.311174  2.829013  4.561434
H    -1.028276  3.928889  5.058944
H    -2.425227  4.828091  6.732550
H    -4.532099  5.771441  6.943624
H    -5.888338  4.710974  6.834558
H    -4.152885  2.026320  5.269566
H    -5.685696  2.822841  5.406317
N    -2.515938  -1.135240  6.085746
C    -1.549157  -1.981485  6.791058
H    -3.502530  -1.272654  6.302548
H    -2.088536  -2.541869  7.559796
H    -0.781184  -1.383917  7.296724
H    -1.081541  -2.709127  6.114819
Ca    2.854812  -0.834209  1.869349
