37
Energy: -39742.0020617 eV PBE+vdW (tier 2 basis)
C    -1.702416  2.298216  1.454249
C    -1.907614  0.864014  1.800323
O    -2.629059  0.116780  1.066946
H    -1.095168  2.843635  2.183975
H    -2.675809  2.796031  1.347354
H    -1.213707  2.351875  0.469571
N    -1.308431  0.366142  2.896057
C    -1.270664  -1.055874  3.287702
C    -2.643816  -1.486500  3.865393
O    -3.569339  -1.780611  3.040750
H    -0.762219  1.022138  3.448437
H    -1.204590  -1.628114  2.349880
C    0.027698  -1.395005  4.064067
C    0.341218  -0.677294  5.395070
C    1.833952  -0.651261  5.775803
N    2.365864  -1.976959  6.115856
C    3.687413  -2.266204  6.207966
N    4.609769  -1.320560  6.007821
N    4.062791  -3.522606  6.465295
H    0.843432  -1.187917  3.354306
H    0.036675  -2.484593  4.206806
H    -0.214389  -1.118688  6.239780
H    0.036341  0.380781  5.370345
H    1.955742  0.041598  6.624373
H    2.417505  -0.257766  4.930513
H    1.753105  -2.597101  6.638302
H    5.592701  -1.563479  5.929865
H    4.399708  -0.335600  6.116781
H    3.416266  -4.299896  6.396272
H    5.017050  -3.745330  6.730005
N    -2.853330  -1.542573  5.165935
C    -4.125040  -1.928964  5.793335
H    -2.092568  -1.272027  5.781815
H    -4.820052  -1.079385  5.801826
H    -3.924798  -2.237626  6.823022
H    -4.571198  -2.761877  5.241621
Ca    -4.171022  -1.338401  1.025583
