37
Energy: -39741.5295469 eV PBE+vdW (tier 2 basis)
C    -1.091275  2.936670  -0.809377
C    -0.666313  2.133975  0.368642
O    0.268365  2.542034  1.127889
H    -1.480360  3.917359  -0.499682
H    -1.820345  2.432482  -1.449086
H    -0.186334  3.148660  -1.400763
N    -1.249346  0.937113  0.650017
C    -2.701418  0.777896  0.752218
C    -3.162493  1.621280  1.994221
O    -2.296580  2.238288  2.701917
H    -0.738952  0.413436  1.364900
H    -3.168538  1.222754  -0.139453
C    -3.076867  -0.717864  0.877586
C    -2.690944  -1.620883  -0.315222
C    -3.770201  -1.752354  -1.403866
N    -3.339893  -2.704395  -2.432142
C    -4.129784  -3.556873  -3.117881
N    -3.572132  -4.565907  -3.794262
N    -5.460729  -3.414206  -3.109269
H    -4.155763  -0.800201  1.074683
H    -2.592977  -1.109637  1.785565
H    -2.486846  -2.624910  0.080791
H    -1.747151  -1.268380  -0.760801
H    -3.999718  -0.775530  -1.862828
H    -4.695857  -2.139856  -0.954782
H    -2.358218  -2.698457  -2.692737
H    -4.092029  -5.080407  -4.497864
H    -2.622751  -4.872267  -3.613307
H    -6.060205  -4.143447  -3.482341
H    -5.897886  -2.519368  -2.927502
N    -4.446216  1.685717  2.279384
C    -5.024592  2.434255  3.406172
H    -5.097401  1.195390  1.670898
H    -6.081949  2.169580  3.487823
H    -4.937715  3.513680  3.230920
H    -4.512763  2.166547  4.336679
Ca    -0.346906  3.092303  3.122072
