37
Energy: -39739.8210253 eV PBE+vdW (tier 2 basis)
C    0.626201  0.245799  0.703496
C    0.218516  0.290285  2.148896
O    0.971215  0.651188  3.042070
H    -0.204797  0.173122  -0.006620
H    1.271598  -0.636185  0.566335
H    1.243006  1.119218  0.465580
N    -1.059785  -0.199463  2.513966
C    -2.334314  0.123767  1.870369
C    -2.739707  -0.969752  0.870453
O    -3.796245  -0.838371  0.120869
H    -1.123397  -0.243092  3.530962
H    -3.086250  0.020640  2.671543
C    -2.482744  1.568565  1.293053
C    -1.699013  2.682829  2.018876
C    -1.876713  2.837982  3.555768
N    -0.588754  2.835861  4.250406
C    -0.157881  3.726586  5.161684
N    -0.998741  4.582707  5.758051
N    1.145963  3.763661  5.460869
H    -3.555254  1.811906  1.295237
H    -2.159788  1.587871  0.242574
H    -1.985860  3.624925  1.533297
H    -0.628966  2.584599  1.800348
H    -2.521817  2.048393  3.974898
H    -2.381605  3.788196  3.765028
H    0.069468  2.088115  4.001425
H    -0.642858  5.349341  6.318994
H    -1.990898  4.396032  5.825497
H    1.833076  3.282889  4.891209
H    1.484523  4.233680  6.293299
N    -2.017048  -2.057999  0.830641
C    -2.245064  -3.243753  0.005883
H    -1.230560  -2.042127  1.492127
H    -1.420074  -3.943235  0.167194
H    -2.265602  -2.973861  -1.057896
H    -3.180159  -3.741427  0.296232
Ca    -5.434870  -0.856773  -1.069227
