37
Energy: -39742.1337954 eV PBE+vdW (tier 2 basis)
C    -0.806252  0.094241  0.139397
C    -0.491560  -0.103131  1.583606
O    0.315893  -1.019551  1.942827
H    -1.486383  0.929836  -0.055077
H    -1.256188  -0.831857  -0.248929
H    0.125605  0.248078  -0.422032
N    -1.078198  0.705907  2.478569
C    -1.087180  0.660944  3.962108
C    0.321069  0.849629  4.567113
O    1.209599  -0.058518  4.482675
H    -1.694647  1.408883  2.076733
H    -1.672460  1.549391  4.236691
C    -1.846258  -0.569906  4.518432
C    -2.345248  -0.380265  5.963647
C    -3.349964  -1.471595  6.371634
N    -3.879535  -1.214746  7.714385
C    -4.529093  -2.112837  8.485965
N    -4.817334  -1.800921  9.753376
N    -4.854864  -3.317237  8.002736
H    -1.222881  -1.471854  4.435639
H    -2.707363  -0.725344  3.852041
H    -2.843983  0.600426  6.041230
H    -1.505835  -0.371910  6.675170
H    -2.859831  -2.456444  6.378107
H    -4.170298  -1.503905  5.634323
H    -3.937740  -0.246411  8.015043
H    -4.383686  -1.014469  10.223326
H    -5.476181  -2.350002  10.295797
H    -5.212483  -4.041239  8.617786
H    -4.955205  -3.482154  7.008721
N    0.555660  1.983081  5.204908
C    1.815165  2.347445  5.863045
H    -0.181293  2.685247  5.212846
H    1.586652  2.945824  6.750727
H    2.436110  2.945615  5.183029
H    2.352434  1.442138  6.156187
Ca    1.970755  -1.533389  3.132219
