37
Energy: -39742.2065356 eV PBE+vdW (tier 2 basis)
C    0.675431  -1.228724  -0.096704
C    0.222939  -0.448385  1.088369
O    0.869121  0.576961  1.477587
H    0.658863  -0.566447  -0.975690
H    0.059446  -2.109990  -0.303195
H    1.720178  -1.538945  0.041253
N    -0.887155  -0.836180  1.736493
C    -1.572135  -0.101021  2.820800
C    -0.748906  -0.226607  4.128146
O    0.233367  0.564829  4.304700
H    -1.348348  -1.673819  1.386335
H    -1.529109  0.968809  2.563669
C    -3.049365  -0.542623  2.863939
C    -3.979556  0.337701  3.719329
C    -5.433006  -0.175041  3.661279
N    -6.352871  0.611229  4.490075
C    -7.534628  1.145938  4.108817
N    -8.475255  1.371461  5.030614
N    -7.772448  1.464125  2.831200
H    -3.125705  -1.599472  3.175775
H    -3.404650  -0.525169  1.821616
H    -3.943215  1.378486  3.364359
H    -3.644999  0.353453  4.768501
H    -5.478112  -1.223213  3.997639
H    -5.804963  -0.173297  2.629141
H    -6.215163  0.550712  5.495099
H    -8.465849  0.906723  5.931981
H    -9.265459  1.979836  4.840815
H    -8.709294  1.700806  2.521521
H    -7.024073  1.606286  2.165823
N    -1.057524  -1.153713  5.013739
C    -0.330481  -1.412458  6.262877
H    -1.837665  -1.770014  4.798322
H    0.431372  -2.186918  6.103688
H    -1.041101  -1.763566  7.017304
H    0.146024  -0.490844  6.606504
Ca    1.708293  1.597088  3.128279
