37
Energy: -39740.6241407 eV PBE+vdW (tier 2 basis)
C    -0.224276  -1.860801  2.152354
C    -0.030973  -0.386672  2.069270
O    1.099425  0.113425  2.509066
H    0.581663  -2.368793  1.603477
H    -1.183943  -2.201622  1.756922
H    -0.152786  -2.176560  3.203515
N    -0.930486  0.431580  1.579024
C    -2.223917  0.119010  0.936588
C    -2.462068  1.312972  -0.007127
O    -2.053050  2.432488  0.370908
H    -0.744201  1.447904  1.535343
H    -2.117577  -0.815506  0.373120
C    -3.387421  -0.042561  1.952736
C    -3.750197  1.136817  2.887539
C    -4.922353  2.050185  2.484771
N    -4.535505  3.178896  1.631879
C    -5.303147  4.255932  1.407905
N    -4.790269  5.304310  0.744821
N    -6.570162  4.300052  1.836098
H    -3.135862  -0.912635  2.575787
H    -4.272005  -0.352588  1.376963
H    -2.872868  1.752892  3.134894
H    -4.056717  0.684198  3.839468
H    -5.358968  2.457228  3.408946
H    -5.702527  1.445609  1.991095
H    -3.616661  3.145659  1.179495
H    -3.794326  5.387515  0.584730
H    -5.369177  6.086647  0.462663
H    -7.116995  5.151569  1.774560
H    -7.047245  3.479388  2.186273
N    -3.141817  1.112065  -1.137687
C    -3.610105  -0.156864  -1.708761
H    -3.266302  1.949889  -1.704214
H    -4.205906  0.072146  -2.596690
H    -4.254087  -0.703487  -1.010014
H    -2.770862  -0.791677  -2.021627
Ca    2.973010  0.468155  3.167650
