37
Energy: -39741.9539538 eV PBE+vdW (tier 2 basis)
C    -1.939411  1.502653  1.334250
C    -1.196199  0.710664  2.356812
O    -0.547705  -0.327724  2.012593
H    -1.243953  1.829291  0.548388
H    -2.456168  2.378011  1.741040
H    -2.673435  0.844555  0.846209
N    -1.234687  1.126900  3.633935
C    -0.697216  0.494425  4.863747
C    0.843224  0.380983  4.840593
O    1.433150  -0.439900  4.066800
H    -1.749609  1.990969  3.783139
H    -0.949941  1.213639  5.655365
C    -1.365591  -0.860923  5.208405
C    -2.881425  -0.777272  5.487585
C    -3.304570  -0.351374  6.910372
N    -3.276142  -1.423793  7.913025
C    -4.281269  -2.290537  8.174494
N    -4.116449  -3.217807  9.122302
N    -5.418942  -2.253815  7.471898
H    -0.834703  -1.287546  6.073654
H    -1.196965  -1.560072  4.378542
H    -3.326104  -1.758203  5.270588
H    -3.351904  -0.084952  4.773337
H    -4.308938  0.095724  6.878951
H    -2.663374  0.448519  7.304805
H    -2.543620  -1.381456  8.612629
H    -3.234799  -3.342727  9.606047
H    -4.888108  -3.796603  9.437392
H    -6.162092  -2.920444  7.654670
H    -5.671099  -1.450657  6.910351
N    1.521970  1.139504  5.682894
C    2.981084  1.144265  5.841293
H    1.001840  1.802335  6.253759
H    3.218178  1.317229  6.895969
H    3.421990  1.950676  5.240571
H    3.388070  0.180759  5.525112
Ca    1.283911  -1.372295  2.153485
