37
Energy: -39739.8425108 eV PBE+vdW (tier 2 basis)
C    0.054389  0.234998  0.634550
C    -0.652824  0.069251  1.950564
O    -0.098661  0.261560  3.022229
H    -0.599955  0.299100  -0.241519
H    0.715121  -0.637036  0.504205
H    0.707066  1.113984  0.675055
N    -1.984116  -0.427407  1.960042
C    -3.077429  0.161069  1.178158
C    -3.277664  -0.616039  -0.136402
O    -4.126418  -0.218761  -1.039870
H    -2.249288  -0.652666  2.919166
H    -4.004669  -0.075743  1.732987
C    -3.000232  1.705318  1.046436
C    -3.546432  2.504596  2.251722
C    -2.973969  2.282526  3.667264
N    -1.561630  2.617276  3.863298
C    -1.087720  3.650112  4.588153
N    -1.832675  4.736405  4.826342
N    0.160064  3.586167  5.065796
H    -3.582382  2.022025  0.169043
H    -1.962576  1.993511  0.830713
H    -4.630054  2.323112  2.335821
H    -3.443036  3.568572  1.991526
H    -3.107411  1.240893  3.993662
H    -3.578014  2.872220  4.370102
H    -0.899273  1.852941  3.699680
H    -2.683448  4.927617  4.314574
H    -1.536338  5.437087  5.496984
H    0.667929  2.709189  5.100700
H    0.626248  4.402878  5.445506
N    -2.622845  -1.738344  -0.276937
C    -2.715896  -2.686109  -1.385400
H    -2.013806  -1.947668  0.525628
H    -1.974310  -3.475268  -1.232394
H    -2.495107  -2.186769  -2.337842
H    -3.710725  -3.151603  -1.413391
Ca    -5.462086  0.107268  -2.529119
