37
Energy: -39739.9706634 eV PBE+vdW (tier 2 basis)
C    -0.081803  -0.315849  -0.989308
C    0.204962  -0.536371  0.469879
O    1.206059  -1.098518  0.883590
H    0.859770  -0.033194  -1.476408
H    -0.833074  0.456146  -1.189975
H    -0.397241  -1.258813  -1.460219
N    -0.725659  -0.028361  1.416300
C    -2.159809  -0.250076  1.272582
C    -2.908938  1.089490  1.333188
O    -4.206228  1.144391  1.226894
H    -0.375181  -0.220249  2.356648
H    -2.348531  -0.641066  0.260127
C    -2.729932  -1.270968  2.320095
C    -1.750767  -2.370987  2.781273
C    -1.191490  -3.328944  1.698009
N    0.214934  -3.662125  1.917192
C    0.737601  -4.860867  2.230666
N    -0.020153  -5.846286  2.731363
N    2.043324  -5.070289  2.029923
H    -3.638264  -1.723174  1.897755
H    -3.040198  -0.724819  3.223349
H    -2.271567  -2.949439  3.557123
H    -0.900161  -1.915588  3.307630
H    -1.260501  -2.880957  0.695100
H    -1.778553  -4.253251  1.639434
H    0.875067  -2.911206  1.693514
H    0.345322  -6.788433  2.817080
H    -0.909805  -5.662842  3.175874
H    2.599043  -4.443906  1.458396
H    2.526716  -5.851297  2.460133
N    -2.193625  2.171252  1.485589
C    -2.669725  3.550506  1.570241
H    -1.183168  1.971226  1.521850
H    -1.826135  4.194049  1.835510
H    -3.434028  3.645607  2.352131
H    -3.065677  3.882204  0.600743
Ca    -6.191969  1.480765  1.029942
