37
Energy: -39740.678213 eV PBE+vdW (tier 2 basis)
C    0.355865  -0.368531  1.167762
C    -0.152517  0.499684  2.264140
O    0.721750  1.057242  3.072555
H    1.046460  0.205792  0.534146
H    -0.441045  -0.775564  0.540352
H    0.927761  -1.203370  1.597508
N    -1.418213  0.744617  2.469831
C    -2.640223  0.337248  1.750093
C    -3.608896  1.494982  2.149443
O    -3.422743  2.038491  3.243151
H    -1.730592  1.380304  3.242483
H    -2.452666  0.316520  0.668031
C    -3.116951  -1.037060  2.297104
C    -4.514508  -1.554441  1.909295
C    -4.700720  -1.968654  0.435846
N    -5.738142  -2.989451  0.235159
C    -7.021721  -2.789842  -0.112970
N    -7.728644  -3.795557  -0.636163
N    -7.589293  -1.581942  0.038354
H    -3.092048  -0.965707  3.393979
H    -2.361264  -1.788424  2.017959
H    -5.283764  -0.828224  2.211754
H    -4.686133  -2.443689  2.532595
H    -3.771116  -2.407875  0.046795
H    -4.938467  -1.115061  -0.214483
H    -5.441439  -3.958298  0.303884
H    -8.742291  -3.766535  -0.674160
H    -7.280806  -4.622400  -1.016580
H    -8.503121  -1.394387  -0.360639
H    -7.273036  -0.949583  0.762282
N    -4.596611  1.804423  1.297102
C    -5.543927  2.893381  1.567532
H    -4.557868  1.430773  0.354632
H    -6.402449  2.790382  0.897653
H    -5.075568  3.872062  1.402193
H    -5.878767  2.835435  2.607826
Ca    2.153255  1.892286  4.203542
