37
Energy: -39742.1919036 eV PBE+vdW (tier 2 basis)
C    1.238215  -0.367553  0.408736
C    0.380605  -0.619747  1.603799
O    0.396916  -1.758348  2.171206
H    2.291323  -0.538819  0.673134
H    1.135029  0.640536  -0.005791
H    0.988171  -1.105909  -0.366865
N    -0.392681  0.382265  2.052132
C    -1.408514  0.402988  3.131699
C    -0.820405  0.101753  4.527336
O    -0.367347  -1.050500  4.826329
H    -0.296294  1.255607  1.539934
H    -1.738829  1.450707  3.152781
C    -2.660468  -0.462407  2.838780
C    -3.523856  0.101872  1.694623
C    -4.841522  -0.672122  1.515356
N    -5.643162  -0.089337  0.435541
C    -6.988172  -0.139816  0.331213
N    -7.602781  0.619570  -0.581304
N    -7.708703  -0.918351  1.146894
H    -3.253165  -0.496098  3.766168
H    -2.357533  -1.496892  2.621410
H    -2.955606  0.076060  0.751136
H    -3.764163  1.156821  1.898316
H    -5.431002  -0.615413  2.441815
H    -4.634097  -1.735625  1.309053
H    -5.146864  0.265544  -0.376423
H    -8.569859  0.454250  -0.840726
H    -7.136831  1.399833  -1.030431
H    -8.719995  -0.837116  1.178813
H    -7.306757  -1.728818  1.601441
N    -0.856684  1.077864  5.416261
C    -0.412551  0.984268  6.811325
H    -1.207087  1.984749  5.114251
H    -1.118356  1.535349  7.441894
H    0.584095  1.432520  6.916912
H    -0.383719  -0.063597  7.118239
Ca    0.585653  -2.771089  4.018012
