37
Energy: -39740.5675668 eV PBE+vdW (tier 2 basis)
C    -3.326547  2.058093  2.953191
C    -2.006703  1.568688  2.469676
O    -1.005834  2.398601  2.341887
H    -3.245025  3.071673  3.354328
H    -3.741618  1.397453  3.726318
H    -4.049465  2.072123  2.121265
N    -1.822827  0.299244  2.151976
C    -2.843674  -0.781117  2.151900
C    -3.272799  -1.274658  3.562230
O    -4.455102  -1.603510  3.706932
H    -0.893963  0.043137  1.809836
H    -3.760825  -0.363435  1.716141
C    -2.312345  -1.933187  1.267807
C    -3.112423  -3.250445  1.233606
C    -4.495410  -3.253055  0.556054
N    -5.586679  -2.949660  1.486177
C    -6.830721  -3.439082  1.394592
N    -7.651067  -3.346975  2.452302
N    -7.267148  -4.019735  0.268875
H    -1.298478  -2.190012  1.619179
H    -2.204113  -1.548745  0.241469
H    -3.194590  -3.689163  2.238545
H    -2.485230  -3.950495  0.665242
H    -4.664461  -4.260679  0.151266
H    -4.506182  -2.554964  -0.298414
H    -5.346027  -2.414252  2.331752
H    -8.641893  -3.542907  2.373061
H    -7.292690  -3.129879  3.374108
H    -8.144148  -4.527573  0.247082
H    -6.777821  -3.916488  -0.610507
N    -2.344534  -1.347343  4.528886
C    -2.625734  -1.892316  5.862351
H    -1.375231  -1.158277  4.296619
H    -1.945481  -1.434873  6.586926
H    -2.489799  -2.981410  5.876895
H    -3.659684  -1.659814  6.132517
Ca    0.248194  3.989629  2.202881
