37
Energy: -39742.155308 eV PBE+vdW (tier 2 basis)
C    0.228168  -0.066015  -0.348093
C    0.316439  0.496601  1.028086
O    0.656613  1.708379  1.215100
H    -0.523830  0.507344  -0.911117
H    -0.040312  -1.127159  -0.372288
H    1.184885  0.078629  -0.868457
N    0.019866  -0.293159  2.073710
C    -0.088747  0.132903  3.483615
C    1.330018  0.391852  4.055865
O    1.871874  1.523315  3.836119
H    -0.220701  -1.259294  1.860945
H    -0.572834  1.121927  3.484718
C    -0.991196  -0.856041  4.252994
C    -1.399347  -0.366163  5.655953
C    -2.180441  -1.378353  6.515036
N    -3.595122  -1.504995  6.147887
C    -4.587687  -1.843658  7.001545
N    -5.860054  -1.716234  6.609235
N    -4.311137  -2.281116  8.233615
H    -0.509728  -1.847690  4.318414
H    -1.882982  -1.006135  3.624418
H    -1.979408  0.565849  5.579373
H    -0.498958  -0.116004  6.236551
H    -2.146958  -1.023890  7.553733
H    -1.684722  -2.363762  6.484260
H    -3.845469  -1.497450  5.164896
H    -6.617032  -2.148410  7.129057
H    -6.121225  -1.136402  5.820282
H    -5.044205  -2.364769  8.931017
H    -3.414116  -2.686889  8.471246
N    1.953653  -0.555102  4.729005
C    3.308815  -0.454214  5.285780
H    1.473008  -1.443585  4.849409
H    3.549037  0.595001  5.474220
H    4.037585  -0.882667  4.585287
H    3.345931  -1.015089  6.224881
Ca    1.883320  3.040442  2.313701
