37
Energy: -39742.1730422 eV PBE+vdW (tier 2 basis)
C    -1.087191  0.157762  -0.375803
C    -1.561530  -0.423669  0.910830
O    -2.537134  -1.240319  0.934755
H    -0.263570  0.869519  -0.258688
H    -1.923914  0.651855  -0.888457
H    -0.760956  -0.664489  -1.030462
N    -0.935884  -0.081190  2.049100
C    -1.172394  -0.667651  3.383875
C    -2.523863  -0.150626  3.944167
O    -3.593552  -0.739137  3.581416
H    -0.176483  0.591888  1.967048
H    -1.329179  -1.747787  3.237274
C    0.079918  -0.467596  4.263535
C    0.053916  -1.268167  5.578344
C    1.258678  -1.052484  6.509298
N    2.487773  -1.687734  6.013796
C    3.724321  -1.443914  6.511564
N    3.898865  -0.578427  7.514538
N    4.781086  -2.050310  5.961646
H    0.238473  0.605117  4.472173
H    0.944779  -0.776422  3.656967
H    -0.052044  -2.343721  5.362075
H    -0.833946  -1.002370  6.170664
H    0.994555  -1.455668  7.500353
H    1.455041  0.023772  6.625485
H    2.378210  -2.587953  5.554445
H    4.831020  -0.287447  7.792679
H    3.145624  -0.330919  8.144762
H    4.717391  -2.539586  5.076691
H    5.689105  -2.044040  6.414887
N    -2.547235  0.887282  4.757188
C    -3.755843  1.498492  5.325034
H    -1.658690  1.325266  4.988486
H    -4.551276  0.751290  5.381038
H    -4.081101  2.341945  4.702016
H    -3.524955  1.866424  6.329576
Ca    -4.365015  -1.772985  1.862706
