37
Energy: -39740.7457655 eV PBE+vdW (tier 2 basis)
C    -4.791643  -0.622694  2.369035
C    -3.576259  0.131114  2.810597
O    -2.589943  0.287454  2.064672
H    -5.230828  -0.110937  1.501786
H    -5.555169  -0.736561  3.145857
H    -4.479730  -1.614638  2.016011
N    -3.591347  0.666260  4.073381
C    -2.434976  1.248336  4.768553
C    -1.971899  2.564995  4.114112
O    -1.876378  3.656575  4.836426
H    -4.436426  0.543052  4.621334
H    -2.797914  1.520274  5.768300
C    -1.234777  0.269332  4.926563
C    -1.596754  -1.028203  5.666762
C    -0.411046  -2.005380  5.704567
N    -0.771183  -3.236541  6.415258
C    -0.178683  -4.437032  6.259914
N    0.928288  -4.562145  5.518804
N    -0.721591  -5.517532  6.832964
H    -0.437787  0.803366  5.467317
H    -0.836956  0.031457  3.930564
H    -2.443098  -1.522872  5.169022
H    -1.915826  -0.795859  6.696138
H    0.459635  -1.528077  6.184849
H    -0.126819  -2.276134  4.677253
H    -1.414035  -3.152155  7.196897
H    1.285039  -5.478556  5.269385
H    1.529750  -3.772105  5.322235
H    -1.670485  -5.513738  7.188459
H    -0.204605  -6.386132  6.917249
N    -1.669883  2.554359  2.849994
C    -1.220967  3.699827  2.067677
H    -1.890887  1.598378  2.375986
H    -0.986723  3.358057  1.055412
H    -0.311301  4.137261  2.501950
H    -2.012708  4.459855  1.994539
Ca    -1.784943  5.514886  5.594528
