37
Energy: -39741.989954 eV PBE+vdW (tier 2 basis)
C    -1.177765  -0.648825  -0.408251
C    -1.279214  -0.592509  1.078612
O    -0.759563  -1.510460  1.789778
H    -1.634731  0.206700  -0.916076
H    -1.662777  -1.573266  -0.756063
H    -0.121265  -0.721142  -0.701338
N    -1.927498  0.444681  1.632132
C    -2.321650  0.697568  3.040114
C    -1.098198  0.828945  3.969464
O    -0.409456  -0.194968  4.295406
H    -2.293161  1.120885  0.965674
H    -2.801109  1.682394  2.995197
C    -3.381437  -0.303551  3.564139
C    -4.199312  0.238934  4.751942
C    -5.322183  -0.733006  5.165995
N    -6.099596  -0.259240  6.315816
C    -7.435939  -0.067856  6.374109
N    -8.048322  -0.103567  7.561272
N    -8.152611  0.164138  5.268048
H    -2.905750  -1.259914  3.825710
H    -4.053505  -0.514070  2.719191
H    -4.644091  1.210348  4.485644
H    -3.545461  0.421014  5.619866
H    -4.897719  -1.715115  5.426089
H    -6.011057  -0.913069  4.330856
H    -5.625747  -0.265017  7.214569
H    -8.986488  0.264702  7.682820
H    -7.622068  -0.537984  8.372503
H    -9.166699  0.136241  5.292084
H    -7.727599  0.502389  4.414921
N    -0.775413  2.014740  4.456591
C    -1.391307  3.328526  4.209107
H    0.029091  2.005317  5.086633
H    -1.420089  3.557247  3.137692
H    -0.769678  4.083804  4.698247
H    -2.397801  3.382060  4.641229
Ca    0.403166  -1.995072  3.475279
