37
Energy: -39741.7935863 eV PBE+vdW (tier 2 basis)
C    -0.133553  0.284006  -0.096541
C    -0.246793  -0.588556  1.109718
O    0.789014  -1.143296  1.593030
H    0.341479  -0.289190  -0.905505
H    0.540308  1.123971  0.125270
H    -1.090950  0.682603  -0.447786
N    -1.465250  -0.761324  1.652944
C    -1.893663  -1.610812  2.789197
C    -1.248619  -1.181764  4.122464
O    0.004891  -1.326001  4.315523
H    -2.206090  -0.224240  1.210081
H    -2.969055  -1.416245  2.875316
C    -1.700664  -3.136103  2.565420
C    -2.818076  -3.884818  1.809630
C    -2.924297  -3.640244  0.289746
N    -3.591809  -4.738132  -0.420960
C    -4.836426  -4.750935  -0.939406
N    -5.138195  -5.627858  -1.899716
N    -5.765479  -3.880686  -0.514538
H    -1.628227  -3.603079  3.558565
H    -0.730893  -3.312385  2.077185
H    -3.787999  -3.699326  2.297720
H    -2.619630  -4.955914  1.960943
H    -1.918792  -3.552535  -0.148364
H    -3.453313  -2.708461  0.047734
H    -3.021595  -5.553199  -0.628274
H    -6.101948  -5.847733  -2.131652
H    -4.420975  -6.107472  -2.433674
H    -6.646163  -3.790811  -1.011417
H    -5.741517  -3.510360  0.426726
N    -2.004334  -0.712005  5.098716
C    -3.451570  -0.453356  5.132886
H    -1.494837  -0.521932  5.964551
H    -3.660307  0.151785  6.020014
H    -4.016542  -1.390262  5.215728
H    -3.773497  0.117637  4.255221
Ca    1.902364  -1.462968  3.375506
