37
Energy: -39740.5432594 eV PBE+vdW (tier 2 basis)
C    0.467174  -1.065441  0.938017
C    -0.021065  0.190159  1.583266
O    0.317292  1.342632  1.061792
H    1.567111  -1.078657  0.934928
H    0.122915  -1.107631  -0.105596
H    0.118954  -1.968586  1.450117
N    -0.770965  0.108803  2.655935
C    -1.386877  1.134246  3.523272
C    -1.217206  0.526911  4.943077
O    -1.689540  -0.603640  5.122379
H    -0.982708  -0.834784  3.005071
H    -0.856131  2.085851  3.391216
C    -2.887928  1.250517  3.154311
C    -3.784713  2.104129  4.069621
C    -4.118846  1.555958  5.472738
N    -4.606853  0.174639  5.506260
C    -5.861486  -0.223509  5.783041
N    -6.078244  -1.487506  6.169510
N    -6.897752  0.615892  5.668422
H    -3.293612  0.229717  3.093993
H    -2.946009  1.661457  2.136334
H    -4.722438  2.257708  3.515677
H    -3.358188  3.109689  4.208644
H    -4.866170  2.208965  5.941591
H    -3.244267  1.600117  6.133619
H    -3.882395  -0.543293  5.492877
H    -7.013927  -1.877173  6.200544
H    -5.327424  -2.069735  6.521417
H    -7.806584  0.380313  6.051539
H    -6.824052  1.496165  5.176020
N    -0.573863  1.261501  5.860211
C    -0.349418  0.818847  7.239028
H    -0.236094  2.182877  5.600671
H    0.693850  1.003064  7.517448
H    -0.559754  -0.252124  7.301459
H    -1.003246  1.363644  7.932524
Ca    1.232678  2.587542  -0.250945
