37
Energy: -39740.3465522 eV PBE+vdW (tier 2 basis)
C    -0.262419  -0.107551  -0.755243
C    -0.007418  -0.174578  0.707018
O    1.237919  -0.266664  1.113906
H    -1.285393  0.178285  -1.011361
H    -0.058569  -1.095545  -1.197637
H    0.436154  0.605621  -1.211585
N    -0.945502  -0.172466  1.633147
C    -2.440130  -0.085358  1.583345
C    -3.084959  -0.699333  0.308941
O    -3.599301  0.029120  -0.549583
H    -0.584834  -0.221612  2.588403
H    -2.746410  -0.721028  2.427783
C    -2.957250  1.331742  1.890444
C    -2.557303  2.478566  0.933424
C    -3.720767  3.412094  0.577027
N    -4.699751  2.707706  -0.253643
C    -5.851957  3.228325  -0.699449
N    -6.662245  2.481250  -1.462910
N    -6.205480  4.480454  -0.385667
H    -2.663522  1.585286  2.919013
H    -4.051425  1.224152  1.927309
H    -2.134873  2.095521  -0.004864
H    -1.779472  3.098150  1.397818
H    -3.321714  4.284727  0.035989
H    -4.200978  3.776628  1.500614
H    -4.449786  1.753899  -0.533080
H    -7.522416  2.852936  -1.847815
H    -6.413138  1.536146  -1.725201
H    -5.610011  5.081934  0.167656
H    -7.081194  4.877955  -0.705265
N    -3.080853  -2.042110  0.206980
C    -2.683257  -3.037671  1.203903
H    -3.577121  -2.385563  -0.614791
H    -3.341104  -3.022271  2.084044
H    -1.640934  -2.905248  1.520911
H    -2.763470  -4.027822  0.745847
Ca    3.240140  -0.433298  1.362541
