37
Energy: -39740.5499806 eV PBE+vdW (tier 2 basis)
C    1.130926  0.718323  1.258224
C    0.535166  -0.074844  2.366315
O    1.371835  -0.571717  3.247505
H    0.402163  1.083544  0.537728
H    1.865771  0.107460  0.721077
H    1.652213  1.581080  1.703388
N    -0.759877  -0.169667  2.658085
C    -1.883303  -0.260121  1.705174
C    -1.511237  -1.472669  0.777576
O    -0.313915  -1.646173  0.528214
H    -0.938989  -0.646430  3.541550
H    -2.752505  -0.484904  2.335815
C    -2.182755  1.039827  0.913324
C    -3.615615  1.134087  0.359065
C    -3.842647  2.480984  -0.354315
N    -5.123001  2.555711  -1.066499
C    -6.153604  3.383326  -0.807011
N    -7.047364  3.638944  -1.768825
N    -6.300741  3.950030  0.397259
H    -1.482112  1.136672  0.073257
H    -1.994532  1.885427  1.592123
H    -4.354747  1.010765  1.165603
H    -3.794839  0.325438  -0.363506
H    -3.047296  2.650893  -1.095543
H    -3.785735  3.321922  0.349235
H    -5.182302  2.045879  -1.943164
H    -7.947436  4.055999  -1.556279
H    -6.844136  3.466002  -2.746982
H    -6.961574  4.706188  0.538444
H    -5.840241  3.583810  1.219413
N    -2.483555  -2.253009  0.278176
C    -3.908448  -2.331191  0.590681
H    -2.124726  -2.971216  -0.351294
H    -4.168163  -1.679924  1.429562
H    -4.162321  -3.360599  0.871279
H    -4.518160  -2.051019  -0.277850
Ca    2.985860  -1.385835  4.123532
