37
Energy: -39740.23146 eV PBE+vdW (tier 2 basis)
C    -1.211906  0.524140  -1.140155
C    -0.731461  0.812870  0.236667
O    0.359988  1.517591  0.404587
H    -1.934560  1.301896  -1.440059
H    -1.745477  -0.430724  -1.213603
H    -0.379995  0.536383  -1.851127
N    -1.390404  0.406704  1.306502
C    -2.654615  -0.368656  1.322094
C    -3.867474  0.396473  0.693516
O    -4.452586  -0.178240  -0.217981
H    -1.006653  0.685036  2.211626
H    -2.519659  -1.200847  0.621172
C    -2.920853  -0.934198  2.735265
C    -4.371405  -1.397650  2.980306
C    -4.900592  -2.619547  2.215031
N    -4.423372  -3.883601  2.797723
C    -4.728582  -5.103238  2.306323
N    -4.285875  -6.199880  2.933345
N    -5.436020  -5.220948  1.177830
H    -2.705901  -0.157543  3.485371
H    -2.209360  -1.752540  2.921828
H    -5.060373  -0.570750  2.759232
H    -4.490446  -1.574503  4.060407
H    -4.611868  -2.581553  1.154567
H    -6.001294  -2.581794  2.259022
H    -4.167286  -3.857279  3.780709
H    -4.625739  -7.123134  2.687826
H    -3.636472  -6.145923  3.708672
H    -5.590779  -6.127573  0.750362
H    -5.966068  -4.445610  0.799726
N    -4.214586  1.627239  1.145088
C    -3.803373  2.325593  2.359549
H    -5.037906  1.994055  0.668531
H    -4.159467  3.358639  2.297106
H    -2.711421  2.368746  2.457720
H    -4.229758  1.879593  3.269237
Ca    2.061385  2.582755  0.159223
