37
Energy: -39742.01507 eV PBE+vdW (tier 2 basis)
C    -1.263712  -3.192135  -0.040342
C    -0.917201  -2.195967  1.009691
O    0.234266  -1.654409  1.042647
H    -1.172227  -2.709414  -1.025106
H    -2.272822  -3.604077  0.062740
H    -0.532312  -4.012094  -0.024927
N    -1.840541  -1.862162  1.927096
C    -1.687886  -0.789556  2.928282
C    -0.635348  -1.209845  3.988613
O    0.563342  -0.806171  3.801171
H    -2.750417  -2.313086  1.853346
H    -1.201407  0.055173  2.417347
C    -3.078629  -0.313166  3.396386
C    -3.068916  0.887645  4.359298
C    -4.506572  1.312962  4.718574
N    -4.551108  2.432058  5.666307
C    -5.312938  3.545397  5.574379
N    -5.726402  4.008864  4.389514
N    -5.644242  4.201514  6.690468
H    -3.643571  -1.145187  3.839141
H    -3.619265  -0.033276  2.478314
H    -2.536829  1.738285  3.907619
H    -2.526852  0.634807  5.284882
H    -5.053227  0.463110  5.158019
H    -5.062134  1.595300  3.815982
H    -4.169541  2.251726  6.590801
H    -6.429508  4.738385  4.334605
H    -5.274533  3.747081  3.523324
H    -6.000458  5.151599  6.658341
H    -5.603632  3.762403  7.603683
N    -0.901083  -1.977029  5.032022
C    -2.140148  -2.655880  5.429898
H    -0.091011  -2.144947  5.632084
H    -1.867082  -3.489816  6.083770
H    -2.662949  -3.066671  4.561258
H    -2.799840  -1.982429  5.990687
Ca    1.888734  -0.864991  2.106089
