37
Energy: -39742.2500372 eV PBE+vdW (tier 2 basis)
C    -1.320139  -0.049434  0.429827
C    -0.742232  0.033503  1.801217
O    0.219888  0.826780  2.051765
H    -1.700811  0.944445  0.150924
H    -2.128100  -0.782455  0.336880
H    -0.527495  -0.292916  -0.290952
N    -1.261362  -0.737916  2.770842
C    -0.907284  -0.707447  4.203423
C    0.475477  -1.380871  4.417683
O    1.521209  -0.712362  4.127283
H    -1.994184  -1.386253  2.490969
H    -0.743861  0.348227  4.471305
C    -2.059164  -1.267660  5.061268
C    -3.326137  -0.388241  5.094428
C    -4.432454  -1.031727  5.954914
N    -5.691967  -0.280481  5.927345
C    -6.396724  0.167478  6.989768
N    -7.712005  0.365739  6.862845
N    -5.799199  0.425469  8.159115
H    -1.679152  -1.382946  6.087598
H    -2.327077  -2.280366  4.710536
H    -3.713863  -0.232346  4.075723
H    -3.081212  0.609196  5.489083
H    -4.109718  -1.133689  6.998745
H    -4.639674  -2.053520  5.599408
H    -6.202720  -0.293570  5.048869
H    -8.230379  0.918562  7.538246
H    -8.250523  -0.066406  6.119923
H    -6.347936  0.592090  8.996172
H    -4.804243  0.594187  8.225916
N    0.546709  -2.611495  4.883245
C    1.781307  -3.367569  5.126946
H    -0.326653  -3.090486  5.091344
H    2.629463  -2.680681  5.161822
H    1.930638  -4.104762  4.327442
H    1.690526  -3.892234  6.084061
Ca    2.161053  0.925157  2.908071
