37
Energy: -39742.1267379 eV PBE+vdW (tier 2 basis)
C    -0.337825  -2.138235  1.177429
C    -1.695823  -1.738528  1.639641
O    -2.728944  -2.367829  1.244740
H    -0.308305  -2.146016  0.079283
H    -0.150311  -3.172799  1.502979
H    0.462155  -1.494547  1.557365
N    -1.816646  -0.707194  2.491985
C    -3.057869  -0.284325  3.171308
C    -3.989381  0.428290  2.157935
O    -4.738121  -0.287578  1.417655
H    -0.955936  -0.235007  2.761366
H    -3.601048  -1.202501  3.444391
C    -2.702755  0.463359  4.474827
C    -3.915189  0.737818  5.387768
C    -3.595946  0.938206  6.878343
N    -2.924125  2.212215  7.172429
C    -2.308114  2.488333  8.348672
N    -1.699460  3.668223  8.505305
N    -2.271365  1.583644  9.330696
H    -2.144174  1.389638  4.258070
H    -1.993331  -0.187363  5.009344
H    -4.593697  -0.128115  5.354892
H    -4.511782  1.586790  5.018762
H    -2.942992  0.123439  7.223731
H    -4.543921  0.870309  7.436568
H    -3.256057  3.027096  6.663550
H    -1.391259  3.986890  9.418270
H    -1.515495  4.284223  7.722284
H    -1.689217  1.729267  10.149776
H    -2.938904  0.823749  9.384294
N    -3.976762  1.743984  2.064882
C    -4.774630  2.539902  1.123645
H    -3.332342  2.250376  2.666951
H    -4.180467  2.778190  0.231718
H    -5.072218  3.472512  1.613228
H    -5.665588  1.977034  0.835071
Ca    -4.703154  -2.231448  0.493846
