37
Energy: -39741.4469112 eV PBE+vdW (tier 2 basis)
C    -0.232680  0.770905  -0.707667
C    -0.105045  0.732615  0.771998
O    1.031152  0.838650  1.332504
H    0.200360  1.691954  -1.121633
H    -1.255295  0.633808  -1.069003
H    0.387384  -0.051523  -1.102382
N    -1.197143  0.551215  1.567522
C    -2.384575  1.406451  1.478671
C    -1.949717  2.833178  1.944803
O    -0.783350  2.995631  2.453005
H    -0.934415  0.350924  2.534565
H    -2.676401  1.486607  0.420123
C    -3.562749  0.800249  2.278043
C    -4.113450  -0.476059  1.611919
C    -5.469964  -0.982365  2.126254
N    -5.388177  -1.658374  3.429358
C    -6.470815  -2.021631  4.158144
N    -6.294140  -2.623284  5.339325
N    -7.705980  -1.750597  3.727105
H    -4.361511  1.550726  2.346766
H    -3.240206  0.612735  3.314507
H    -3.371909  -1.289059  1.653143
H    -4.264038  -0.277239  0.539794
H    -5.874372  -1.672819  1.367945
H    -6.171448  -0.140225  2.221891
H    -4.548969  -2.204754  3.602727
H    -5.388334  -2.659473  5.791144
H    -7.065286  -3.067378  5.826872
H    -7.903304  -1.563375  2.751536
H    -8.510527  -1.895866  4.328921
N    -2.746343  3.872705  1.790202
C    -4.065983  3.960412  1.155048
H    -2.370954  4.752416  2.151108
H    -4.856026  3.993688  1.916123
H    -4.234168  3.120261  0.475668
H    -4.104126  4.887951  0.573081
Ca    1.335392  2.571093  2.589605
