37
Energy: -39740.783767 eV PBE+vdW (tier 2 basis)
C    -0.094063  -0.540259  0.115113
C    -0.018728  0.158442  1.424581
O    1.134101  0.214412  2.039662
H    0.330228  0.116071  -0.660462
H    -1.116680  -0.792653  -0.178603
H    0.500886  -1.461159  0.151926
N    -1.067575  0.702230  2.006892
C    -2.361894  1.013968  1.363639
C    -2.040155  1.885083  0.098226
O    -1.006039  2.547141  0.074983
H    -0.880681  1.187780  2.884965
H    -2.844112  0.065927  1.079099
C    -3.236000  1.752645  2.404080
C    -4.681083  2.028384  1.956618
C    -5.509932  2.660430  3.086043
N    -6.865842  2.969607  2.620729
C    -7.950116  3.128078  3.404466
N    -9.160873  3.218758  2.841986
N    -7.829697  3.168963  4.736588
H    -2.740519  2.704214  2.656784
H    -3.256278  1.136887  3.317923
H    -5.167814  1.092977  1.639437
H    -4.676959  2.709377  1.091953
H    -5.011824  3.575581  3.448298
H    -5.590948  1.958454  3.928743
H    -6.973752  3.237366  1.647142
H    -9.324573  2.943865  1.880531
H    -9.963863  3.546412  3.367888
H    -8.649266  3.127637  5.333027
H    -6.953976  3.409218  5.183799
N    -2.960637  1.831488  -0.884213
C    -2.860129  2.610985  -2.120083
H    -3.732599  1.177785  -0.800238
H    -3.789704  3.165237  -2.293020
H    -2.673531  1.951802  -2.976986
H    -2.030769  3.315608  -2.017484
Ca    3.095123  0.291402  2.489934
