37
Energy: -39740.726486 eV PBE+vdW (tier 2 basis)
C    -1.128326  3.103709  0.345091
C    -1.259759  2.272362  1.572971
O    -0.555741  2.612310  2.631003
H    -0.067422  3.190081  0.072755
H    -1.494721  4.120762  0.548802
H    -1.678458  2.698849  -0.508055
N    -2.038611  1.228695  1.663175
C    -3.052448  0.689633  0.737634
C    -4.070058  0.077006  1.756227
O    -3.584031  -0.346594  2.816709
H    -2.137185  0.686669  2.556048
H    -3.482239  1.506330  0.145861
C    -2.439160  -0.404422  -0.177557
C    -3.434524  -0.992651  -1.191302
C    -2.843585  -2.000844  -2.186595
N    -2.597631  -3.314870  -1.574123
C    -1.998043  -4.347072  -2.203796
N    -1.807702  -5.499601  -1.549975
N    -1.562605  -4.215590  -3.460889
H    -2.020035  -1.190865  0.467893
H    -1.593006  0.046471  -0.719032
H    -3.863379  -0.182541  -1.798626
H    -4.286882  -1.461729  -0.675800
H    -1.893746  -1.622668  -2.594177
H    -3.554537  -2.104768  -3.022480
H    -3.168972  -3.558087  -0.770312
H    -1.525735  -6.343144  -2.037156
H    -1.960884  -5.578895  -0.552050
H    -1.007300  -4.942429  -3.899570
H    -1.890897  -3.471666  -4.064046
N    -5.375259  0.010071  1.464644
C    -6.132884  0.571815  0.347842
H    -5.922656  -0.431484  2.204384
H    -6.572022  -0.224041  -0.267063
H    -5.498331  1.196249  -0.286771
H    -6.945215  1.197429  0.736499
Ca    0.451130  3.346788  4.201584
