37
Energy: -39742.0578215 eV PBE+vdW (tier 2 basis)
C    0.976157  -1.452223  2.104477
C    0.480261  -0.046535  2.042398
O    1.301469  0.913493  1.898923
H    1.677656  -1.539611  2.947301
H    1.551946  -1.677321  1.195873
H    0.182468  -2.197680  2.218811
N    -0.843374  0.165091  2.141499
C    -1.605112  1.434935  2.224226
C    -1.467609  2.294850  0.947820
O    -0.368090  2.864291  0.651633
H    -1.404013  -0.680325  2.208195
H    -2.652557  1.107798  2.273443
C    -1.289981  2.264716  3.494842
C    -1.720748  1.627850  4.834993
C    -3.199281  1.860986  5.205696
N    -3.580105  1.245133  6.480473
C    -3.916657  1.881421  7.623044
N    -4.634224  1.232987  8.544625
N    -3.545608  3.148916  7.842482
H    -1.766322  3.250404  3.374748
H    -0.209151  2.454171  3.530494
H    -1.087840  2.049940  5.628275
H    -1.503329  0.548458  4.834837
H    -3.873580  1.453577  4.436725
H    -3.422350  2.934909  5.263310
H    -3.735635  0.241530  6.478012
H    -5.165446  0.398165  8.321989
H    -4.704519  1.576694  9.497229
H    -3.941945  3.678148  8.612380
H    -2.759255  3.566236  7.362301
N    -2.547101  2.454706  0.203638
C    -2.636386  3.275365  -1.009687
H    -3.390932  1.953845  0.473576
H    -2.551477  2.638281  -1.899796
H    -1.837496  4.020424  -1.008291
H    -3.609622  3.777140  -1.022944
Ca    1.747789  2.684235  0.831449
