37
Energy: -39740.4966579 eV PBE+vdW (tier 2 basis)
C    0.126519  -0.007496  -0.138511
C    -0.032468  0.546904  1.238159
O    0.701163  1.571511  1.596943
H    -0.081573  0.773464  -0.883983
H    -0.537950  -0.856359  -0.329303
H    1.162948  -0.345364  -0.285373
N    -0.893496  -0.000937  2.059961
C    -1.182282  0.284060  3.470892
C    -1.549115  -1.109603  4.046349
O    -2.072579  -1.928429  3.265731
H    -1.381256  -0.867297  1.771917
H    -0.270224  0.684660  3.931958
C    -2.346163  1.304149  3.671147
C    -3.802379  0.803545  3.731961
C    -4.492940  0.314134  2.433286
N    -4.674004  -1.137980  2.388475
C    -5.800899  -1.788334  2.056322
N    -5.911489  -3.093087  2.344116
N    -6.819133  -1.163737  1.450179
H    -2.246817  2.086588  2.903122
H    -2.146540  1.803177  4.630192
H    -4.382218  1.658307  4.105496
H    -3.912280  0.034270  4.509906
H    -3.943296  0.653516  1.539808
H    -5.486208  0.775748  2.383202
H    -3.866423  -1.699074  2.676981
H    -6.639675  -3.665534  1.932132
H    -5.278528  -3.547098  2.990937
H    -7.725889  -1.609583  1.363901
H    -6.699692  -0.279356  0.973987
N    -1.318427  -1.316542  5.341050
C    -1.652646  -2.556060  6.049830
H    -0.881529  -0.575518  5.882011
H    -1.860417  -3.337892  5.315048
H    -2.529252  -2.406152  6.692485
H    -0.802237  -2.857141  6.670804
Ca    2.141008  2.994763  1.511590
