37
Energy: -39739.5932408 eV PBE+vdW (tier 2 basis)
C    0.221845  -0.109005  0.235320
C    0.136706  0.084832  1.726943
O    1.097211  0.438730  2.405020
H    -0.595801  0.387570  -0.305657
H    0.193006  -1.181824  -0.005605
H    1.173809  0.295978  -0.119087
N    -1.060413  -0.208477  2.378850
C    -2.412604  0.074268  1.903914
C    -2.831207  -0.851191  0.752075
O    -3.404347  -0.374338  -0.322282
H    -0.953763  -0.156588  3.391301
H    -3.079457  -0.245297  2.727259
C    -2.661309  1.582183  1.686663
C    -2.558829  2.408979  3.005772
C    -1.416961  3.435197  3.153445
N    -0.125011  2.872998  3.542827
C    0.769248  3.432516  4.383185
N    0.568056  4.635176  4.932918
N    1.870271  2.735429  4.689443
H    -3.674744  1.716667  1.280414
H    -1.961802  1.967826  0.929220
H    -2.553770  1.745668  3.883871
H    -3.484394  2.991405  3.097949
H    -1.731939  4.128335  3.944145
H    -1.315381  4.028827  2.229427
H    0.239396  2.058175  3.044577
H    1.189555  4.988384  5.652389
H    -0.119681  5.283836  4.573576
H    2.003433  1.793976  4.334759
H    2.650772  3.164332  5.173407
N    -2.665384  -2.151769  0.843019
C    -2.155465  -2.952246  1.969009
H    -2.957394  -2.690721  0.026941
H    -2.521957  -3.974819  1.836609
H    -2.526526  -2.562564  2.921930
H    -1.059224  -2.956423  1.972945
Ca    -4.493987  0.252326  -1.913930
