37
Energy: -39741.9703023 eV PBE+vdW (tier 2 basis)
C    -1.876877  0.612732  1.227106
C    -1.049491  0.194341  2.397037
O    -0.348658  -0.866706  2.335257
H    -2.560368  -0.207881  0.965805
H    -1.224801  0.764082  0.355088
H    -2.457477  1.524994  1.398667
N    -1.067630  0.968292  3.493016
C    -0.452453  0.773679  4.827646
C    1.087801  0.677307  4.796905
O    1.694295  -0.288966  4.230410
H    -1.643108  1.803248  3.411699
H    -0.686040  1.711910  5.349746
C    -1.099298  -0.363492  5.664711
C    -2.532133  0.001225  6.113816
C    -3.077311  -0.742081  7.349279
N    -3.713927  -2.030597  7.053733
C    -4.696694  -2.587414  7.795928
N    -5.362726  -3.645176  7.316738
N    -5.019095  -2.084088  8.990602
H    -0.464034  -0.505651  6.552833
H    -1.068748  -1.307190  5.100888
H    -3.247512  -0.091535  5.283607
H    -2.538667  1.065023  6.396914
H    -3.848204  -0.104354  7.802060
H    -2.274316  -0.869620  8.094763
H    -3.313731  -2.619669  6.332010
H    -5.377068  -3.862909  6.327469
H    -5.961127  -4.204448  7.915908
H    -5.868649  -2.373855  9.464972
H    -4.380379  -1.504457  9.521605
N    1.753797  1.620121  5.439328
C    3.210953  1.682620  5.598375
H    1.222360  2.385665  5.849146
H    3.639334  2.370033  4.857110
H    3.638237  0.685243  5.471667
H    3.437546  2.057309  6.602060
Ca    1.590199  -1.663736  2.616096
