37
Energy: -39742.0738748 eV PBE+vdW (tier 2 basis)
C    -0.939308  -2.138035  -0.775509
C    -0.640727  -1.608657  0.582933
O    0.554640  -1.351041  0.935950
H    -0.357751  -3.054072  -0.949271
H    -0.596999  -1.403737  -1.520368
H    -2.001429  -2.345632  -0.941029
N    -1.653029  -1.394045  1.440275
C    -1.522497  -0.736452  2.754054
C    -0.762324  -1.669525  3.733952
O    0.499188  -1.488421  3.838011
H    -2.592404  -1.604259  1.108705
H    -0.824384  0.103805  2.620427
C    -2.884076  -0.145356  3.175065
C    -2.867369  0.665876  4.482802
C    -4.233460  1.331225  4.729465
N    -4.229586  2.120638  5.963488
C    -5.071254  3.139789  6.242709
N    -6.104018  3.413276  5.438336
N    -4.846982  3.896848  7.321622
H    -3.648923  -0.932273  3.229160
H    -3.183662  0.517491  2.347980
H    -2.092415  1.445829  4.436860
H    -2.617927  0.013534  5.335726
H    -5.022674  0.560906  4.767217
H    -4.464297  2.009468  3.895088
H    -3.675983  1.774938  6.741480
H    -6.639168  4.267894  5.555318
H    -6.498460  2.716400  4.818565
H    -5.556570  4.527205  7.680613
H    -3.955708  3.890565  7.804116
N    -1.333269  -2.642401  4.423343
C    -2.716303  -3.134125  4.418048
H    -0.684019  -3.150788  5.027160
H    -3.351987  -2.540962  5.086915
H    -2.703851  -4.165302  4.784278
H    -3.129427  -3.141990  3.405204
Ca    2.087414  -1.287617  2.397312
