37
Energy: -39740.413125 eV PBE+vdW (tier 2 basis)
C    0.171496  -1.886553  1.391291
C    0.327077  -0.508202  1.933175
O    1.528121  -0.023747  2.129040
H    0.039312  -2.592360  2.229040
H    1.070386  -2.183938  0.842141
H    -0.703656  -1.987183  0.736264
N    -0.714269  0.241376  2.245563
C    -2.136703  -0.147568  2.083466
C    -2.583329  -0.118698  0.579170
O    -2.865366  -1.201933  0.078526
H    -0.514733  1.174531  2.609458
H    -2.194797  -1.216208  2.319654
C    -3.051502  0.600431  3.070020
C    -4.517328  0.164451  2.885011
C    -5.452159  0.738082  3.958200
N    -6.817933  0.247153  3.744732
C    -7.943061  0.805613  4.228534
N    -9.132770  0.369574  3.798391
N    -7.880612  1.808975  5.112642
H    -2.963312  1.689687  2.946079
H    -2.717349  0.364629  4.092478
H    -4.569771  -0.936007  2.913047
H    -4.879800  0.469724  1.892172
H    -5.468301  1.836728  3.902594
H    -5.095045  0.450982  4.961633
H    -6.920037  -0.660175  3.299716
H    -9.990106  0.608749  4.284441
H    -9.221788  -0.208330  2.970682
H    -8.713813  2.328689  5.366650
H    -7.057203  1.965590  5.680076
N    -2.622370  1.048441  -0.108502
C    -2.436857  2.421785  0.342711
H    -2.938198  0.920176  -1.068787
H    -2.280326  3.053707  -0.537274
H    -1.545375  2.532338  0.973992
H    -3.311133  2.811935  0.882926
Ca    3.533584  0.203323  2.227701
