37
Energy: -39741.416385 eV PBE+vdW (tier 2 basis)
C    -1.409884  0.559187  0.899456
C    -1.193148  -0.033723  2.251443
O    -0.298631  0.457144  3.011658
H    -2.448022  0.488687  0.565439
H    -0.766826  0.064494  0.153759
H    -1.105530  1.612102  0.935932
N    -1.938347  -1.069355  2.727106
C    -2.134438  -2.356971  2.037387
C    -0.728575  -3.034481  1.935612
O    0.325396  -2.338482  2.153576
H    -1.796966  -1.190301  3.731867
H    -2.722405  -2.964902  2.742882
C    -2.922049  -2.317811  0.706990
C    -4.374478  -1.839025  0.888756
C    -5.166761  -1.874694  -0.428826
N    -6.552108  -1.448420  -0.211387
C    -7.605267  -1.760021  -0.996256
N    -8.843012  -1.489483  -0.569854
N    -7.421311  -2.358986  -2.178505
H    -2.928313  -3.339335  0.303334
H    -2.392642  -1.713546  -0.040836
H    -4.384733  -0.816039  1.297313
H    -4.883301  -2.476237  1.628291
H    -5.185801  -2.900768  -0.824731
H    -4.678788  -1.231611  -1.181115
H    -6.722375  -0.754732  0.510500
H    -9.041049  -1.281489  0.402339
H    -9.635450  -1.507939  -1.203472
H    -8.209922  -2.732633  -2.696947
H    -6.544263  -2.290622  -2.679867
N    -0.614435  -4.322367  1.673505
C    -1.649179  -5.347341  1.494184
H    0.349767  -4.656568  1.614225
H    -1.809046  -5.549738  0.427411
H    -2.588928  -5.047762  1.966733
H    -1.301399  -6.268554  1.974425
Ca    1.469485  -0.768810  3.114321
