37
Energy: -39740.3694321 eV PBE+vdW (tier 2 basis)
C    0.153079  0.539310  0.050055
C    -0.084634  0.167456  1.480478
O    0.800832  -0.228728  2.242320
H    -0.758200  0.792845  -0.502517
H    0.661182  -0.294827  -0.452264
H    0.843412  1.393595  0.011105
N    -1.396889  0.268723  1.940688
C    -1.700976  0.049968  3.345827
C    -2.815763  -0.994150  3.476709
O    -3.439399  -1.183186  4.603398
H    -2.028866  0.854831  1.396993
H    -0.797874  -0.450564  3.749367
C    -1.974209  1.347830  4.143633
C    -0.884186  2.440521  4.082570
C    0.366509  2.299844  4.971775
N    1.424009  1.474100  4.389830
C    2.744131  1.664365  4.550601
N    3.591808  1.002248  3.751162
N    3.221912  2.502144  5.478989
H    -2.154621  1.081475  5.196420
H    -2.909292  1.792015  3.768019
H    -1.376774  3.367584  4.406355
H    -0.579632  2.633557  3.043334
H    0.082140  1.917158  5.967327
H    0.766706  3.312841  5.120613
H    1.164844  0.761641  3.696827
H    3.248255  0.461646  2.965063
H    4.586735  0.970736  3.940721
H    2.638586  2.875643  6.215903
H    4.207582  2.737018  5.515312
N    -3.108093  -1.730784  2.433136
C    -4.084383  -2.818116  2.372408
H    -2.560768  -1.508874  1.596234
H    -3.822347  -3.612212  3.084442
H    -4.068846  -3.243974  1.365184
H    -5.096704  -2.438611  2.566116
Ca    -4.597980  -1.656947  6.194593
