37
Energy: -39740.7270359 eV PBE+vdW (tier 2 basis)
C    -0.701248  -1.206268  0.271241
C    -0.267723  -0.290099  1.361652
O    0.982914  -0.357255  1.765265
H    -0.097568  -1.019332  -0.628671
H    -1.757861  -1.099056  0.013456
H    -0.516361  -2.247083  0.572780
N    -1.053202  0.578150  1.938786
C    -2.403527  1.045482  1.576524
C    -2.353460  2.515094  2.107745
O    -1.479794  2.777961  2.950854
H    -0.692663  1.274225  2.647088
H    -2.510882  1.025368  0.484811
C    -3.555791  0.229443  2.217011
C    -3.641754  0.295752  3.749609
C    -4.774401  -0.536840  4.368453
N    -6.095161  0.082086  4.179295
C    -7.272397  -0.542736  4.399107
N    -8.417909  0.105547  4.157517
N    -7.303395  -1.811226  4.820517
H    -3.453340  -0.818023  1.893347
H    -4.489380  0.591239  1.762239
H    -3.726491  1.338863  4.094188
H    -2.707946  -0.077011  4.194710
H    -4.567857  -0.657954  5.444078
H    -4.798987  -1.537689  3.912074
H    -6.125558  1.097377  4.209370
H    -9.308374  -0.256152  4.481747
H    -8.439585  0.980258  3.647518
H    -6.506380  -2.241427  5.272768
H    -8.175935  -2.328201  4.851366
N    -3.248881  3.406521  1.669330
C    -4.263885  3.268312  0.626979
H    -3.145170  4.327833  2.094253
H    -4.309075  4.199035  0.051313
H    -5.258099  3.078758  1.053546
H    -4.011998  2.462096  -0.069492
Ca    2.954448  -0.423172  2.125987
