37
Energy: -39741.9477771 eV PBE+vdW (tier 2 basis)
C    -2.011166  -0.999995  -0.061830
C    -1.753336  -0.769836  1.389933
O    -1.175791  -1.664856  2.084686
H    -2.611834  -1.914546  -0.172399
H    -1.058122  -1.190047  -0.575569
H    -2.524226  -0.169892  -0.558297
N    -2.145034  0.399122  1.924098
C    -2.134511  0.871987  3.328985
C    -0.714445  0.957609  3.919619
O    -0.037130  -0.096477  4.163301
H    -2.573842  1.042757  1.263564
H    -2.511580  1.899032  3.255827
C    -3.100477  0.098836  4.265872
C    -4.571331  0.248367  3.832235
C    -5.611774  -0.521304  4.667756
N    -5.999205  0.159878  5.908266
C    -7.226463  0.108113  6.472508
N    -7.528063  0.955196  7.463230
N    -8.142853  -0.764056  6.041588
H    -2.940032  0.492726  5.282107
H    -2.821056  -0.964387  4.296872
H    -4.676063  -0.126502  2.803785
H    -4.856988  1.311309  3.800316
H    -5.252749  -1.541378  4.884384
H    -6.519101  -0.615078  4.057047
H    -5.276153  0.600560  6.466882
H    -8.347598  0.813794  8.044957
H    -6.998346  1.804543  7.620703
H    -9.112868  -0.682720  6.329925
H    -7.889409  -1.606682  5.540347
N    -0.205892  2.140296  4.218704
C    -0.767797  3.485418  4.016929
H    0.717150  2.099548  4.655814
H    -1.602738  3.672888  4.703187
H    -1.082501  3.632040  2.977610
H    0.021556  4.210674  4.234391
Ca    0.372768  -2.064937  3.468667
