37
Energy: -39740.5101202 eV PBE+vdW (tier 2 basis)
C    0.762997  0.246182  -0.135182
C    0.434623  0.291150  1.323894
O    1.317502  0.413889  2.194293
H    1.305388  1.161438  -0.407086
H    -0.109153  0.132279  -0.787768
H    1.457588  -0.587135  -0.310017
N    -0.889546  0.201259  1.676130
C    -1.404696  0.001909  3.037888
C    -1.148614  1.233935  3.930495
O    -2.142032  1.816361  4.559359
H    -1.568421  0.173577  0.922842
H    -2.494332  -0.076339  2.933774
C    -0.853264  -1.278857  3.741365
C    -0.955164  -2.591991  2.938013
C    -2.276321  -3.364601  3.100148
N    -2.323227  -4.603648  2.316125
C    -2.115908  -5.856253  2.766883
N    -1.530461  -6.075238  3.951535
N    -2.514778  -6.894945  2.025073
H    -1.369496  -1.375492  4.709759
H    0.204427  -1.109962  3.975122
H    -0.123000  -3.236117  3.256468
H    -0.773265  -2.398019  1.870711
H    -3.135523  -2.757602  2.779567
H    -2.458716  -3.620184  4.153531
H    -2.581368  -4.522937  1.337703
H    -1.528714  -7.002009  4.364096
H    -0.944237  -5.379827  4.393806
H    -3.184788  -6.788817  1.271589
H    -2.179869  -7.834843  2.209142
N    0.073428  1.661485  4.050964
C    0.494483  2.807771  4.845070
H    0.772680  1.133960  3.395714
H    1.582696  2.898956  4.778091
H    0.230645  2.668728  5.903737
H    0.055355  3.739586  4.456645
Ca    -3.288534  3.124928  5.570179
