37
Energy: -39740.5986491 eV PBE+vdW (tier 2 basis)
C    -0.522715  0.790678  0.397076
C    -0.163946  0.754895  1.836620
O    0.412202  1.813031  2.361577
H    -0.800604  -0.194631  0.010108
H    0.341573  1.150755  -0.177803
H    -1.340223  1.513627  0.249271
N    -0.386601  -0.266161  2.643865
C    -1.041095  -1.598310  2.427911
C    -0.206939  -2.458214  1.433099
O    -0.322465  -2.267344  0.222271
H    -0.069315  -0.113170  3.601445
H    -1.007208  -2.050875  3.428536
C    -2.516052  -1.466748  2.006455
C    -3.329418  -2.777334  2.079508
C    -3.282332  -3.655228  0.819261
N    -4.280864  -4.725129  0.931294
C    -4.359607  -5.809539  0.139334
N    -5.226079  -6.785301  0.436181
N    -3.556305  -5.930969  -0.925415
H    -2.576082  -1.053559  0.990882
H    -2.985255  -0.738025  2.681509
H    -4.376511  -2.482722  2.247377
H    -3.036017  -3.370414  2.959480
H    -2.293909  -4.115422  0.684718
H    -3.485739  -3.031614  -0.067316
H    -5.063743  -4.565016  1.558355
H    -5.453325  -7.512735  -0.232650
H    -5.690968  -6.830498  1.335457
H    -3.526026  -6.794224  -1.456613
H    -3.100262  -5.126593  -1.337298
N    0.590162  -3.383787  2.002728
C    1.452235  -4.284106  1.236955
H    0.590056  -3.481104  3.013099
H    1.381369  -4.015486  0.179565
H    1.137072  -5.325843  1.374292
H    2.491856  -4.183312  1.570282
Ca    1.277226  3.597920  2.725820
