37
Energy: -39739.9921588 eV PBE+vdW (tier 2 basis)
C    0.460611  0.710321  0.602650
C    -0.232484  -0.059464  1.693223
O    0.356990  -0.488584  2.671317
H    -0.203808  1.223463  -0.100731
H    1.066733  -0.011217  0.031880
H    1.167174  1.426371  1.037272
N    -1.605299  -0.393791  1.527746
C    -2.650447  0.612181  1.290107
C    -3.047878  0.641918  -0.194105
O    -3.930534  1.488317  -0.642379
H    -1.864514  -1.062442  2.254386
H    -3.558699  0.219539  1.782397
C    -2.349473  1.992382  1.932303
C    -2.128687  1.873369  3.466634
C    -0.873290  2.619513  3.961589
N    -0.634109  2.447168  5.393194
C    0.337506  1.706199  5.968481
N    0.997634  0.768004  5.285424
N    0.638280  1.928238  7.254489
H    -3.183082  2.676825  1.727057
H    -1.468374  2.434544  1.445938
H    -2.036444  0.820275  3.764177
H    -3.010453  2.257748  3.996672
H    -0.964566  3.697955  3.767088
H    0.023778  2.284063  3.425183
H    -1.190769  3.014991  6.024473
H    1.833045  0.350365  5.680855
H    0.668453  0.367924  4.406292
H    0.364616  2.781172  7.728772
H    1.200989  1.271967  7.784577
N    -2.521548  -0.263134  -0.975900
C    -2.797308  -0.484587  -2.393674
H    -1.879483  -0.892196  -0.473344
H    -2.060417  -1.191432  -2.785736
H    -2.706004  0.454511  -2.953909
H    -3.797015  -0.920075  -2.529152
Ca    -5.394753  2.576324  -1.521356
