37
Energy: -39740.8392227 eV PBE+vdW (tier 2 basis)
C    -1.184946  -1.199746  1.761177
C    -0.172955  -0.192287  1.341269
O    1.090358  -0.559032  1.305566
H    -1.173870  -2.046497  1.059612
H    -2.199133  -0.794865  1.806004
H    -0.918363  -1.596109  2.750913
N    -0.462737  1.033279  1.001288
C    -1.753073  1.720746  0.808625
C    -1.346250  2.775610  -0.275607
O    -0.160721  3.141632  -0.258238
H    0.272736  1.709638  0.670496
H    -2.504338  1.008524  0.447336
C    -2.197941  2.400819  2.131053
C    -3.516955  3.187546  2.054015
C    -3.865915  3.827748  3.407336
N    -5.148448  4.534989  3.333373
C    -5.529902  5.562499  4.117069
N    -6.649270  6.233980  3.822276
N    -4.789342  5.933240  5.168125
H    -1.382941  3.068862  2.449342
H    -2.282249  1.614806  2.897644
H    -4.335174  2.515317  1.749119
H    -3.447437  3.983401  1.299532
H    -3.089949  4.557870  3.679062
H    -3.901051  3.056752  4.195266
H    -5.872980  4.122431  2.753408
H    -7.079749  6.862125  4.492251
H    -7.098026  6.152774  2.917447
H    -4.983601  6.798888  5.660104
H    -4.130486  5.300549  5.604002
N    -2.248583  3.249219  -1.143509
C    -3.624651  2.834800  -1.401457
H    -1.858453  3.946690  -1.778354
H    -3.732747  2.553766  -2.456043
H    -4.323728  3.653307  -1.187400
H    -3.897807  1.970269  -0.790388
Ca    2.962556  -1.257724  1.161322
