37
Energy: -39740.7968619 eV PBE+vdW (tier 2 basis)
C    0.124019  0.384491  0.692339
C    -0.046156  -0.207207  2.047333
O    1.034038  -0.552156  2.715132
H    0.714771  -0.297635  0.065373
H    0.689906  1.324269  0.770206
H    -0.827257  0.589390  0.194626
N    -1.203526  -0.399949  2.617253
C    -2.571416  0.003137  2.245874
C    -3.187689  0.222696  3.672533
O    -2.699119  -0.443036  4.596757
H    -1.277595  -0.760847  3.604380
H    -2.550163  0.936910  1.667982
C    -3.287876  -1.134081  1.465401
C    -4.776844  -0.860033  1.185455
C    -5.567368  -2.037116  0.589258
N    -5.417836  -2.178788  -0.865146
C    -6.328544  -2.749037  -1.678540
N    -7.357804  -3.435937  -1.172868
N    -6.206137  -2.613579  -3.005957
H    -3.192614  -2.056531  2.058365
H    -2.727627  -1.298668  0.530930
H    -4.907007  0.028103  0.547115
H    -5.275746  -0.630394  2.136581
H    -6.633237  -1.860676  0.787185
H    -5.283685  -2.973826  1.097583
H    -4.536084  -1.917269  -1.291916
H    -8.139796  -3.709764  -1.758461
H    -7.346919  -3.801063  -0.228457
H    -6.753091  -3.181100  -3.644338
H    -5.647499  -1.874710  -3.415819
N    -4.191143  1.096651  3.788210
C    -4.869847  1.389009  5.055171
H    -4.457756  1.644038  2.975405
H    -5.954481  1.308719  4.921594
H    -4.623306  2.403429  5.391528
H    -4.537890  0.666012  5.804332
Ca    2.730008  -0.912437  3.720807
