37
Energy: -39740.4140346 eV PBE+vdW (tier 2 basis)
C    -3.088689  -0.693602  0.579393
C    -1.812910  0.072286  0.514939
O    -1.593328  0.891416  -0.483025
H    -2.898297  -1.776390  0.627658
H    -3.712351  -0.486812  -0.293933
H    -3.653690  -0.442162  1.490088
N    -0.889940  -0.048161  1.452089
C    -0.997127  -0.909011  2.650818
C    -1.979115  -0.355297  3.740663
O    -2.827147  -1.137264  4.149898
H    -0.056914  0.534241  1.353725
H    -1.500189  -1.829453  2.331492
C    0.389927  -1.292224  3.205920
C    0.263280  -2.258143  4.398689
C    1.622871  -2.727486  4.932494
N    1.422687  -3.607773  6.088851
C    2.314503  -4.490559  6.574156
N    1.929321  -5.375884  7.500875
N    3.573771  -4.506547  6.119806
H    0.948712  -0.393799  3.510121
H    0.963276  -1.771092  2.396778
H    -0.331828  -3.135461  4.105068
H    -0.290235  -1.763894  5.211979
H    2.240433  -1.858443  5.216425
H    2.162622  -3.292622  4.158165
H    0.577902  -3.470504  6.635708
H    0.950549  -5.555670  7.692269
H    2.606313  -5.905649  8.038805
H    4.206128  -5.258833  6.370452
H    3.983095  -3.701862  5.662385
N    -1.845433  0.912201  4.204966
C    -0.903165  1.960433  3.836843
H    -2.543225  1.144595  4.909948
H    -0.899365  2.714263  4.630570
H    -1.183965  2.470552  2.902319
H    0.124575  1.584869  3.756311
Ca    -1.722205  1.939212  -2.206817
