37
Energy: -39739.8838221 eV PBE+vdW (tier 2 basis)
C    0.571924  0.958966  0.886274
C    0.002534  -0.079157  1.808722
O    0.582649  -1.122994  2.119383
H    -0.127517  1.763167  0.633130
H    0.907333  0.465781  -0.034962
H    1.465466  1.399831  1.349788
N    -1.248411  0.185442  2.342535
C    -1.839314  -0.786315  3.260590
C    -3.353936  -0.709798  3.112012
O    -3.960358  -1.631619  2.407227
H    -1.646747  1.110570  2.216929
H    -1.558359  -1.755668  2.828207
C    -1.310044  -0.813774  4.747251
C    -0.145043  0.139946  5.047304
C    0.735601  -0.274272  6.235062
N    1.338483  -1.627017  6.180145
C    2.455050  -1.968874  5.491106
N    2.661056  -1.506540  4.252486
N    3.346048  -2.787107  6.061124
H    -0.977023  -1.845306  4.923702
H    -2.129459  -0.638946  5.458313
H    -0.507679  1.152611  5.279393
H    0.492244  0.258527  4.165804
H    0.152752  -0.261079  7.164210
H    1.534745  0.471638  6.350017
H    1.178659  -2.190156  7.009979
H    1.885312  -1.305303  3.616098
H    3.569761  -1.634910  3.818792
H    3.399109  -2.896165  7.068566
H    4.054536  -3.264186  5.512639
N    -4.091678  0.238682  3.644443
C    -3.686259  1.410186  4.431442
H    -5.097390  0.161950  3.480003
H    -4.155646  2.300056  3.994403
H    -2.602116  1.532257  4.424735
H    -4.040233  1.297599  5.464333
Ca    -4.786590  -3.051810  1.225766
