37
Energy: -39739.4107912 eV PBE+vdW (tier 2 basis)
C    0.456022  0.809853  0.831843
C    -0.078523  1.394159  2.114574
O    0.487200  2.318378  2.693893
H    -0.320718  0.542542  0.103846
H    1.035520  -0.096981  1.060546
H    1.138598  1.532410  0.374798
N    -1.197726  0.825455  2.722402
C    -2.433281  0.337727  2.114501
C    -2.207502  -0.839349  1.163285
O    -2.761417  -0.873826  -0.021962
H    -1.350817  1.238486  3.643025
H    -2.977701  -0.158337  2.942200
C    -3.371173  1.481019  1.643204
C    -2.768864  2.641580  0.810416
C    -2.779443  4.027899  1.483815
N    -1.794980  4.144951  2.560701
C    -1.698430  5.185627  3.415327
N    -0.672958  5.208975  4.274594
N    -2.617706  6.155596  3.438016
H    -3.796285  1.894362  2.569120
H    -4.235624  1.038604  1.126108
H    -3.356140  2.767422  -0.109127
H    -1.748470  2.418492  0.467487
H    -3.785132  4.214222  1.892484
H    -2.590016  4.786760  0.706774
H    -0.939912  3.584286  2.491966
H    -0.498154  6.008319  4.873122
H    0.029760  4.477036  4.265453
H    -3.329490  6.237820  2.724180
H    -2.572293  6.906492  4.118448
N    -1.512586  -1.884789  1.556263
C    -0.901754  -2.157038  2.868064
H    -1.402373  -2.627553  0.865551
H    -0.760400  -3.239302  2.945855
H    -1.558375  -1.823160  3.677662
H    0.069684  -1.656999  2.955392
Ca    -3.771227  -1.209488  -1.750471
