37
Energy: -39742.2629427 eV PBE+vdW (tier 2 basis)
C    -0.929924  0.578974  -0.675018
C    -1.297656  1.454956  0.471800
O    -1.342648  2.719705  0.336253
H    -0.880216  -0.483928  -0.417215
H    0.034959  0.898745  -1.091319
H    -1.676690  0.719016  -1.471561
N    -1.594311  0.888970  1.652796
C    -2.140210  1.575924  2.842248
C    -1.021291  2.408196  3.518565
O    -0.755915  3.561528  3.047444
H    -1.523856  -0.125741  1.699992
H    -2.864309  2.322264  2.479830
C    -2.888838  0.542570  3.709024
C    -3.768233  1.129710  4.828554
C    -4.614048  0.031434  5.498528
N    -5.490926  0.593114  6.529034
C    -6.063950  -0.106327  7.533203
N    -6.710426  0.550436  8.501546
N    -5.962742  -1.439075  7.581971
H    -2.182659  -0.199204  4.121780
H    -3.532323  -0.023113  3.017084
H    -4.440538  1.888302  4.396131
H    -3.160200  1.637111  5.592144
H    -3.955309  -0.707352  5.978561
H    -5.208349  -0.492633  4.730580
H    -5.861551  1.525251  6.369685
H    -6.599941  1.548787  8.637228
H    -7.322763  0.066208  9.149910
H    -6.256174  -1.950247  8.408493
H    -5.781079  -1.991495  6.752902
N    -0.356422  1.907980  4.541650
C    0.753134  2.566787  5.241826
H    -0.604056  0.971162  4.851377
H    0.706902  2.302286  6.302833
H    0.664922  3.649979  5.128166
H    1.713138  2.227285  4.831238
Ca    -0.789504  4.587435  1.156738
