37
Energy: -39740.4309211 eV PBE+vdW (tier 2 basis)
C    0.402493  0.688466  0.112114
C    0.158616  0.966094  1.558903
O    0.980704  1.760210  2.198664
H    0.406320  1.630238  -0.455292
H    -0.351761  0.024860  -0.323298
H    1.386798  0.213718  -0.014267
N    -0.864477  0.406717  2.156426
C    -1.305127  0.413100  3.556621
C    -1.856089  -1.023722  3.762761
O    -2.479107  -1.538736  2.820203
H    -1.430717  -0.272201  1.620680
H    -0.436421  0.605859  4.198992
C    -2.418617  1.464011  3.868497
C    -3.430674  1.877320  2.781338
C    -4.339631  0.834059  2.102895
N    -5.076423  -0.071327  2.990124
C    -6.392029  -0.007907  3.269374
N    -7.033308  -1.111149  3.675757
N    -7.063955  1.144333  3.161762
H    -1.920808  2.386948  4.196439
H    -2.952815  1.090262  4.754488
H    -2.909049  2.398929  1.963412
H    -4.055537  2.650824  3.253056
H    -3.760572  0.186139  1.434675
H    -5.058512  1.363084  1.462281
H    -4.605481  -0.955606  3.175545
H    -6.664407  -2.036184  3.488340
H    -7.963809  -1.063002  4.076819
H    -8.077428  1.164540  3.196114
H    -6.591668  2.036205  3.095248
N    -1.651662  -1.584725  4.958008
C    -2.146420  -2.913179  5.329784
H    -1.128685  -1.068393  5.658981
H    -1.341800  -3.479190  5.811369
H    -2.463909  -3.436287  4.423773
H    -2.989325  -2.830544  6.027696
Ca    2.625328  2.905904  2.502594
