37
Energy: -39740.0993136 eV PBE+vdW (tier 2 basis)
C    0.707034  -0.039543  0.209142
C    0.305690  0.149006  1.627932
O    1.192691  0.681601  2.438992
H    -0.020024  -0.591104  -0.385246
H    1.668339  -0.571250  0.180178
H    0.864314  0.944506  -0.257907
N    -0.862096  -0.174184  2.148701
C    -2.174686  -0.700501  1.643727
C    -2.501950  -2.114241  2.209657
O    -3.622339  -2.253655  2.710177
H    -0.914365  0.022734  3.150779
H    -2.891075  -0.066330  2.183627
C    -2.479605  -0.542853  0.140727
C    -3.982562  -0.430294  -0.223952
C    -4.819788  -1.713499  -0.431218
N    -5.591429  -2.120853  0.741201
C    -6.849080  -2.587797  0.727864
N    -7.503580  -2.726723  1.890053
N    -7.474289  -2.897288  -0.416439
H    -2.019349  -1.347806  -0.450341
H    -2.023598  0.401144  -0.189521
H    -4.000046  0.097807  -1.186646
H    -4.500816  0.235876  0.481416
H    -4.180465  -2.542418  -0.778866
H    -5.532464  -1.502041  -1.237907
H    -5.078731  -2.164200  1.630279
H    -8.357134  -3.269065  1.954451
H    -7.151291  -2.312999  2.744355
H    -8.471980  -3.077183  -0.431053
H    -6.965185  -3.089299  -1.269305
N    -1.621681  -3.132222  2.129618
C    -0.327861  -3.218891  1.463364
H    -1.979526  -3.989126  2.550277
H    -0.084573  -4.277240  1.328164
H    0.478905  -2.769167  2.060027
H    -0.353679  -2.766103  0.465621
Ca    2.736052  1.623684  3.350193
