37
Energy: -39740.0061727 eV PBE+vdW (tier 2 basis)
C    -0.912559  0.294304  -0.548596
C    -0.810812  0.473220  0.935928
O    0.173385  0.142862  1.603589
H    -0.690773  -0.752420  -0.794625
H    -0.136798  0.901418  -1.035579
H    -1.889033  0.565512  -0.964186
N    -1.901918  1.043466  1.570925
C    -1.850811  1.336449  2.998023
C    -3.112774  0.763874  3.639114
O    -4.066212  1.550285  4.075792
H    -2.646858  1.429536  0.998068
H    -0.996086  0.736591  3.358657
C    -1.566801  2.812824  3.330637
C    -0.226449  3.322963  2.749082
C    0.990397  3.398779  3.681259
N    1.473440  2.158475  4.343942
C    2.547282  1.448397  3.898012
N    2.650515  1.159443  2.600145
N    3.477736  1.046372  4.769430
H    -1.579850  2.940295  4.425410
H    -2.380977  3.434414  2.924714
H    -0.371965  4.356898  2.405766
H    0.027686  2.762251  1.841267
H    0.782613  4.103312  4.497644
H    1.823178  3.826619  3.106758
H    1.392957  2.168669  5.356223
H    1.800450  0.967085  2.059921
H    3.519744  0.782445  2.234652
H    3.616108  1.517748  5.657275
H    4.157897  0.333614  4.522727
N    -3.283254  -0.535167  3.742319
C    -2.391836  -1.616784  3.303157
H    -4.175986  -0.840478  4.133282
H    -2.475681  -2.439391  4.020946
H    -1.353949  -1.277934  3.252427
H    -2.707589  -1.971593  2.313024
Ca    -5.540475  2.759570  4.744153
