37
Energy: -39740.1052204 eV PBE+vdW (tier 2 basis)
C    -0.277938  -0.109830  -0.097736
C    -0.316309  -0.062894  1.403326
O    0.444088  -0.718005  2.120672
H    0.764395  -0.059472  -0.433621
H    -0.857384  0.679788  -0.588953
H    -0.674557  -1.082153  -0.425316
N    -1.264344  0.782781  1.948930
C    -1.744216  0.855376  3.327900
C    -1.304019  2.119707  4.081094
O    -2.204625  2.691192  4.849287
H    -1.856107  1.255773  1.272159
H    -2.828969  1.014007  3.227486
C    -1.632509  -0.435525  4.200105
C    -0.305992  -0.804073  4.898205
C    -0.098662  -2.332438  4.851113
N    1.230420  -2.775182  5.266537
C    2.214106  -3.179137  4.436402
N    2.192688  -2.862318  3.138965
N    3.227737  -3.900831  4.933578
H    -2.432960  -0.370558  4.951233
H    -1.945844  -1.244095  3.523671
H    -0.311656  -0.463533  5.943824
H    0.548063  -0.333449  4.404650
H    -0.269828  -2.694240  3.829007
H    -0.832609  -2.843134  5.489861
H    1.386475  -2.930390  6.257237
H    2.821993  -3.329319  2.496060
H    1.575129  -2.147014  2.748913
H    4.070348  -4.066697  4.394872
H    3.153183  -4.383289  5.821796
N    -0.124413  2.684672  4.001751
C    1.075897  2.296635  3.246779
H    -0.026837  3.549722  4.536427
H    1.090883  1.221939  3.054038
H    1.107145  2.850993  2.299790
H    1.947192  2.575125  3.848983
Ca    -3.667098  3.631263  5.884399
