37
Energy: -39740.332003 eV PBE+vdW (tier 2 basis)
C    0.084933  0.095859  -0.333945
C    0.081095  0.324966  1.137178
O    1.248259  0.537963  1.695919
H    0.761676  -0.729610  -0.581476
H    0.462230  1.014099  -0.813079
H    -0.895247  -0.128508  -0.749642
N    -0.996960  0.584836  1.887974
C    -2.260566  -0.175977  1.837219
C    -1.797099  -1.673692  1.959443
O    -0.700040  -1.962775  1.461798
H    -0.752913  0.891145  2.829709
H    -2.810983  0.146761  2.730196
C    -3.134052  0.083164  0.579638
C    -4.609655  -0.354675  0.673233
C    -5.566737  0.538241  1.488986
N    -6.084719  1.709078  0.769192
C    -7.289622  1.796290  0.169531
N    -7.787665  3.000414  -0.134669
N    -7.992998  0.696925  -0.124273
H    -2.703093  -0.451796  -0.274410
H    -3.067496  1.156103  0.343525
H    -4.673488  -1.379032  1.062116
H    -4.988205  -0.419025  -0.357174
H    -5.092404  0.917341  2.405630
H    -6.429056  -0.050853  1.828708
H    -5.549839  2.569477  0.813243
H    -8.580713  3.100025  -0.759543
H    -7.448857  3.846359  0.309086
H    -7.569704  -0.221165  -0.158576
H    -8.966416  0.761026  -0.402885
N    -2.577963  -2.578342  2.566896
C    -3.785710  -2.415287  3.372837
H    -2.194710  -3.523127  2.526984
H    -3.640182  -2.904103  4.343815
H    -4.652489  -2.877525  2.882848
H    -3.998440  -1.358670  3.558239
Ca    3.207245  0.393806  2.123001
