37
Energy: -39740.6233437 eV PBE+vdW (tier 2 basis)
C    0.285755  -1.387004  0.488065
C    0.100058  -0.496887  1.672939
O    1.056939  -0.419458  2.563088
H    1.178486  -1.078087  -0.074994
H    -0.571638  -1.370611  -0.192839
H    0.435874  -2.424305  0.821973
N    -1.015916  0.180612  1.795717
C    -1.503642  1.107835  2.833099
C    -3.018238  0.791927  2.906890
O    -3.629466  0.747068  1.825662
H    -1.729963  0.052674  1.065461
H    -0.977378  0.907689  3.775239
C    -1.288557  2.569984  2.361572
C    -1.954758  3.652207  3.231719
C    -3.419110  4.008647  2.920686
N    -3.604269  4.615333  1.595043
C    -4.544829  4.274550  0.686252
N    -4.974537  5.201441  -0.179679
N    -5.026525  3.030111  0.625978
H    -1.647322  2.651290  1.324324
H    -0.204877  2.747981  2.326427
H    -1.354942  4.569334  3.140513
H    -1.901425  3.387447  4.299261
H    -3.764057  4.727672  3.678577
H    -4.087892  3.145629  2.993659
H    -3.204025  5.542160  1.474308
H    -5.504568  4.946468  -1.005909
H    -4.858528  6.192736  -0.001168
H    -5.850124  2.832540  0.068838
H    -4.552933  2.233247  1.061720
N    -3.561554  0.619182  4.114756
C    -4.984635  0.346925  4.338725
H    -2.961061  0.674632  4.931821
H    -5.089182  -0.478841  5.050685
H    -5.443712  0.066637  3.387068
H    -5.488192  1.232973  4.746187
Ca    2.845743  -0.861787  3.412637
