37
Energy: -39741.5268612 eV PBE+vdW (tier 2 basis)
C    -0.474054  -0.533280  2.955325
C    -0.385672  0.484853  1.875415
O    0.571853  1.321475  1.847172
H    -0.463964  0.015180  3.911682
H    0.417510  -1.175745  2.972788
H    -1.379352  -1.144866  2.916332
N    -1.343151  0.569599  0.910224
C    -1.737966  -0.589552  0.108002
C    -0.564928  -0.853988  -0.902239
O    0.527723  -0.201718  -0.786426
H    -1.266335  1.430620  0.364712
H    -1.761478  -1.466195  0.775011
C    -3.138130  -0.416848  -0.521887
C    -4.250364  -0.348528  0.544936
C    -5.688393  -0.572625  0.043342
N    -6.300571  0.603901  -0.584403
C    -7.627553  0.860175  -0.606059
N    -8.057347  2.058016  -1.020054
N    -8.508659  -0.059189  -0.201701
H    -3.134542  0.469987  -1.176020
H    -3.333338  -1.277220  -1.180116
H    -4.198334  0.595657  1.105645
H    -4.071121  -1.147672  1.280557
H    -6.302493  -0.826124  0.917773
H    -5.718603  -1.435819  -0.643293
H    -5.728722  1.188766  -1.184084
H    -9.034699  2.218655  -1.240678
H    -7.443380  2.863155  -1.054352
H    -9.480641  0.186761  -0.042809
H    -8.281223  -1.045605  -0.170107
N    -0.711064  -1.777796  -1.828288
C    0.322295  -2.170749  -2.798775
H    -1.590927  -2.286941  -1.861950
H    1.145067  -2.687840  -2.289682
H    0.705330  -1.286269  -3.318941
H    -0.130417  -2.849099  -3.526502
Ca    1.937274  1.126510  0.188800
