37
Energy: -39740.7060492 eV PBE+vdW (tier 2 basis)
C    -1.362368  -3.166840  1.918168
C    -0.652118  -1.873632  1.716954
O    0.647984  -1.849738  1.890430
H    -0.952459  -3.921349  1.231133
H    -2.441927  -3.105119  1.762771
H    -1.181034  -3.524550  2.942160
N    -1.260169  -0.763801  1.373000
C    -2.679179  -0.546502  1.021879
C    -2.640785  0.665631  0.068426
O    -1.788911  1.550590  0.290720
H    -0.717944  0.105718  1.236357
H    -3.050198  -1.439656  0.502716
C    -3.581704  -0.278019  2.255598
C    -3.284163  0.940548  3.162955
C    -4.121081  2.215213  2.958544
N    -3.593471  3.116604  1.927844
C    -3.998130  4.383453  1.753650
N    -3.332336  5.176212  0.897923
N    -5.059059  4.863420  2.412269
H    -3.544810  -1.187160  2.872629
H    -4.615743  -0.229593  1.882332
H    -2.215022  1.200374  3.167774
H    -3.503836  0.619857  4.189451
H    -4.138967  2.759956  3.914575
H    -5.160599  1.931455  2.721075
H    -2.838327  2.771338  1.327981
H    -2.411165  4.923910  0.562438
H    -3.656529  6.112608  0.685552
H    -5.304833  5.846169  2.371059
H    -5.677247  4.263681  2.943407
N    -3.564172  0.706216  -0.892531
C    -3.706451  1.807533  -1.847095
H    -4.202250  -0.079352  -0.988941
H    -3.886595  1.397484  -2.846326
H    -2.781313  2.390238  -1.855989
H    -4.550186  2.453157  -1.571268
Ca    2.609530  -2.251631  2.139239
