23
Energy: -30563.8669171 eV PBE+vdW (tier 2 basis)
N    0.636444  -0.265020  0.238516
C    0.004243  0.190655  1.547429
C    1.098675  0.828043  2.391360
O    0.817315  1.303985  3.538873
H    -0.025473  -0.190603  -0.545436
H    0.928386  -1.252095  0.312635
H    -0.714860  0.985149  1.294546
C    -0.758182  -0.995156  2.201903
C    -1.780895  -0.527962  3.257065
C    0.195467  -2.065090  2.744877
C    -2.812848  0.484205  2.761825
H    -1.345281  -1.428652  1.370537
H    -1.252751  -0.139549  4.139689
H    -2.297189  -1.438078  3.595430
H    0.741602  -1.707891  3.629532
H    0.936902  -2.429541  2.013888
H    -0.375388  -2.948072  3.055268
H    -2.380742  1.475764  2.556601
H    -3.583090  0.642529  3.525746
H    -3.328808  0.136846  1.855372
O    2.298306  0.908863  1.930532
H    1.484001  0.288237  0.030073
Ca    2.882167  1.966433  3.802736
