23
Energy: -30563.173828 eV PBE+vdW (tier 2 basis)
N    1.139698  -1.339465  0.791471
C    0.285765  -0.498653  1.703295
C    1.187005  -0.047589  2.840005
O    2.119244  -0.798823  3.221349
H    0.493631  -1.893358  0.210888
H    1.610778  -0.721538  0.117427
H    -0.116176  0.374864  1.164950
C    -0.911034  -1.347217  2.259899
C    -2.047946  -1.499115  1.223381
C    -1.477150  -0.790820  3.573466
C    -1.722969  -2.100465  -0.146007
H    -0.487116  -2.353169  2.471338
H    -2.523599  -0.514670  1.089698
H    -2.808218  -2.126976  1.709902
H    -0.752999  -0.782242  4.398960
H    -2.319353  -1.413136  3.897526
H    -1.876076  0.226459  3.445030
H    -1.148732  -1.424678  -0.799787
H    -2.652370  -2.301073  -0.693266
H    -1.208992  -3.073901  -0.070318
O    1.024057  1.076747  3.470530
H    0.280614  1.617879  3.133374
Ca    2.744679  -2.537843  2.161572
