23
Energy: -30563.9121887 eV PBE+vdW (tier 2 basis)
N    -0.010081  1.160072  3.024022
C    0.464877  -0.260392  3.282136
C    1.523766  -0.597210  2.249763
O    1.645876  0.136131  1.203200
H    -0.993865  1.265591  3.317753
H    0.548305  1.857025  3.535184
H    0.913371  -0.279708  4.283880
C    -0.717658  -1.275706  3.246796
C    -1.379216  -1.495467  1.865745
C    -1.763683  -0.886120  4.302433
C    -0.604805  -2.292772  0.802512
H    -0.251014  -2.221130  3.565079
H    -1.726200  -0.540871  1.435621
H    -2.304719  -2.052467  2.068793
H    -2.370815  -0.012184  4.008854
H    -1.315721  -0.688587  5.285299
H    -2.481350  -1.705373  4.430576
H    -1.290618  -2.671500  0.035236
H    -0.086702  -3.159789  1.236259
H    0.106813  -1.648338  0.245193
O    2.191130  -1.670636  2.387943
H    0.080925  1.370418  2.015318
Ca    2.713384  -1.595988  0.273405
