23
Energy: -30563.2298571 eV PBE+vdW (tier 2 basis)
N    0.291896  0.243563  0.901574
C    -0.319081  -0.244572  2.188706
C    0.801452  -0.414681  3.207891
O    1.943620  0.062871  2.990558
H    -0.380679  0.879455  0.458759
H    0.308416  -0.568465  0.265853
H    -0.919466  0.587159  2.600072
C    -1.284254  -1.454438  2.003747
C    -0.654389  -2.634114  1.238409
C    -2.595451  -0.987885  1.355857
C    0.635360  -3.218433  1.812632
H    -1.539884  -1.809626  3.020886
H    -0.515935  -2.361264  0.174991
H    -1.420230  -3.421765  1.198733
H    -2.444410  -0.634668  0.325091
H    -3.080001  -0.187156  1.930207
H    -3.302563  -1.823642  1.298112
H    0.953197  -4.092256  1.231294
H    0.511283  -3.554760  2.850937
H    1.485763  -2.514750  1.791360
O    0.595064  -0.969487  4.362952
H    -0.306629  -1.345348  4.452783
Ca    2.555334  1.083083  1.240121
