23
Energy: -30563.8413055 eV PBE+vdW (tier 2 basis)
N    0.414597  0.671376  0.338180
C    -0.135582  0.395439  1.735148
C    1.025338  0.546766  2.709127
O    0.800519  0.613659  3.960195
H    1.428865  0.462809  0.328724
H    0.294971  1.653429  0.055238
H    -0.887680  1.165357  1.953390
C    -0.813175  -1.008185  1.778460
C    -1.729607  -1.138552  3.012639
C    0.198409  -2.150482  1.635544
C    -2.654363  -2.356786  2.946505
H    -1.479932  -1.008145  0.894463
H    -2.341200  -0.226489  3.097194
H    -1.117772  -1.183909  3.926121
H    -0.327452  -3.102248  1.504524
H    0.820850  -2.251770  2.537161
H    0.867744  -2.048517  0.768106
H    -3.337462  -2.350704  3.803803
H    -2.104205  -3.305164  2.980042
H    -3.270066  -2.349209  2.036872
O    2.232069  0.577594  2.260646
H    -0.058853  0.081314  -0.361124
Ca    2.941987  0.733416  4.370043
