23
Energy: -30563.758699 eV PBE+vdW (tier 2 basis)
N    0.708651  -0.391749  0.039699
C    -0.203160  -0.036807  1.204835
C    0.641222  0.614118  2.289376
O    0.120687  1.531773  3.002339
H    1.020717  0.442156  -0.478381
H    0.227240  -1.011847  -0.628251
H    -0.925725  0.700488  0.834621
C    -0.963092  -1.311959  1.708345
C    -1.759939  -1.021000  3.008752
C    -0.083638  -2.566049  1.806900
C    -1.038710  -1.232582  4.344908
H    -1.719147  -1.487208  0.925020
H    -2.621872  -1.703120  3.004503
H    -2.191460  -0.010900  2.963878
H    0.294515  -2.911515  0.833855
H    -0.689274  -3.397261  2.189192
H    0.772815  -2.446746  2.483162
H    -0.769356  -2.280369  4.522308
H    -1.678604  -0.908758  5.174101
H    -0.086220  -0.664263  4.430741
O    1.816098  0.163222  2.537387
H    1.548458  -0.882304  0.387565
Ca    1.680794  1.222678  4.498147
