23
Energy: -30563.9118977 eV PBE+vdW (tier 2 basis)
N    -0.772002  0.541819  -0.069521
C    -0.066320  0.121312  1.212198
C    1.384885  -0.203865  0.885517
O    2.153860  -0.600899  1.821701
H    -1.113617  -0.299440  -0.568486
H    -0.129788  1.042590  -0.701450
H    -0.045104  1.013862  1.857709
C    -0.834698  -1.005551  1.947727
C    -0.769355  -2.385529  1.253148
C    -2.265159  -0.552294  2.278477
C    -1.339022  -2.502771  -0.168076
H    -0.291196  -1.103078  2.900184
H    -1.315574  -3.079905  1.906477
H    0.270298  -2.749075  1.261365
H    -2.281050  0.413852  2.801899
H    -2.735349  -1.285821  2.944100
H    -2.918689  -0.479959  1.396338
H    -0.684325  -2.060494  -0.941795
H    -2.353713  -2.087263  -0.261560
H    -1.425500  -3.557158  -0.458138
O    1.836467  -0.043281  -0.306913
H    -1.583147  1.139253  0.137713
Ca    3.847098  -0.644303  0.446388
