23
Energy: -30562.1762856 eV PBE+vdW (tier 2 basis)
N    0.208575  -0.526009  -0.260393
C    0.095111  -0.317044  1.180867
C    1.573030  -0.470046  1.497950
O    2.407902  0.498013  1.409182
H    -0.276611  0.165869  -0.825512
H    -0.031306  -1.468388  -0.563479
H    -0.175433  0.728939  1.378778
C    -0.830539  -1.252901  1.979425
C    -2.277592  -1.202603  1.431520
C    -0.744484  -0.947221  3.481719
C    -2.958277  0.167242  1.466890
H    -0.493305  -2.300894  1.811092
H    -2.863759  -1.920957  2.022144
H    -2.291480  -1.594851  0.403593
H    0.275731  -1.037210  3.885585
H    -1.369993  -1.646749  4.048740
H    -1.099925  0.066924  3.705494
H    -3.016973  0.583819  2.480261
H    -3.987409  0.077679  1.099603
H    -2.462017  0.908490  0.822224
O    2.097969  -1.628049  1.780999
H    1.392925  -2.305072  1.908085
Ca    4.064512  1.620138  1.158944
