23
Energy: -30563.9284838 eV PBE+vdW (tier 2 basis)
N    -0.888024  0.789691  3.823898
C    0.032355  -0.420057  3.828921
C    1.381366  0.011631  3.264790
O    1.615095  1.257886  3.040669
H    -1.472474  0.834758  4.668185
H    -1.518629  0.736885  3.006859
H    0.226760  -0.663511  4.885705
C    -0.644687  -1.645787  3.164414
C    -1.195588  -1.364148  1.752425
C    -1.731630  -2.208535  4.091675
C    -0.197139  -0.876235  0.701586
H    0.163582  -2.389144  3.081188
H    -2.065390  -0.678679  1.800950
H    -1.645076  -2.306439  1.408754
H    -2.577019  -1.514654  4.221458
H    -1.336638  -2.462635  5.084142
H    -2.150648  -3.126142  3.662398
H    -0.673128  -0.831802  -0.285222
H    0.659391  -1.559429  0.620591
H    0.178736  0.140875  0.901529
O    2.291156  -0.860162  3.085648
H    -0.324539  1.653913  3.744501
Ca    3.684167  0.691720  2.441937
