23
Energy: -30563.9272522 eV PBE+vdW (tier 2 basis)
N    -0.521710  0.461424  -0.001318
C    -0.240013  0.079095  1.442716
C    1.272191  0.027636  1.630196
O    1.750588  -0.364084  2.742632
H    -1.310622  1.115276  -0.082018
H    -0.760153  -0.387716  -0.539998
H    -0.578727  0.923485  2.064094
C    -1.040094  -1.181824  1.858130
C    -0.849350  -2.381568  0.909006
C    -2.524525  -0.826668  2.026094
C    0.579095  -2.891399  0.711711
H    -0.630284  -1.449363  2.844682
H    -1.323660  -2.182988  -0.073035
H    -1.465901  -3.193816  1.319125
H    -2.674740  -0.008355  2.742581
H    -3.076332  -1.695809  2.402920
H    -3.002296  -0.546924  1.074018
H    1.218808  -2.183105  0.159539
H    0.576108  -3.815731  0.121829
H    1.055528  -3.120238  1.674845
O    2.050445  0.444467  0.692861
H    0.324971  0.884875  -0.419210
Ca    3.777425  0.034584  2.038215
