23
Energy: -30563.244578 eV PBE+vdW (tier 2 basis)
N    -0.255316  0.119620  -0.018125
C    -0.332126  0.053503  1.487612
C    0.923265  0.716392  2.046597
O    1.688155  1.374166  1.295338
H    -1.212149  0.219878  -0.375115
H    0.026570  -0.818817  -0.336885
H    -1.161551  0.712380  1.800311
C    -0.631781  -1.377198  2.027137
C    -1.002832  -1.372939  3.532527
C    0.489575  -2.369777  1.696583
C    -1.855345  -2.578432  3.948206
H    -1.546747  -1.679765  1.489512
H    -1.555800  -0.452309  3.787024
H    -0.085504  -1.408137  4.158174
H    0.687931  -2.471285  0.617640
H    0.213122  -3.375709  2.032425
H    1.435532  -2.110808  2.195021
H    -2.082396  -2.530908  5.019304
H    -1.341046  -3.529306  3.764162
H    -2.808539  -2.587602  3.404073
O    1.207904  0.662386  3.307222
H    0.580013  0.079046  3.805487
Ca    1.408919  1.739084  -0.769303
