23
Energy: -30563.225803 eV PBE+vdW (tier 2 basis)
N    0.683190  -0.521846  0.013892
C    0.172844  -0.134231  1.384839
C    1.382969  0.278235  2.221383
O    2.523077  0.358113  1.689654
H    -0.015778  -0.218175  -0.673251
H    0.635920  -1.549114  -0.036790
H    -0.429772  0.781941  1.260611
C    -0.737644  -1.247861  2.007252
C    -1.877495  -0.715597  2.909164
C    0.075792  -2.390882  2.631765
C    -1.519344  -0.001001  4.215453
H    -1.264278  -1.655804  1.127401
H    -2.493409  -1.592369  3.154957
H    -2.526590  -0.060968  2.308523
H    0.581465  -2.104717  3.563507
H    0.844006  -2.790288  1.950488
H    -0.587209  -3.230626  2.871212
H    -0.823922  -0.568618  4.855111
H    -2.417434  0.136641  4.831405
H    -1.169147  1.039736  4.061753
O    1.281949  0.583150  3.469472
H    0.354091  0.496283  3.832258
Ca    2.996482  0.160165  -0.352427
