23
Energy: -30563.8989973 eV PBE+vdW (tier 2 basis)
N    0.119774  1.093862  3.151424
C    0.503523  -0.376178  3.220226
C    1.592550  -0.650994  2.195598
O    1.982281  0.274487  1.394409
H    0.859235  1.713287  3.509497
H    -0.073801  1.381370  2.181427
H    0.949406  -0.530994  4.214364
C    -0.754258  -1.283446  3.112987
C    -1.552327  -1.146761  1.799361
C    -1.652896  -1.063773  4.339564
C    -0.859005  -1.592432  0.508122
H    -0.343104  -2.303964  3.168878
H    -1.943373  -0.120006  1.685224
H    -2.454968  -1.759308  1.933544
H    -2.451610  -1.814857  4.351435
H    -2.170742  -0.089097  4.326991
H    -1.103682  -1.155846  5.285914
H    -0.068416  -0.895367  0.185391
H    -1.581696  -1.625685  -0.315949
H    -0.434244  -2.600644  0.610878
O    2.107904  -1.815354  2.151127
H    -0.731773  1.246239  3.715210
Ca    3.290221  -1.235539  0.414379
