23
Energy: -30563.2081818 eV PBE+vdW (tier 2 basis)
N    0.174972  0.603642  0.399532
C    -0.155337  0.328294  1.841129
C    1.121133  0.518259  2.635736
O    2.234867  0.327395  2.083651
H    -0.012029  1.594857  0.202681
H    -0.528518  0.101375  -0.159618
H    -0.929695  1.026714  2.196058
C    -0.698164  -1.133285  2.007206
C    -1.977665  -1.341315  1.157606
C    -0.918778  -1.502815  3.480494
C    -3.172016  -0.450304  1.497337
H    0.084462  -1.806672  1.604568
H    -2.253204  -2.398184  1.290044
H    -1.751819  -1.269144  0.076951
H    0.016507  -1.586880  4.048422
H    -1.406427  -2.483143  3.540054
H    -1.584210  -0.792663  3.992655
H    -3.489643  -0.562229  2.541073
H    -4.030053  -0.725033  0.872492
H    -2.983416  0.618186  1.311732
O    1.125280  0.842670  3.894028
H    0.230990  0.969490  4.273672
Ca    2.514288  0.058724  -0.004284
