23
Energy: -30563.2191475 eV PBE+vdW (tier 2 basis)
N    0.892630  -0.022830  0.388648
C    0.080805  0.228734  1.634627
C    1.012896  0.816417  2.688112
O    2.174134  1.186358  2.385388
H    0.281224  0.138790  -0.419248
H    1.068412  -1.038350  0.359870
H    -0.634601  1.037498  1.401736
C    -0.724377  -1.009943  2.119783
C    0.209213  -2.177815  2.503727
C    -1.804222  -1.385036  1.096321
C    -0.496344  -3.321558  3.237901
H    -1.260147  -0.687208  3.034153
H    1.031619  -1.804482  3.140379
H    0.683324  -2.594142  1.594496
H    -2.438638  -0.527720  0.833897
H    -2.463026  -2.157314  1.507407
H    -1.374789  -1.799400  0.172135
H    0.229735  -4.085111  3.539468
H    -1.245594  -3.815698  2.608422
H    -0.996715  -2.962405  4.147306
O    0.625799  1.000362  3.913497
H    -0.277871  0.660133  4.087926
Ca    3.030273  1.142867  0.445840
