23
Energy: -30563.3930922 eV PBE+vdW (tier 2 basis)
N    0.957918  -0.586198  0.223934
C    0.353728  -0.226872  1.548855
C    1.480367  -0.256376  2.573753
O    2.441898  -1.042440  2.412828
H    0.192359  -0.746808  -0.441690
H    1.452456  0.232441  -0.152110
H    -0.101995  0.773101  1.513313
C    -0.759947  -1.261531  1.928339
C    -1.426354  -0.968822  3.288848
C    -0.277565  -2.721493  1.853843
C    -2.023973  0.432241  3.441339
H    -1.529554  -1.124086  1.148731
H    -0.723915  -1.187214  4.110304
H    -2.236188  -1.703226  3.405385
H    0.515591  -2.953826  2.590887
H    -0.006010  -3.040994  0.824382
H    -1.096562  -3.406475  2.111206
H    -1.281074  1.249879  3.456774
H    -2.570879  0.507325  4.388120
H    -2.730608  0.665834  2.633457
O    1.452959  0.470147  3.651216
H    0.662775  1.050563  3.710393
Ca    2.434398  -2.441243  0.772155
