23
Energy: -30563.9154017 eV PBE+vdW (tier 2 basis)
N    0.445106  -0.196491  0.088350
C    -0.034175  0.161446  1.487260
C    1.146608  0.688889  2.287092
O    2.337180  0.630389  1.808002
H    1.363334  -0.663893  0.129475
H    -0.238405  -0.836349  -0.347905
H    -0.763835  0.976013  1.373699
C    -0.733196  -1.054146  2.157048
C    0.242864  -2.217853  2.424612
C    -1.970632  -1.461071  1.345312
C    -0.361899  -3.347420  3.262621
H    -1.075528  -0.656090  3.125902
H    1.136273  -1.831869  2.946575
H    0.605648  -2.641475  1.470532
H    -2.622091  -0.606540  1.118729
H    -2.571876  -2.179380  1.913361
H    -1.718807  -1.976089  0.401607
H    -1.172184  -3.863575  2.734348
H    -0.761964  -2.969311  4.212965
H    0.400258  -4.100047  3.495200
O    0.934092  1.179721  3.444421
H    0.547279  0.626730  -0.519846
Ca    3.064952  1.578408  3.690641
