23
Energy: -30563.8724188 eV PBE+vdW (tier 2 basis)
N    0.733205  -1.517803  0.262331
C    0.181622  -0.467019  1.212207
C    1.342743  0.057163  2.045337
O    2.333595  -0.719961  2.308560
H    1.370105  -2.147960  0.774770
H    -0.058482  -2.065198  -0.126892
H    -0.217996  0.356649  0.605185
C    -0.956237  -1.110532  2.068485
C    -2.262767  -1.266811  1.255221
C    -1.231217  -0.319749  3.353267
C    -2.211007  -2.060352  -0.054967
H    -0.591866  -2.113677  2.359835
H    -2.679684  -0.265933  1.063502
H    -2.974865  -1.761237  1.930637
H    -0.382822  -0.337890  4.051028
H    -2.078941  -0.774408  3.878558
H    -1.491019  0.726360  3.145554
H    -1.728640  -1.515990  -0.885654
H    -3.227887  -2.256185  -0.417237
H    -1.752713  -3.058072  0.067377
O    1.311889  1.246329  2.502111
H    1.256885  -1.111850  -0.525205
Ca    3.191098  0.906127  3.561988
