23
Energy: -30563.3960855 eV PBE+vdW (tier 2 basis)
N    -0.314714  0.161079  0.112197
C    -0.074719  -0.097891  1.566695
C    1.384015  -0.510475  1.715977
O    1.960776  -1.102309  0.777932
H    0.089691  1.070441  -0.142070
H    -1.325289  0.283531  -0.023649
H    -0.275017  0.802967  2.167894
C    -1.017197  -1.242854  2.081723
C    -0.909827  -2.546746  1.249374
C    -2.460048  -0.724634  2.176015
C    -1.683093  -3.740256  1.827022
H    -0.676121  -1.484507  3.101677
H    0.154980  -2.868208  1.188416
H    -1.319799  -2.365390  0.224729
H    -2.512380  0.212272  2.744406
H    -3.094045  -1.450656  2.696631
H    -2.919608  -0.556338  1.189640
H    -1.496254  -4.648932  1.243219
H    -2.763355  -3.559537  1.822104
H    -1.368222  -3.935977  2.859864
O    2.041646  -0.328650  2.825934
H    1.553753  0.179751  3.506042
Ca    0.788353  -1.735283  -0.934470
