23
Energy: -30563.4204857 eV PBE+vdW (tier 2 basis)
N    0.553362  0.023260  0.309031
C    -0.033728  0.083249  1.683468
C    1.134132  0.218053  2.654465
O    2.233221  -0.303780  2.373267
H    0.874459  0.960416  0.037185
H    -0.203352  -0.188025  -0.350821
H    -0.714582  0.943288  1.787850
C    -0.849464  -1.216258  2.014607
C    -0.040058  -2.539232  1.909378
C    -2.158829  -1.252922  1.214084
C    0.120196  -3.210257  0.525742
H    -1.121509  -1.116204  3.077354
H    -0.551150  -3.281740  2.539226
H    0.926147  -2.439818  2.452093
H    -2.009790  -1.316105  0.126231
H    -2.771148  -0.365703  1.416867
H    -2.751394  -2.129928  1.504715
H    0.785250  -4.088219  0.574331
H    0.423962  -2.556253  -0.320447
H    -0.840878  -3.600558  0.167328
O    1.005731  0.803165  3.812396
H    0.137148  1.232658  3.953240
Ca    2.363442  -1.592691  0.615661
