23
Energy: -30563.8591754 eV PBE+vdW (tier 2 basis)
N    0.101790  0.147505  0.268560
C    -0.297125  -0.024881  1.727962
C    0.851292  0.461212  2.595918
O    0.672318  0.592361  3.851586
H    0.305559  1.126292  0.022339
H    -0.657125  -0.186372  -0.343507
H    -1.166290  0.627479  1.896423
C    -0.711066  -1.504483  1.985366
C    -1.540648  -1.657603  3.276571
C    0.482441  -2.464557  1.942447
C    -2.798158  -0.793186  3.355462
H    -1.392637  -1.745411  1.147520
H    -0.899097  -1.483551  4.153047
H    -1.824228  -2.719143  3.322877
H    1.153278  -2.316007  2.801218
H    1.084210  -2.397989  1.022499
H    0.125279  -3.499800  1.995479
H    -2.577931  0.277967  3.478372
H    -3.398895  -1.080933  4.226198
H    -3.438826  -0.916909  2.470751
O    1.994141  0.723054  2.068390
H    0.948059  -0.401621  0.055284
Ca    2.744660  1.237575  4.099239
