20
Energy:  -29492.7486816  eV PBE+vdW (tier 2 basis)
N    -0.048093  0.096771  -0.115095
C    -0.195496  0.061199  1.337426
C    1.269169  0.302818  1.664956
O    1.780579  1.474950  1.742669
H    -0.710393  0.698812  -0.596516
H    -0.006908  -0.821346  -0.554152
H    -0.759097  0.943634  1.671909
C    -0.797117  -1.204756  1.974307
C    -0.760413  -1.115423  3.506231
C    -2.222157  -1.432340  1.453916
H    -0.192790  -2.080513  1.646766
H    -1.130751  -2.046627  3.950709
H    -1.408172  -0.303191  3.864592
H    0.248497  -0.948484  3.914307
H    -2.883503  -0.606864  1.753019
H    -2.631779  -2.354987  1.881541
H    -2.265617  -1.531281  0.362329
O    2.117731  -0.678874  1.785667
H    1.651380  -1.546215  1.794653
Ca    3.044902  3.048211  1.723922
