20
Energy:  -29494.4599234  eV PBE+vdW (tier 2 basis)
N    0.238491  -0.487137  -0.289890
C    -0.129555  0.514686  0.794675
C    1.162697  1.030442  1.419525
O    2.299409  0.690176  0.924794
H    1.190444  -0.297434  -0.644065
H    -0.431546  -0.466512  -1.069680
H    -0.595672  1.372649  0.285055
C    -1.135278  -0.093125  1.801419
C    -2.474059  -0.399362  1.116647
C    -0.558670  -1.311422  2.533486
H    -1.296835  0.711980  2.534346
H    -2.891309  0.480085  0.608135
H    -3.206382  -0.720091  1.867006
H    -2.401793  -1.224130  0.390255
H    -1.265518  -1.645288  3.302298
H    0.392158  -1.098325  3.042024
H    -0.412317  -2.186403  1.877090
O    1.099039  1.827833  2.410051
H    0.235716  -1.442406  0.102130
Ca    3.275980  2.023786  2.428695
