20
Energy:  -29493.7470728  eV PBE+vdW (tier 2 basis)
N    1.023724  -1.901231  0.961990
C    0.266758  -0.632387  1.260450
C    1.170128  0.262258  2.102418
O    2.381234  -0.023471  2.268660
H    0.640564  -2.623864  1.589264
H    0.742559  -2.219867  0.028152
H    0.137697  -0.094544  0.304501
C    -1.143400  -0.870748  1.875396
C    -2.061857  -1.586252  0.876268
C    -1.072223  -1.585904  3.230831
H    -1.578844  0.133936  2.034102
H    -2.125128  -1.056755  -0.083815
H    -3.077010  -1.644835  1.286423
H    -1.744320  -2.622006  0.685657
H    -0.726114  -2.628602  3.140936
H    -2.075680  -1.650062  3.668262
H    -0.435093  -1.069230  3.963309
O    0.735146  1.361562  2.637982
H    -0.223702  1.512336  2.495124
Ca    3.411560  -1.665333  1.406090
