20
Energy:  -29494.3889268  eV PBE+vdW (tier 2 basis)
N    1.376397  -1.291582  0.267197
C    0.703737  -0.398717  1.303193
C    1.764317  -0.011585  2.330977
O    1.455042  0.737982  3.312045
H    0.966210  -1.161692  -0.667297
H    1.258418  -2.283075  0.528787
H    0.408056  0.524612  0.781826
C    -0.563569  -1.106582  1.859900
C    -0.215915  -2.314142  2.738694
C    -1.503705  -0.119175  2.560656
H    -1.090835  -1.466381  0.957596
H    -1.130697  -2.864711  2.987482
H    0.241287  -2.004031  3.689077
H    0.454952  -3.048430  2.261610
H    -1.074693  0.270586  3.490975
H    -2.437449  -0.634946  2.814547
H    -1.762011  0.730172  1.914867
O    2.974547  -0.422918  2.182774
H    2.392240  -1.105222  0.229301
Ca    3.524985  0.727616  4.015494
