20
Energy:  -29493.8802694  eV PBE+vdW (tier 2 basis)
N    1.063156  -1.617946  0.588921
C    0.239798  -0.477839  1.101955
C    1.177304  0.446348  1.867459
O    2.179427  -0.030820  2.444942
H    0.419647  -2.333887  0.230105
H    1.587379  -1.310194  -0.239307
H    -0.243559  0.066625  0.275702
C    -0.881762  -1.003367  2.064285
C    -1.981842  -1.720069  1.267861
C    -0.341714  -1.894546  3.198302
H    -1.329054  -0.111790  2.531568
H    -2.395679  -1.077232  0.481237
H    -2.807038  -1.993657  1.936942
H    -1.634816  -2.655368  0.801849
H    0.028252  -2.873356  2.824097
H    -1.156325  -2.179934  3.877227
H    0.388961  -1.386218  3.857175
O    0.934687  1.717519  2.008187
H    0.162467  2.042090  1.500415
Ca    2.485710  -2.170363  2.486075
