20
Energy:  -29493.7041453  eV PBE+vdW (tier 2 basis)
N    0.676006  -1.194794  0.580194
C    0.450595  -0.641447  1.967415
C    1.750890  -0.829935  2.748521
O    2.785280  -1.253133  2.171398
H    0.177113  -0.590085  -0.081606
H    0.155934  -2.081599  0.525536
H    0.339155  0.454055  1.869006
C    -0.856876  -1.187063  2.629527
C    -1.075171  -0.669600  4.063762
C    -2.067983  -0.822459  1.755616
H    -0.761036  -2.286957  2.673426
H    -0.457470  -1.178331  4.821541
H    -2.104700  -0.887834  4.374295
H    -0.971839  0.425607  4.139292
H    -2.016810  -1.220950  0.733277
H    -2.203911  0.267168  1.696917
H    -2.977515  -1.243385  2.200163
O    1.852646  -0.504551  3.996662
H    0.981942  -0.252162  4.389866
Ca    3.034750  -1.630543  0.109195
