20
Energy:  -29494.3966760  eV PBE+vdW (tier 2 basis)
N    0.218133  -0.043477  0.109296
C    -0.414410  0.167784  1.475088
C    0.708619  0.524339  2.441102
O    0.451532  1.139176  3.525937
H    0.375510  0.836329  -0.400068
H    -0.402953  -0.641874  -0.460668
H    -1.109909  1.014288  1.391757
C    -1.203012  -1.113322  1.901780
C    -1.991319  -0.856751  3.192714
C    -2.149576  -1.561812  0.775599
H    -0.462345  -1.911786  2.082797
H    -2.513984  -1.776374  3.480278
H    -2.749843  -0.075416  3.047486
H    -1.357685  -0.561639  4.036053
H    -2.849087  -0.765547  0.483322
H    -2.751509  -2.406179  1.133293
H    -1.644794  -1.949124  -0.126064
O    1.913830  0.166298  2.164267
H    1.132984  -0.511266  0.221405
Ca    2.556334  1.037468  4.113810
