20
Energy:  -29494.0574863  eV PBE+vdW (tier 2 basis)
N    1.018094  -2.122405  0.625922
C    0.140818  -0.939117  0.915030
C    0.827222  -0.146562  2.012599
O    1.476647  -0.729316  2.915121
H    1.825091  -1.815459  0.068345
H    0.504307  -2.752471  -0.001954
H    0.014979  -0.298098  0.031597
C    -1.277318  -1.423191  1.373760
C    -1.240512  -2.473369  2.500380
C    -2.203579  -0.255931  1.731129
H    -1.689866  -1.919410  0.478957
H    -0.771976  -3.434955  2.195947
H    -2.262052  -2.777533  2.766121
H    -0.826940  -2.077276  3.450506
H    -2.207291  0.510424  0.946129
H    -1.925800  0.225928  2.678917
H    -3.232632  -0.618763  1.838864
O    0.661084  1.140766  1.962616
H    1.086836  1.602435  2.720987
Ca    1.561884  -2.912697  2.851030
