20
Energy:  -29493.7306106  eV PBE+vdW (tier 2 basis)
N    0.897422  -0.739051  0.383147
C    0.267678  -0.245575  1.657660
C    1.386134  -0.108174  2.676209
O    2.393179  -0.855643  2.596802
H    0.147563  -1.185906  -0.161064
H    1.165371  0.072637  -0.187933
H    -0.218727  0.729563  1.493656
C    -0.817750  -1.258707  2.160335
C    -1.361707  -0.886425  3.545591
C    -1.958889  -1.360404  1.137826
H    -0.315526  -2.243606  2.241482
H    -2.164133  -1.581651  3.818980
H    -1.809162  0.119330  3.546256
H    -0.610782  -0.948657  4.343706
H    -2.482123  -0.400869  1.027299
H    -2.690989  -2.098370  1.488215
H    -1.653386  -1.699149  0.135564
O    1.340135  0.734537  3.663253
H    0.528463  1.283300  3.681554
Ca    2.849535  -2.096213  0.930767
