20
Energy:  -29493.8911429  eV PBE+vdW (tier 2 basis)
N    1.026196  -0.604316  0.255206
C    0.399436  -0.137160  1.534329
C    1.525814  -0.006363  2.553434
O    2.501910  -0.787273  2.491788
H    1.494205  0.188974  -0.200742
H    0.272809  -0.860759  -0.394239
H    -0.108277  0.830023  1.397428
C    -0.665749  -1.178474  2.022320
C    -0.129758  -2.619864  2.094163
C    -1.322815  -0.759654  3.342481
H    -1.441603  -1.153632  1.238528
H    -0.925746  -3.302826  2.420317
H    0.667803  -2.748671  2.851556
H    0.154184  -3.031273  1.101430
H    -0.641535  -0.844512  4.200917
H    -2.183944  -1.405575  3.551671
H    -1.708740  0.268151  3.294592
O    1.488405  0.852623  3.529306
H    0.708003  1.444244  3.513236
Ca    2.567968  -2.343998  0.997884
