20
Energy:  -29493.8649912  eV PBE+vdW (tier 2 basis)
N    1.481509  -1.159164  0.715113
C    0.320996  -0.620923  1.506947
C    0.852056  -0.283838  2.881602
O    1.758592  -0.983192  3.408509
H    2.005287  -0.373493  0.308075
H    1.083002  -1.642616  -0.100607
H    -0.102310  0.281401  1.042685
C    -0.795206  -1.715521  1.608760
C    -1.881289  -1.357225  2.628882
C    -1.403505  -1.978396  0.224520
H    -0.289127  -2.644459  1.959234
H    -2.668444  -2.119564  2.604899
H    -2.350432  -0.393464  2.388852
H    -1.510143  -1.312550  3.660962
H    -2.132415  -2.794923  0.296991
H    -0.681222  -2.285393  -0.547891
H    -1.935094  -1.090733  -0.143701
O    0.301808  0.730484  3.473603
H    0.645313  0.866236  4.386213
Ca    2.795627  -2.480667  2.252351
