20
Energy:  -29494.0658539  eV PBE+vdW (tier 2 basis)
N    0.781103  -1.253178  0.584883
C    0.168586  -0.521352  1.740263
C    1.100311  -0.688212  2.924681
O    1.803371  -1.719691  3.055943
H    1.540698  -0.684865  0.190359
H    0.080620  -1.293177  -0.165660
H    0.045538  0.549997  1.527927
C    -1.239124  -1.118740  2.082447
C    -2.265177  -0.722982  1.011192
C    -1.218823  -2.644172  2.296860
H    -1.542374  -0.651201  3.031695
H    -3.264772  -1.062908  1.309275
H    -2.060689  -1.177619  0.029126
H    -2.311746  0.365361  0.884117
H    -2.212139  -2.999886  2.601766
H    -0.557054  -2.973661  3.123264
H    -1.033631  -3.202153  1.352799
O    1.065594  0.277202  3.793917
H    1.643820  0.104130  4.571486
Ca    1.499886  -3.323894  1.599662
