30
Energy: -609299.922624 eV PBE+vdW (tier 2 basis)
C    -0.080931  -1.264284  0.918868
C    -0.163097  -0.760639  2.316308
O    0.326815  -1.502793  3.266256
H    -0.663187  -2.190911  0.818685
H    0.965079  -1.533757  0.713234
H    -0.416184  -0.536175  0.175138
N    -0.686823  0.400339  2.641669
C    -1.516591  1.344621  1.903653
C    -1.500007  2.587012  2.847806
O    -1.183733  2.385757  4.034784
H    -0.592709  0.796508  3.608662
H    -1.080547  1.576956  0.923784
C    -2.957016  0.805314  1.725145
C    -3.684695  0.420922  3.050728
C    -3.586960  -1.037598  3.431154
O    -2.652724  -1.496951  4.170888
N    -4.517877  -1.866195  2.981177
H    -2.939189  -0.047243  1.031253
H    -3.549129  1.583124  1.226619
H    -4.748504  0.669280  2.944190
H    -3.304521  1.015319  3.892434
H    -4.501875  -2.853259  3.228331
H    -5.307455  -1.533179  2.435562
N    -1.863657  3.781572  2.374299
C    -2.226727  4.171768  1.013675
H    -1.862032  4.516967  3.080572
H    -1.793172  5.154523  0.799449
H    -3.316572  4.238720  0.894553
H    -1.825453  3.466721  0.278946
Pb    -0.694953  -1.976348  5.165511
