30
Energy: -609300.122904 eV PBE+vdW (tier 2 basis)
C    -1.069365  0.766462  0.049893
C    -0.757968  0.634207  1.502848
O    0.482915  0.727257  1.858187
H    -0.787407  1.774395  -0.287065
H    -2.127645  0.598281  -0.171917
H    -0.450578  0.058834  -0.518095
N    -1.757257  0.436538  2.343409
C    -1.786325  0.084461  3.775826
C    -1.093234  1.086806  4.702493
O    0.179732  1.144649  4.848402
H    -2.676854  0.093946  1.952360
H    -2.858201  0.151648  4.003769
C    -1.378288  -1.382001  4.040786
C    -2.009608  -2.403837  3.063415
C    -3.482709  -2.168431  2.715639
O    -3.867098  -1.085685  2.226868
N    -4.332557  -3.180575  2.931491
H    -1.667489  -1.618617  5.074811
H    -0.285692  -1.498796  3.992878
H    -1.853314  -3.407438  3.477746
H    -1.469930  -2.384260  2.104559
H    -4.036405  -4.076925  3.298780
H    -5.304197  -3.076635  2.650260
N    -1.874015  1.868777  5.423115
C    -1.429098  2.859068  6.405874
H    -2.878773  1.782434  5.280614
H    -2.079152  2.796757  7.285159
H    -1.502859  3.867646  5.978560
H    -0.396274  2.651278  6.693757
Pb    1.928030  0.916850  3.482897
