30
Energy: -609300.107707 eV PBE+vdW (tier 2 basis)
C    -0.224680  -0.192956  0.110443
C    -0.769163  -0.616670  1.439994
O    -0.456116  -1.678750  1.995415
H    -0.377597  -1.001646  -0.614557
H    0.861112  -0.056474  0.209986
H    -0.664935  0.733705  -0.273583
N    -1.653963  0.240060  2.061538
C    -2.061258  -0.007288  3.441506
C    -3.186679  -1.073072  3.453389
O    -4.429951  -0.782577  3.666997
H    -1.953605  1.087241  1.589472
H    -1.194882  -0.497510  3.916991
C    -2.361285  1.302014  4.183139
C    -1.987641  1.337005  5.673251
C    -2.817058  0.525580  6.637991
O    -4.084888  0.415814  6.523205
N    -2.221760  -0.025747  7.681560
H    -3.403157  1.633599  4.019006
H    -1.758678  2.088420  3.708334
H    -2.082298  2.378617  6.027113
H    -0.926275  1.080275  5.795513
H    -1.222225  0.066865  7.840036
H    -2.772687  -0.493202  8.399749
N    -2.803726  -2.286528  3.147519
C    -3.658144  -3.455821  2.972764
H    -1.795637  -2.335536  2.844375
H    -3.593818  -3.794490  1.930934
H    -4.695191  -3.213839  3.214720
H    -3.298637  -4.263907  3.621107
Pb    -5.726176  0.370816  5.000096
