30
Energy: -609300.061439 eV PBE+vdW (tier 2 basis)
C    2.540702  -0.092670  2.829342
C    1.365673  0.366470  3.638072
O    1.354325  0.339890  4.877001
H    3.366204  0.615293  2.991307
H    2.340655  -0.159755  1.754173
H    2.877256  -1.066200  3.204126
N    0.268313  0.829471  2.946011
C    -0.791560  1.614828  3.583765
C    -1.750433  0.755284  4.446335
O    -3.041584  0.842547  4.339105
H    0.337074  0.856073  1.934697
H    -0.304144  2.290386  4.311013
C    -1.520579  2.496231  2.566016
C    -2.192093  1.743961  1.382762
C    -3.498941  2.373191  0.977955
O    -4.494243  2.412289  1.783782
N    -3.638655  2.898569  -0.224385
H    -0.801802  3.225320  2.170029
H    -2.262831  3.094473  3.111185
H    -2.429383  0.705735  1.662040
H    -1.520230  1.688634  0.517528
H    -2.883899  2.896020  -0.904461
H    -4.526072  3.316356  -0.502049
N    -1.204056  -0.025162  5.335860
C    -1.923603  -0.884396  6.271393
H    -0.138663  0.039307  5.357174
H    -2.634936  -1.526683  5.738892
H    -2.466098  -0.279122  7.009856
H    -1.192928  -1.508273  6.792215
Pb    -5.013261  1.629571  3.838029
