30
Energy: -609299.955597 eV PBE+vdW (tier 2 basis)
C    0.297278  0.708427  0.377145
C    0.500235  0.179445  1.752770
O    1.701607  0.195093  2.248576
H    0.673229  1.742038  0.351561
H    -0.749713  0.703840  0.062091
H    0.906189  0.142915  -0.341613
N    -0.480614  -0.280132  2.500506
C    -1.820384  -0.749944  2.167593
C    -2.410293  -1.065048  3.576169
O    -1.609889  -1.335148  4.485872
H    -0.304365  -0.554701  3.490880
H    -2.403799  0.034682  1.668060
C    -1.790601  -2.036449  1.277958
C    -0.492980  -2.884189  1.298652
C    0.030799  -3.350931  2.640417
O    1.130903  -2.911761  3.126256
N    -0.641199  -4.265587  3.313910
H    -1.944814  -1.750174  0.229523
H    -2.656099  -2.657087  1.547255
H    0.325565  -2.347746  0.804962
H    -0.681227  -3.775634  0.680935
H    -1.495716  -4.677300  2.951287
H    -0.315442  -4.577821  4.226423
N    -3.741286  -1.059563  3.684432
C    -4.460682  -1.360379  4.923781
H    -4.291401  -0.760675  2.884087
H    -5.046937  -0.487885  5.235229
H    -3.730970  -1.601192  5.700811
H    -5.135957  -2.210865  4.772525
Pb    2.809748  -1.417175  3.287068
