30
Energy: -609300.745809 eV PBE+vdW (tier 2 basis)
C    -1.460923  -2.555889  0.452408
C    -1.229656  -1.554793  1.532773
O    -0.092333  -1.009937  1.657054
H    -2.492710  -2.920656  0.414716
H    -0.779999  -3.405456  0.600947
H    -1.196933  -2.104546  -0.513559
N    -2.254813  -1.240717  2.358901
C    -2.080560  -0.229042  3.389460
C    -1.476079  -0.810845  4.676345
O    -0.216984  -0.692682  4.835729
H    -3.146536  -1.711420  2.225760
H    -1.254245  0.355516  2.996147
C    -3.187823  0.834127  3.526119
C    -2.779021  2.114158  2.753402
C    -1.483123  2.768571  3.224629
O    -0.354576  2.181759  3.207516
N    -1.552536  4.025540  3.645383
H    -3.349275  1.076822  4.585164
H    -4.151171  0.478265  3.136320
H    -3.597666  2.842082  2.802143
H    -2.641674  1.872168  1.687404
H    -2.424458  4.545187  3.651980
H    -0.705527  4.516736  3.923926
N    -2.240555  -1.418297  5.566287
C    -1.771424  -2.038154  6.810113
H    -3.239695  -1.462927  5.378340
H    -1.997144  -3.111057  6.792532
H    -2.282479  -1.576350  7.662895
H    -0.693451  -1.888958  6.899647
Pb    1.120375  0.300795  3.199518
