30
Energy: -609300.370584 eV PBE+vdW (tier 2 basis)
C    0.987462  0.018063  -0.399024
C    0.315408  0.358215  0.887224
O    -0.141477  1.544047  1.054442
H    0.266352  0.168617  -1.216099
H    1.359313  -1.011092  -0.435376
H    1.816392  0.715694  -0.577714
N    0.181903  -0.587034  1.818295
C    -0.607465  -0.531659  3.067492
C    0.243068  0.138716  4.162232
O    0.456935  1.419986  4.075817
H    0.590170  -1.494610  1.598767
H    -1.457581  0.145490  2.881941
C    -1.141502  -1.953443  3.321549
C    -2.054396  -2.155912  4.552055
C    -1.373642  -3.004391  5.623708
O    -0.153450  -2.869118  5.854779
N    -2.125159  -3.874743  6.301485
H    -0.289239  -2.647121  3.387187
H    -1.699662  -2.229843  2.417464
H    -3.004238  -2.607254  4.242495
H    -2.320411  -1.198075  5.027802
H    -3.107238  -4.022558  6.101318
H    -1.699605  -4.426018  7.042215
N    0.749179  -0.553151  5.138624
C    1.593286  0.026585  6.185684
H    0.431296  -1.582133  5.307236
H    1.754490  -0.739992  6.947799
H    1.110120  0.902376  6.635451
H    2.560854  0.332092  5.767980
Pb    -0.071230  3.055822  2.695739
