30
Energy: -609300.474815 eV PBE+vdW (tier 2 basis)
C    0.786590  0.741179  3.411960
C    0.159762  -0.517407  2.916969
O    0.837628  -1.616514  3.036708
H    1.701226  0.942197  2.836519
H    1.095532  0.599244  4.456661
H    0.113092  1.600064  3.336692
N    -1.054454  -0.467218  2.400263
C    -1.882142  -1.615507  2.017586
C    -1.388178  -2.201911  0.678336
O    -0.468272  -3.096841  0.675884
H    -1.638301  0.458828  2.507866
H    -1.738080  -2.423467  2.756144
C    -3.373779  -1.218828  2.016843
C    -3.891343  -0.568278  3.318089
C    -3.683237  0.944088  3.356214
O    -2.664291  1.472059  2.852515
N    -4.622282  1.680966  3.952176
H    -3.952376  -2.131030  1.821503
H    -3.588066  -0.523598  1.190326
H    -3.394915  -0.996303  4.204165
H    -4.956766  -0.805275  3.430531
H    -5.465662  1.279909  4.345429
H    -4.494234  2.687173  4.022074
N    -1.904999  -1.781737  -0.456062
C    -1.507951  -2.222849  -1.796301
H    -2.641836  -1.081695  -0.400701
H    -2.409178  -2.347218  -2.405620
H    -0.974972  -3.173473  -1.725656
H    -0.861773  -1.467191  -2.261543
Pb    1.168429  -3.583401  2.132308
