30
Energy: -609301.073069 eV PBE+vdW (tier 2 basis)
C    -0.377798  -0.121929  -0.245433
C    -0.159354  -0.095846  1.234129
O    1.021873  -0.164453  1.686487
H    -1.432453  -0.108243  -0.538802
H    0.099233  -1.023461  -0.653895
H    0.134684  0.738010  -0.698060
N    -1.248984  -0.022516  2.018584
C    -1.412646  -0.071756  3.485964
C    -0.850950  1.169089  4.205504
O    0.267268  1.701605  3.946499
H    -2.125986  0.030051  1.507494
H    -2.501666  0.019287  3.603460
C    -1.119500  -1.453094  4.141256
C    0.255882  -2.158095  4.053589
C    1.299683  -1.683367  5.036104
O    2.013261  -0.652674  4.837662
N    1.469487  -2.373617  6.157256
H    -1.838524  -2.140233  3.674402
H    -1.429531  -1.376659  5.194345
H    0.679505  -2.083389  3.045990
H    0.068674  -3.225290  4.232357
H    0.957493  -3.229041  6.347143
H    2.177622  -2.084941  6.829341
N    -1.628438  1.695412  5.143672
C    -1.255529  2.857621  5.956478
H    -2.559232  1.310643  5.279220
H    -1.972452  2.949688  6.776377
H    -1.278009  3.771146  5.349169
H    -0.247859  2.723209  6.363453
Pb    2.308850  0.947325  3.222386
