30
Energy: -609300.683031 eV PBE+vdW (tier 2 basis)
C    -0.657865  2.375509  0.098651
C    -0.729793  1.680639  1.415949
O    -0.926397  2.348260  2.474041
H    0.175829  3.091059  0.116968
H    -1.575016  2.962756  -0.044449
H    -0.528842  1.689883  -0.745367
N    -0.589419  0.333838  1.448881
C    -0.705872  -0.377329  2.711566
C    0.611671  -0.390862  3.501470
O    0.713966  0.443616  4.463655
H    -0.421354  -0.157917  0.574921
H    -1.300276  0.313021  3.302375
C    -1.584929  -1.643662  2.737383
C    -3.015970  -1.283773  3.210439
C    -3.104110  -0.692268  4.613358
O    -2.530781  0.391419  4.951530
N    -3.842963  -1.340365  5.505302
H    -1.144688  -2.390022  3.412539
H    -1.651155  -2.119328  1.749587
H    -3.650296  -2.176009  3.146558
H    -3.454909  -0.541012  2.525327
H    -4.342652  -2.193329  5.274945
H    -3.965781  -0.956617  6.440163
N    1.618578  -1.199371  3.223491
C    1.722544  -2.206872  2.169735
H    2.436772  -1.081478  3.824726
H    1.918584  -3.189622  2.615300
H    2.549939  -1.952158  1.496132
H    0.796833  -2.263873  1.592008
Pb    -0.879650  2.102869  4.827815
