30
Energy: -609300.95969 eV PBE+vdW (tier 2 basis)
C    -2.746267  0.217828  0.886362
C    -1.879357  0.146868  2.103483
O    -0.634087  -0.009450  1.972270
H    -2.551209  -0.658192  0.254254
H    -2.455775  1.100882  0.299603
H    -3.816621  0.274759  1.110076
N    -2.479504  0.250284  3.306067
C    -1.876120  0.238868  4.649993
C    -0.826849  1.362103  4.788443
O    0.406117  1.155211  4.563903
H    -3.489740  0.355188  3.280898
H    -2.711776  0.515290  5.301727
C    -1.323733  -1.126054  5.183157
C    -1.363788  -2.363295  4.259381
C    0.006596  -2.947210  4.001422
O    1.000637  -2.220541  3.689471
N    0.169072  -4.258466  4.096914
H    -1.898232  -1.360935  6.085389
H    -0.296193  -0.961159  5.526680
H    -1.784809  -2.124226  3.271420
H    -2.024474  -3.130999  4.678284
H    -0.585958  -4.877632  4.373811
H    1.077054  -4.674168  3.898450
N    -1.221027  2.562868  5.187895
C    -2.569309  3.016271  5.548739
H    -0.466234  3.245143  5.269787
H    -2.945824  2.485797  6.432577
H    -3.265503  2.901845  4.709397
H    -2.509478  4.080043  5.794336
Pb    1.462390  -0.097919  2.933808
