30
Energy: -609300.374759 eV PBE+vdW (tier 2 basis)
C    0.038385  -0.443282  0.282451
C    0.088119  0.326804  1.557678
O    1.197812  0.935574  1.850558
H    0.803375  -1.231670  0.298992
H    0.298830  0.231890  -0.545072
H    -0.944654  -0.886380  0.098565
N    -0.991232  0.382536  2.314269
C    -1.207432  1.246589  3.479407
C    -0.590729  0.614091  4.742840
O    0.684785  0.541291  4.854033
H    -1.919935  -0.038730  1.906544
H    -0.624244  2.174206  3.338010
C    -2.690651  1.684069  3.554721
C    -3.829637  0.630586  3.555544
C    -4.172515  0.048826  2.185288
O    -3.275636  -0.342839  1.407554
N    -5.464593  -0.058629  1.868115
H    -2.853133  2.367810  2.709886
H    -2.797353  2.312776  4.450526
H    -4.716711  1.100975  3.998743
H    -3.608913  -0.247848  4.185158
H    -6.209543  0.256374  2.478067
H    -5.722577  -0.486250  0.982219
N    -1.355525  0.175644  5.721149
C    -0.885982  -0.429550  6.971090
H    -2.361164  0.259437  5.599219
H    0.161837  -0.167972  7.132756
H    -0.987729  -1.521210  6.918648
H    -1.496833  -0.049880  7.796677
Pb    2.443576  1.217759  3.618362
