30
Energy: -609300.186245 eV PBE+vdW (tier 2 basis)
C    0.792225  1.283999  1.394168
C    -0.174398  0.162863  1.575752
O    0.209470  -0.889100  2.205841
H    0.372153  2.140116  0.856364
H    1.662369  0.902882  0.839147
H    1.165308  1.614286  2.372807
N    -1.395791  0.275569  1.056791
C    -2.470347  -0.725105  0.902958
C    -3.173738  -1.115970  2.208646
O    -2.564854  -1.231270  3.345481
H    -1.580394  1.164290  0.597238
H    -3.235934  -0.192990  0.327855
C    -2.063531  -1.978558  0.063427
C    -2.553559  -1.916795  -1.388801
C    -4.079706  -1.910902  -1.525831
O    -4.828486  -1.580766  -0.585962
N    -4.569153  -2.247666  -2.726122
H    -2.471109  -2.880141  0.541851
H    -0.971948  -2.088353  0.070091
H    -2.134303  -2.768647  -1.942160
H    -2.165639  -1.016153  -1.892726
H    -3.978881  -2.529138  -3.500214
H    -5.573168  -2.212778  -2.878734
N    -4.451361  -1.367153  2.087281
C    -5.351490  -1.808198  3.147394
H    -4.795813  -1.361155  1.095270
H    -6.247470  -1.176767  3.130681
H    -4.862465  -1.728647  4.120544
H    -5.655953  -2.846565  2.961720
Pb    -0.578749  -1.914665  4.010590
