30
Energy: -609300.010822 eV PBE+vdW (tier 2 basis)
C    0.389244  0.021451  0.321027
C    0.175054  -0.194154  1.777090
O    1.220293  -0.259344  2.549419
H    0.959375  -0.816654  -0.103169
H    1.017375  0.915622  0.197178
H    -0.539984  0.156972  -0.239086
N    -1.013778  -0.301241  2.328552
C    -2.340814  -0.519879  1.766327
C    -3.260963  -0.243583  2.997820
O    -2.745442  -0.337628  4.124405
H    -1.134153  -0.300791  3.368578
H    -2.552255  0.183915  0.949635
C    -2.502053  -1.974837  1.262256
C    -2.225696  -3.077910  2.331121
C    -0.828326  -3.648868  2.304567
O    0.135058  -3.146747  2.976809
N    -0.600797  -4.716355  1.553806
H    -1.866038  -2.123123  0.377660
H    -3.535360  -2.094390  0.911649
H    -2.930617  -3.902747  2.166770
H    -2.416707  -2.696711  3.343430
H    0.322482  -5.142932  1.518277
H    -1.348671  -5.175498  1.041995
N    -4.543768  0.025365  2.749585
C    -5.541688  0.271467  3.793207
H    -4.839102  0.134661  1.783602
H    -5.917307  1.298728  3.716735
H    -5.068685  0.129772  4.768015
H    -6.378403  -0.428093  3.683460
Pb    1.593275  -1.824716  4.059533
