30
Energy: -609300.323402 eV PBE+vdW (tier 2 basis)
C    0.840304  -0.514883  0.338696
C    0.579114  -0.260399  1.784421
O    1.530720  -0.430068  2.624167
H    -0.037801  -0.356420  -0.295840
H    1.209177  -1.540599  0.206020
H    1.647612  0.155841  0.009480
N    -0.629700  0.162588  2.159845
C    -1.040024  0.664486  3.485433
C    -1.415468  -0.510102  4.409269
O    -0.460824  -1.307823  4.796701
H    -1.316863  0.260240  1.415175
H    -0.136225  1.098133  3.944770
C    -2.034400  1.833405  3.322067
C    -3.303180  1.636101  2.449683
C    -4.582864  1.565020  3.277121
O    -4.632177  0.849193  4.297763
N    -5.636407  2.272198  2.862742
H    -1.449788  2.658094  2.894550
H    -2.319008  2.165935  4.329344
H    -3.285007  0.693732  1.875326
H    -3.364864  2.438600  1.705366
H    -5.607768  2.876204  2.050075
H    -6.508788  2.210324  3.381690
N    -2.632353  -0.694932  4.819959
C    -3.023130  -1.785159  5.716496
H    -3.432518  -0.001381  4.547696
H    -4.086977  -1.669734  5.938723
H    -2.446409  -1.742350  6.648676
H    -2.851636  -2.757769  5.238908
Pb    1.731253  -1.404473  4.627677
