30
Energy: -609299.923892 eV PBE+vdW (tier 2 basis)
C    -1.483784  -1.154841  0.480818
C    -1.272488  -1.630261  1.888108
O    -0.931435  -2.793549  2.135168
H    -2.027821  -0.206351  0.406791
H    -2.010604  -1.930631  -0.085398
H    -0.496645  -1.027390  0.011819
N    -1.501719  -0.696962  2.883707
C    -0.971316  -0.655484  4.259196
C    -1.225036  -1.883454  5.155800
O    -1.077752  -1.752773  6.440565
H    -1.676481  0.231830  2.510076
H    0.135526  -0.604299  4.219543
C    -1.438008  0.677543  4.889171
C    -2.948794  0.959486  4.951678
C    -3.758670  0.372136  6.085019
O    -3.285374  0.201208  7.258132
N    -5.039812  0.119436  5.872439
H    -0.986116  1.479898  4.288258
H    -0.964090  0.810963  5.872927
H    -3.434178  0.700732  4.000899
H    -3.081477  2.049930  5.063482
H    -5.479246  0.288753  4.972175
H    -5.640671  -0.164427  6.644356
N    -1.439192  -3.054151  4.631994
C    -1.552891  -4.292877  5.399201
H    -1.291057  -3.094887  3.560106
H    -1.763068  -5.106424  4.700307
H    -2.369837  -4.225043  6.127779
H    -0.616252  -4.505814  5.931135
Pb    -1.481869  -0.654724  8.274163
