30
Energy: -609299.983021 eV PBE+vdW (tier 2 basis)
C    -0.299883  -0.928307  1.613692
C    -1.427977  -1.184265  2.549273
O    -1.846060  -2.411460  2.684972
H    0.073311  0.098494  1.651118
H    -0.598597  -1.171715  0.584144
H    0.516799  -1.618131  1.871057
N    -2.009342  -0.241361  3.257473
C    -2.043851  1.205678  3.036015
C    -2.751859  1.740997  4.307502
O    -3.587560  0.995304  4.843579
H    -2.719124  -0.489236  3.968789
H    -1.027188  1.605256  2.930141
C    -2.870512  1.525256  1.760700
C    -4.403673  1.407684  1.863299
C    -5.026588  0.094125  2.283727
O    -4.535994  -1.031275  1.917793
N    -6.152930  0.148007  2.973476
H    -2.494591  0.902597  0.937538
H    -2.659609  2.563449  1.469922
H    -4.815271  1.614204  0.859822
H    -4.803837  2.197464  2.513191
H    -6.526395  1.032772  3.304157
H    -6.674325  -0.691805  3.208848
N    -2.452852  2.985543  4.690681
C    -3.058432  3.651345  5.845049
H    -1.713117  3.478753  4.198963
H    -3.771808  2.965107  6.308345
H    -3.574576  4.565286  5.527748
H    -2.281972  3.912673  6.573533
Pb    -3.851192  -3.167016  2.192253
