30
Energy: -609300.102626 eV PBE+vdW (tier 2 basis)
C    0.540808  -0.640111  0.750885
C    -0.104006  -0.794782  2.086927
O    0.247269  -1.784847  2.850248
H    0.318900  -1.533874  0.149580
H    1.632426  -0.589923  0.860081
H    0.186918  0.245075  0.213183
N    -1.040573  0.048257  2.455425
C    -1.859676  0.088242  3.665735
C    -2.716694  1.380180  3.432549
O    -2.354243  2.153490  2.539426
H    -1.277801  0.886686  1.877445
H    -2.513518  -0.797143  3.690526
C    -1.051409  0.138985  4.982395
C    0.121925  1.138191  4.980197
C    1.345768  0.646235  5.709211
O    1.833036  -0.521222  5.508101
N    1.964241  1.451151  6.553581
H    -0.693007  -0.875986  5.204853
H    -1.740706  0.381594  5.801290
H    -0.191329  2.113195  5.371913
H    0.461399  1.326898  3.947495
H    1.619028  2.385572  6.753668
H    2.822152  1.152756  7.015107
N    -3.769557  1.561635  4.238673
C    -4.670289  2.712663  4.130588
H    -4.043951  0.810447  4.864452
H    -5.601050  2.426031  3.625152
H    -4.172598  3.491813  3.547489
H    -4.903357  3.091029  5.131575
Pb    1.564895  -2.495240  4.443251
