30
Energy: -609300.232347 eV PBE+vdW (tier 2 basis)
C    0.068410  0.779761  0.089713
C    -0.113002  0.265743  1.478244
O    0.875475  0.338781  2.294839
H    0.882457  0.210824  -0.383820
H    0.395795  1.827391  0.122220
H    -0.831324  0.696672  -0.528457
N    -1.285643  -0.269364  1.815076
C    -1.697805  -1.045218  3.004874
C    -1.864517  -0.196090  4.273296
O    -1.012098  0.708315  4.640048
H    -1.983503  -0.251570  1.074549
H    -2.709823  -1.383369  2.752580
C    -0.852902  -2.328042  3.211175
C    -1.429592  -3.327646  4.240002
C    -2.896552  -3.693144  4.013388
O    -3.791863  -2.821673  4.052737
N    -3.184026  -4.977828  3.773594
H    0.176331  -2.080040  3.505795
H    -0.781546  -2.814952  2.228033
H    -1.362792  -2.916820  5.258860
H    -0.791248  -4.220107  4.230212
H    -2.479409  -5.705577  3.763516
H    -4.156612  -5.252569  3.660098
N    -2.922354  -0.470132  4.990074
C    -3.299928  0.162276  6.248824
H    -3.462904  -1.324740  4.658845
H    -4.292886  0.614718  6.133569
H    -2.575345  0.930305  6.527301
H    -3.360592  -0.602754  7.032954
Pb    1.110169  1.197641  4.325979
