30
Energy: -609300.61487 eV PBE+vdW (tier 2 basis)
C    0.195885  0.069167  -0.164416
C    0.242918  -0.279997  1.278693
O    1.314636  -0.706897  1.812194
H    -0.819265  0.225034  -0.540741
H    0.669175  -0.750136  -0.725234
H    0.813561  0.959534  -0.355738
N    -0.854403  -0.155731  2.072104
C    -1.689544  1.042129  2.132925
C    -0.777975  2.286367  2.247181
O    0.365191  2.210363  2.799214
H    -0.719768  -0.604417  2.979562
H    -2.300394  1.119940  1.221245
C    -2.656689  0.952844  3.340586
C    -2.091205  1.181003  4.768258
C    -1.253792  0.067734  5.364503
O    -0.104756  -0.248009  4.909597
N    -1.745174  -0.607395  6.392171
H    -3.178246  -0.013377  3.278881
H    -3.429821  1.717913  3.193003
H    -2.949374  1.370848  5.425228
H    -1.478773  2.095144  4.800725
H    -1.199182  -1.353099  6.820727
H    -2.657755  -0.402850  6.788022
N    -1.248583  3.430139  1.777079
C    -0.567221  4.726565  1.833971
H    -2.156784  3.409477  1.317109
H    -1.216711  5.458280  2.328337
H    -0.349095  5.072332  0.816290
H    0.363937  4.619869  2.393990
Pb    1.765209  0.559228  3.734533
