30
Energy: -609300.741226 eV PBE+vdW (tier 2 basis)
C    -0.174719  3.297838  1.759697
C    -0.260913  1.998114  2.484796
O    0.697964  1.615879  3.218909
H    0.698929  3.280147  1.093898
H    -0.000266  4.100282  2.489471
H    -1.072315  3.526808  1.175711
N    -1.380617  1.247077  2.345257
C    -1.498211  0.015801  3.107918
C    -0.782365  -1.162335  2.422263
O    0.329943  -1.545104  2.920540
H    -2.131651  1.593934  1.754914
H    -0.858121  0.225425  3.962677
C    -2.827290  -0.303807  3.803612
C    -2.572143  -1.269038  4.993152
C    -1.653494  -0.736712  6.085986
O    -0.430913  -0.441838  5.893556
N    -2.165944  -0.593421  7.301776
H    -3.572918  -0.761478  3.142218
H    -3.256805  0.639594  4.170136
H    -2.120177  -2.206552  4.631737
H    -3.539598  -1.546223  5.428386
H    -3.129251  -0.831727  7.514847
H    -1.575892  -0.272652  8.066978
N    -1.256787  -1.777481  1.352595
C    -2.474927  -1.516708  0.586694
H    -0.658591  -2.530253  1.005056
H    -3.152161  -2.377220  0.654218
H    -2.211454  -1.356621  -0.465623
H    -2.991236  -0.628592  0.956816
Pb    1.464692  -0.254183  4.474383
