30
Energy: -609300.036622 eV PBE+vdW (tier 2 basis)
C    0.271985  -0.023767  -0.519869
C    -0.203014  -0.207364  0.881876
O    -0.171455  -1.401820  1.375566
H    0.145630  1.002758  -0.877224
H    -0.267063  -0.718104  -1.178356
H    1.335754  -0.296123  -0.576371
N    -0.623063  0.853799  1.549548
C    -1.299390  0.960611  2.854983
C    -0.492007  0.373821  4.012637
O    -0.559054  -0.869285  4.339008
H    -0.890381  1.721995  1.012927
H    -1.325248  2.043903  3.017410
C    -2.770773  0.498429  2.814928
C    -3.562857  1.025970  1.592933
C    -3.294319  2.482655  1.201911
O    -2.140142  2.881522  0.941511
N    -4.352503  3.299525  1.122645
H    -3.244301  0.835268  3.748288
H    -2.845898  -0.599056  2.814735
H    -4.629601  0.854604  1.782341
H    -3.313484  0.429000  0.702609
H    -5.300130  2.988645  1.300001
H    -4.215284  4.254026  0.800052
N    0.259649  1.172488  4.745095
C    0.484117  2.618448  4.603969
H    0.727208  0.713088  5.529092
H    1.387639  2.870989  5.166378
H    -0.357485  3.184986  5.022959
H    0.642493  2.892050  3.556086
Pb    -0.467261  -2.720151  3.101692
