30
Energy: -609299.817918 eV PBE+vdW (tier 2 basis)
C    -0.043388  0.852442  0.165900
C    -0.077285  0.530351  1.619807
O    1.033654  0.358756  2.247002
H    0.470321  0.039629  -0.367088
H    0.547028  1.764608  0.005400
H    -1.041312  0.986945  -0.264379
N    -1.242148  0.410052  2.246231
C    -1.369558  0.004728  3.649188
C    -2.606375  -0.839952  4.046732
O    -2.393699  -1.678701  4.923268
H    -2.081960  0.566720  1.693946
H    -0.555023  -0.711255  3.814866
C    -1.187760  1.204208  4.612025
C    -1.007961  0.786350  6.077714
C    0.092697  -0.217215  6.302636
O    1.229678  -0.111653  5.707597
N    -0.088195  -1.192611  7.164894
H    -2.051594  1.879480  4.548382
H    -0.326107  1.802647  4.278861
H    -1.942816  0.391650  6.492876
H    -0.748479  1.676325  6.675032
H    -0.996379  -1.352949  7.593117
H    0.656480  -1.857047  7.366403
N    -3.831177  -0.614897  3.523201
C    -4.289743  0.407842  2.588714
H    -4.533500  -1.260429  3.881070
H    -5.367714  0.542955  2.723354
H    -4.136092  0.117226  1.536302
H    -3.827974  1.383458  2.790372
Pb    2.488003  0.319906  3.925662
