30
Energy: -609300.00366 eV PBE+vdW (tier 2 basis)
C    -0.362918  1.218773  0.034563
C    -0.552690  0.433910  1.288758
O    0.285679  0.589449  2.268746
H    -0.331981  2.293152  0.260207
H    -1.145406  1.024170  -0.705525
H    0.611781  0.953540  -0.400356
N    -1.540261  -0.426780  1.370000
C    -1.911084  -1.344539  2.447228
C    -3.204860  -2.008401  1.870988
O    -3.748597  -1.444544  0.912811
H    -2.265948  -0.497921  0.620581
H    -1.112972  -2.090171  2.574831
C    -2.165054  -0.655809  3.809026
C    -3.023889  0.621923  3.733050
C    -2.581862  1.713561  4.673082
O    -1.356876  2.077108  4.765710
N    -3.484438  2.347920  5.398592
H    -1.191046  -0.438660  4.268832
H    -2.639814  -1.380095  4.481968
H    -4.085222  0.392688  3.885316
H    -2.958358  1.068726  2.726370
H    -4.468926  2.098542  5.367005
H    -3.210037  3.123617  5.999467
N    -3.676983  -3.126960  2.438863
C    -3.096096  -3.954682  3.492276
H    -4.537304  -3.463206  2.007996
H    -3.255788  -5.009242  3.242530
H    -3.562755  -3.757902  4.467540
H    -2.015001  -3.797933  3.569072
Pb    0.764476  1.689825  4.096044
