30
Energy: -609300.391851 eV PBE+vdW (tier 2 basis)
C    -0.237316  -0.248571  -0.297543
C    0.323261  0.603537  0.782622
O    1.463330  1.150498  0.658868
H    0.571306  -0.878393  -0.693135
H    -0.566383  0.385079  -1.135959
H    -1.065629  -0.880388  0.036703
N    -0.358954  0.825984  1.937786
C    -1.755559  1.235185  2.001207
C    -1.960571  2.487367  1.113034
O    -0.977390  3.210771  0.747046
H    0.222688  1.305303  2.628008
H    -2.386531  0.432658  1.595296
C    -2.190701  1.479767  3.477573
C    -1.119836  1.922582  4.507670
C    -0.360896  3.210029  4.250309
O    0.553163  3.265326  3.369316
N    -0.634680  4.267579  5.003015
H    -2.598199  0.537087  3.864026
H    -3.021217  2.197364  3.483902
H    -0.362795  1.132482  4.631997
H    -1.631446  1.984806  5.476986
H    -0.095562  5.124952  4.901501
H    -1.309211  4.226586  5.761055
N    -3.178820  2.808166  0.700896
C    -4.460145  2.144892  0.956527
H    -3.215753  3.653351  0.128679
H    -5.046208  2.150100  0.031307
H    -5.022627  2.679924  1.732632
H    -4.316869  1.106671  1.268041
Pb    1.308551  3.444306  1.150635
