30
Energy: -609300.322042 eV PBE+vdW (tier 2 basis)
C    -1.507173  -1.203797  0.429206
C    -1.429718  -0.324754  1.629498
O    -1.508468  0.957560  1.453446
H    -2.435625  -0.986395  -0.116546
H    -1.472289  -2.265778  0.690664
H    -0.677518  -0.965835  -0.251063
N    -1.297856  -0.871796  2.825261
C    -1.334957  -0.110337  4.070630
C    -0.070386  0.761350  4.196825
O    -0.192232  2.035844  4.042105
H    -1.388126  -1.962207  2.976345
H    -2.161951  0.617675  4.007491
C    -1.612913  -1.004717  5.300834
C    -2.816833  -1.960649  5.159210
C    -2.468879  -3.272334  4.461538
O    -1.683390  -3.303557  3.482894
N    -3.036207  -4.387185  4.923273
H    -1.802559  -0.325353  6.142638
H    -0.726774  -1.588318  5.573054
H    -3.638249  -1.491532  4.593075
H    -3.222185  -2.161185  6.158985
H    -3.660821  -4.393373  5.721198
H    -2.852640  -5.270087  4.453390
N    1.132188  0.273451  4.429579
C    1.588268  -1.112413  4.585659
H    1.858538  0.989675  4.495165
H    2.582331  -1.188906  4.132325
H    0.919420  -1.809036  4.074441
H    1.669228  -1.373264  5.648524
Pb    -1.247805  2.979584  2.297090
