30
Energy: -609299.822974 eV PBE+vdW (tier 2 basis)
C    -0.810253  1.180866  0.133042
C    -0.625421  0.522276  1.456076
O    0.565425  0.229988  1.850229
H    -1.862264  1.365040  -0.108643
H    -0.365673  0.546011  -0.646467
H    -0.263570  2.133722  0.117889
N    -1.679964  0.225557  2.203492
C    -1.626945  -0.463511  3.499327
C    -2.998498  -1.153831  3.784602
O    -3.659931  -0.781950  4.747518
H    -2.595144  0.503541  1.851590
H    -0.848097  -1.237156  3.408375
C    -1.291046  0.527854  4.628708
C    -0.941339  -0.125454  5.965918
C    0.267367  -1.020520  5.965020
O    1.245652  -0.859502  5.148329
N    0.345101  -1.990446  6.857152
H    -2.168746  1.165410  4.797130
H    -0.486192  1.209930  4.303636
H    -1.814483  -0.676176  6.343435
H    -0.740742  0.664504  6.710124
H    -0.402183  -2.153893  7.527086
H    1.180602  -2.568408  6.926544
N    -3.388140  -2.140965  2.943312
C    -2.693480  -2.720137  1.798696
H    -4.307604  -2.516944  3.169866
H    -3.016768  -3.759676  1.682466
H    -1.607854  -2.733191  1.955602
H    -2.915677  -2.189387  0.861734
Pb    2.163991  0.181946  3.393325
