30
Energy: -609299.89781 eV PBE+vdW (tier 2 basis)
C    0.389867  1.360466  4.240951
C    -0.763049  1.151310  5.157848
O    -0.528828  1.118721  6.439771
H    1.086188  0.512426  4.308275
H    0.943422  2.244607  4.588453
H    0.096046  1.507945  3.198352
N    -2.003215  1.016079  4.743504
C    -2.509236  0.621212  3.427917
C    -4.042090  0.798237  3.573238
O    -4.517508  0.649071  4.711685
H    -2.780346  0.975678  5.426852
H    -2.086060  1.257994  2.642278
C    -2.154068  -0.865877  3.150350
C    -2.973393  -1.939554  3.893380
C    -3.022078  -1.929687  5.406246
O    -1.999437  -1.614157  6.110226
N    -4.136963  -2.345882  5.981517
H    -1.081363  -1.006114  3.339548
H    -2.294121  -1.058638  2.078136
H    -2.545558  -2.921160  3.624560
H    -4.006057  -1.957195  3.519598
H    -4.966111  -2.556260  5.433820
H    -4.209266  -2.451361  6.989592
N    -4.773823  1.024238  2.476670
C    -4.302637  1.315438  1.119910
H    -5.772282  1.116082  2.656699
H    -3.627308  0.535479  0.748234
H    -3.809238  2.294740  1.062949
H    -5.172409  1.336217  0.457390
Pb    -0.895538  -0.578694  7.788653
