30
Energy: -609301.057938 eV PBE+vdW (tier 2 basis)
C    -0.425522  -0.360826  0.140538
C    -0.194367  -0.144634  1.603117
O    0.987713  -0.026018  2.030030
H    0.185415  -1.207866  -0.197569
H    -0.068372  0.523736  -0.405710
H    -1.473841  -0.540981  -0.119151
N    -1.277180  -0.100519  2.403585
C    -1.389042  0.114478  3.859928
C    -0.846755  1.500607  4.265451
O    0.391178  1.705273  4.448436
H    -2.164800  -0.216557  1.923002
H    -2.473511  0.136866  4.019530
C    -0.814353  -0.991850  4.809022
C    -0.192574  -2.262347  4.194337
C    1.255769  -2.454408  4.590500
O    2.079423  -1.488898  4.629647
N    1.671961  -3.674199  4.897897
H    -1.640107  -1.295660  5.461375
H    -0.081113  -0.520191  5.473395
H    -0.208771  -2.236699  3.094351
H    -0.775212  -3.148382  4.472205
H    1.042970  -4.470544  4.918349
H    2.648805  -3.832987  5.136648
N    -1.733054  2.466711  4.452436
C    -1.411282  3.838653  4.853420
H    -2.715406  2.246877  4.308073
H    -2.154136  4.176649  5.583262
H    -1.436259  4.502846  3.979964
H    -0.415250  3.860054  5.301858
Pb    2.333676  0.635818  3.767076
