30
Energy: -609300.095939 eV PBE+vdW (tier 2 basis)
C    0.712303  0.373290  0.277416
C    -0.040569  0.251650  1.560957
O    -0.410169  1.322391  2.168814
H    1.592311  1.014778  0.415787
H    0.062859  0.883920  -0.449708
H    1.024436  -0.589121  -0.141142
N    -0.317181  -0.967106  2.020681
C    -1.231686  -1.430220  3.083882
C    -1.130934  -0.656719  4.402324
O    -0.077397  0.030763  4.729689
H    0.033745  -1.723275  1.435295
H    -2.262492  -1.294297  2.720137
C    -0.960988  -2.955724  3.248473
C    -1.853698  -3.758012  4.216360
C    -3.351188  -3.570862  4.003541
O    -3.881908  -2.447780  4.166209
N    -4.073297  -4.634490  3.641126
H    0.085731  -3.093907  3.556915
H    -1.062270  -3.392853  2.242361
H    -1.639121  -3.482198  5.259121
H    -1.566765  -4.813031  4.121258
H    -3.670579  -5.558183  3.535264
H    -5.079896  -4.536426  3.533181
N    -2.162069  -0.769705  5.194248
C    -2.261449  -0.179311  6.524731
H    -2.962536  -1.406006  4.828006
H    -1.280474  -0.140615  7.009369
H    -2.943926  -0.790531  7.123442
H    -2.686300  0.833474  6.464717
Pb    0.309505  2.115105  4.121547
