30
Energy: -609300.059549 eV PBE+vdW (tier 2 basis)
C    0.141647  1.268018  0.233654
C    -0.060670  0.227662  1.284444
O    0.578548  -0.901222  1.205444
H    -0.468996  2.160478  0.402163
H    -0.115730  0.838004  -0.744757
H    1.199890  1.562761  0.190430
N    -0.908614  0.451085  2.260801
C    -1.417471  -0.468473  3.276906
C    -2.893765  0.041706  3.449113
O    -3.125336  1.206190  3.109117
H    -1.544199  1.283569  2.248418
H    -1.379664  -1.498863  2.896732
C    -0.697395  -0.349069  4.637751
C    0.759583  -0.862926  4.706733
C    1.853721  0.061634  4.225072
O    2.647419  -0.255343  3.271944
N    2.040723  1.217466  4.841372
H    -1.277046  -0.938661  5.360341
H    -0.767201  0.693023  4.982996
H    0.855087  -1.817659  4.173627
H    0.987178  -1.083634  5.762026
H    1.491504  1.489950  5.651429
H    2.806475  1.828865  4.565151
N    -3.773250  -0.808846  3.988795
C    -5.172056  -0.460432  4.251366
H    -3.484433  -1.765131  4.169656
H    -5.420678  -0.682195  5.295366
H    -5.835728  -1.031090  3.590639
H    -5.304193  0.607788  4.061895
Pb    2.621357  -1.629575  1.490865
