30
Energy: -609300.101019 eV PBE+vdW (tier 2 basis)
C    0.335570  0.582530  -0.079222
C    -0.034699  0.745036  1.358272
O    0.367909  1.826327  1.972371
H    -0.104444  1.418532  -0.642867
H    -0.015873  -0.362921  -0.502582
H    1.423890  0.661861  -0.202395
N    -0.757611  -0.192845  1.927012
C    -1.428367  -0.259564  3.224493
C    -0.706164  0.372598  4.403897
O    0.577198  0.418911  4.483562
H    -1.004484  -1.078701  1.316669
H    -2.402073  0.248479  3.119633
C    -1.696362  -1.757433  3.577116
C    -2.742864  -2.486827  2.708920
C    -2.243838  -2.982060  1.355960
O    -1.401606  -2.338659  0.688893
N    -2.763877  -4.120903  0.893214
H    -2.051330  -1.798797  4.614812
H    -0.735310  -2.290865  3.561417
H    -3.610748  -1.835246  2.514162
H    -3.131889  -3.333196  3.290504
H    -3.438808  -4.667483  1.414846
H    -2.492947  -4.451105  -0.029279
N    -1.421906  0.815839  5.426851
C    -2.879546  0.841111  5.597189
H    -0.866860  1.115276  6.229194
H    -3.108927  1.508835  6.432296
H    -3.269587  -0.157462  5.831448
H    -3.372268  1.231052  4.699584
Pb    1.919241  1.931786  3.504410
