30
Energy: -609299.914815 eV PBE+vdW (tier 2 basis)
C    -0.463492  -1.553976  -0.386578
C    -0.882575  -0.577276  0.655412
O    -0.539907  0.668332  0.514166
H    -0.856897  -1.241286  -1.363501
H    -0.801980  -2.571253  -0.166309
H    0.632994  -1.545622  -0.463975
N    -1.568653  -0.979055  1.700451
C    -2.021904  -0.174890  2.831068
C    -2.346271  -1.258155  3.907897
O    -2.686390  -2.364271  3.487110
H    -1.860551  -1.966974  1.822042
H    -1.208383  0.499150  3.132047
C    -3.302760  0.607430  2.435412
C    -3.721393  1.741031  3.368951
C    -2.783719  2.924125  3.428876
O    -1.919690  3.168052  2.520075
N    -2.884593  3.757244  4.451956
H    -4.131730  -0.110730  2.368403
H    -3.183618  0.997817  1.412785
H    -3.908936  1.375462  4.388464
H    -4.691793  2.137636  3.023569
H    -3.572941  3.618793  5.186765
H    -2.316427  4.601229  4.489928
N    -2.302592  -0.946943  5.218368
C    -1.718941  0.204324  5.893941
H    -2.576631  -1.729920  5.812358
H    -0.904319  -0.117710  6.555198
H    -2.470424  0.723331  6.504645
H    -1.298447  0.911200  5.171989
Pb    -0.778819  2.832730  0.593430
