26
Energy: -167648.681580 eV PBE+vdW (tier 2 basis)
N    1.923638  -1.587770  -0.025382
C    0.749420  -1.116779  0.829996
C    1.322817  -0.341753  2.038377
O    2.586978  -0.209794  2.120724
H    1.598176  -1.919868  -0.947224
H    2.615871  -0.837438  -0.185514
H    0.204867  -0.382136  0.216645
C    -0.139956  -2.326869  1.205151
C    -1.611418  -2.053550  1.592907
C    -2.531209  -1.617052  0.425248
C    -3.942734  -2.214597  0.406131
N    -4.893845  -1.661040  1.463463
H    0.349193  -2.883795  2.018594
H    -0.139262  -3.004044  0.334216
H    -1.655168  -1.336589  2.425485
H    -1.965822  -3.011810  2.002996
H    -2.102739  -1.957737  -0.531000
H    -2.589363  -0.520593  0.342432
H    -3.930283  -3.302137  0.553612
H    -4.429290  -2.008275  -0.554852
H    -5.025207  -0.642779  1.369945
H    -5.827619  -2.091546  1.364625
H    -4.580450  -1.851880  2.425559
O    0.521865  0.147303  2.888208
H    2.432170  -2.369396  0.420225
Cd    2.306371  0.992921  4.002430
