26
Energy: -167647.906547 eV PBE+vdW (tier 2 basis)
N    -0.894124  1.135721  1.302082
C    -0.657349  0.502879  2.534499
C    0.889170  0.766797  2.971616
O    1.298669  0.352317  4.072905
H    -1.371824  2.036186  1.275522
H    -0.967077  0.586908  0.448052
H    -1.168572  1.058830  3.340995
C    -1.052447  -0.991885  2.638312
C    -0.519438  -1.942932  1.551443
C    -0.979648  -3.416704  1.692975
C    -2.422413  -3.675044  1.246748
N    -2.744789  -5.163451  1.244218
H    -2.152990  -0.974899  2.640485
H    -0.739685  -1.339798  3.634299
H    0.580997  -1.952353  1.578195
H    -0.795756  -1.592031  0.543894
H    -0.838487  -3.753277  2.732073
H    -0.302708  -4.023518  1.072423
H    -2.600936  -3.331256  0.219847
H    -3.169198  -3.210806  1.902447
H    -3.714563  -5.333909  0.934441
H    -2.127906  -5.689671  0.606176
H    -2.648076  -5.585696  2.180118
O    1.643918  1.479103  2.203515
H    1.157422  1.746481  1.381047
Cd    3.223919  0.925829  5.035039
