26
Energy: -167648.156365 eV PBE+vdW (tier 2 basis)
N    1.717514  0.682173  1.365512
C    0.372601  0.544145  1.746950
C    0.225691  0.953510  3.316598
O    -0.904113  0.987433  3.839812
H    2.293136  -0.143155  1.212349
H    2.019117  1.513507  0.857697
H    -0.223739  1.360949  1.301062
C    -0.319640  -0.799393  1.406119
C    0.411314  -2.114361  1.737761
C    -0.315710  -3.323915  1.101564
C    0.429960  -4.638709  1.345356
N    -0.254761  -5.813108  0.659911
H    -0.483770  -0.740342  0.318662
H    -1.315136  -0.782968  1.873617
H    0.485214  -2.253098  2.827951
H    1.442609  -2.096517  1.349580
H    -0.410334  -3.151276  0.017488
H    -1.338187  -3.393285  1.504804
H    0.482015  -4.898853  2.409908
H    1.451915  -4.614962  0.946289
H    -0.303555  -5.690268  -0.363045
H    0.257437  -6.692316  0.833381
H    -1.218753  -5.953938  0.997876
O    1.276521  1.328342  3.967145
H    2.084036  1.266362  3.393880
Cd    -1.404566  1.915900  5.801364
