26
Energy: -167649.000758 eV PBE+vdW (tier 2 basis)
N    1.566476  0.355142  0.235640
C    1.269662  -0.343734  1.559982
C    2.133771  -1.626721  1.620142
O    2.927240  -1.861222  0.653710
H    1.215828  1.325814  0.242498
H    1.120186  -0.128269  -0.561060
H    1.658843  0.321918  2.346905
C    -0.253445  -0.572307  1.711941
C    -0.750344  -0.865638  3.148077
C    -0.966851  0.367961  4.057659
C    -2.345697  1.039182  4.001918
N    -3.384133  0.357499  4.888644
H    -0.552777  -1.391971  1.041676
H    -0.753614  0.331909  1.325087
H    -0.055166  -1.558442  3.641236
H    -1.683427  -1.438952  3.043027
H    -0.237755  1.158372  3.822285
H    -0.738265  0.099626  5.100342
H    -2.777783  1.059353  2.993169
H    -2.292983  2.071300  4.367955
H    -4.294210  0.841151  4.824148
H    -3.105682  0.378038  5.881892
H    -3.549615  -0.627111  4.635359
O    2.044897  -2.377702  2.636860
H    2.579597  0.384428  0.033329
Cd    3.642244  -3.704624  1.755579
