26
Energy: -167649.296523 eV PBE+vdW (tier 2 basis)
N    -0.330705  -0.050317  0.018330
C    1.000715  -0.318545  0.714752
C    2.071266  -0.564787  -0.374651
O    1.757543  -0.353925  -1.589750
H    -1.001094  0.402130  0.658402
H    -0.767938  -0.918968  -0.328466
H    1.286857  0.637611  1.184553
C    0.901527  -1.428418  1.779227
C    -0.033802  -1.070124  2.955467
C    -0.180792  -2.152542  4.055001
C    0.977934  -2.214512  5.054702
N    0.643954  -3.132361  6.223597
H    1.931048  -1.591880  2.128072
H    0.584331  -2.369331  1.300331
H    -1.055676  -0.896927  2.583317
H    0.289053  -0.121459  3.413353
H    -0.340390  -3.139779  3.593775
H    -1.105163  -1.914501  4.603425
H    1.188794  -1.233100  5.498344
H    1.906253  -2.606963  4.622047
H    1.422380  -3.174471  6.899965
H    0.453606  -4.099521  5.920043
H    -0.187102  -2.806716  6.741563
O    3.233334  -0.912649  -0.010907
H    -0.205607  0.567965  -0.800705
Cd    3.905674  -0.813911  -2.150785
