26
Energy: -167649.143543 eV PBE+vdW (tier 2 basis)
N    -0.174656  1.677626  1.670095
C    -0.128143  0.479722  2.614145
C    1.354827  0.089256  2.822625
O    1.613514  -0.940519  3.512883
H    0.016048  1.405414  0.692313
H    -1.100243  2.132075  1.691464
H    -0.470270  0.856510  3.592380
C    -1.020069  -0.680957  2.134028
C    -2.534904  -0.372375  2.119208
C    -3.386597  -1.537110  1.548520
C    -3.832161  -2.641438  2.521269
N    -5.255775  -2.443794  3.036470
H    -0.802965  -1.522943  2.807104
H    -0.688749  -0.999949  1.131877
H    -2.739521  0.502216  1.482093
H    -2.868921  -0.094859  3.132013
H    -2.830354  -2.027312  0.737004
H    -4.270933  -1.114295  1.048192
H    -3.196865  -2.723198  3.412033
H    -3.845097  -3.619799  2.027494
H    -5.525739  -3.206453  3.677998
H    -5.381737  -1.559155  3.548919
H    -5.939490  -2.450262  2.263480
O    2.255344  0.841665  2.331474
H    0.532628  2.387172  1.924086
Cd    3.804829  -0.505238  3.298834
