26
Energy: -167648.208451 eV PBE+vdW (tier 2 basis)
N    0.374212  0.534201  0.164079
C    -0.134562  0.330483  1.453956
C    1.162823  0.027975  2.398948
O    1.551603  0.942829  3.139196
H    0.526149  -0.230958  -0.491330
H    0.566106  1.471144  -0.186790
H    -0.522052  1.273379  1.857940
C    -1.199523  -0.800630  1.540064
C    -1.986111  -0.883020  2.859942
C    -3.231856  -1.789036  2.701817
C    -4.083646  -1.818822  3.974002
N    -5.338433  -2.661933  3.793619
H    -0.755858  -1.776698  1.277053
H    -1.889590  -0.560398  0.716457
H    -2.312328  0.127618  3.151303
H    -1.352459  -1.262383  3.676752
H    -2.916541  -2.811338  2.439573
H    -3.840433  -1.415178  1.862848
H    -4.432903  -0.818847  4.260551
H    -3.546866  -2.254963  4.825648
H    -5.901458  -2.675890  4.658650
H    -5.946742  -2.296907  3.044829
H    -5.119477  -3.642411  3.560554
O    1.826396  -1.089417  2.323841
H    1.449345  -1.767760  1.723526
Cd    3.523321  1.072241  4.234355
