26
Energy: -167648.172622 eV PBE+vdW (tier 2 basis)
N    0.764368  0.549346  0.729033
C    0.964113  -0.229705  1.875324
C    2.309033  -1.120077  1.606770
O    3.329909  -0.806459  2.235595
H    1.115445  1.503758  0.670368
H    0.237995  0.215021  -0.076406
H    1.259483  0.409018  2.716334
C    -0.247365  -1.131192  2.253291
C    -0.099179  -1.886493  3.583936
C    -1.355536  -2.681688  4.025851
C    -2.475964  -1.819864  4.616901
N    -3.592842  -2.681466  5.190977
H    -0.479799  -1.827021  1.428453
H    -1.086968  -0.420742  2.291166
H    0.185851  -1.183192  4.381990
H    0.721420  -2.616359  3.513889
H    -1.021317  -3.400594  4.789471
H    -1.739413  -3.278254  3.183297
H    -2.956296  -1.165349  3.879409
H    -2.119294  -1.200214  5.449465
H    -4.343771  -2.098295  5.592711
H    -4.028092  -3.284560  4.476488
H    -3.254036  -3.297955  5.945664
O    2.346859  -2.069301  0.717420
H    1.500146  -2.264087  0.262151
Cd    5.442530  -1.512687  1.864432
