26
Energy: -167648.489468 eV PBE+vdW (tier 2 basis)
N    0.717142  0.815609  0.406532
C    0.291819  0.118417  1.665611
C    1.440337  -0.755137  2.228120
O    2.609739  -0.731267  1.784696
H    0.341092  1.771493  0.383329
H    0.345069  0.338064  -0.424000
H    0.171660  0.912250  2.424349
C    -1.082864  -0.606150  1.538522
C    -1.171655  -1.881794  0.676049
C    -2.606686  -2.465132  0.705339
C    -2.730104  -3.747120  -0.125490
N    -4.139363  -4.320229  -0.079877
H    -1.797405  0.152362  1.183316
H    -1.422017  -0.822129  2.565999
H    -0.460545  -2.641918  1.036956
H    -0.897223  -1.668139  -0.370419
H    -3.314525  -1.709364  0.329648
H    -2.888753  -2.674969  1.749560
H    -2.069921  -4.543548  0.240529
H    -2.509421  -3.576938  -1.186770
H    -4.841810  -3.663399  -0.453394
H    -4.204224  -5.182104  -0.645074
H    -4.430356  -4.568405  0.878308
O    1.227076  -1.532114  3.245548
H    0.319372  -1.502732  3.612261
Cd    3.011640  0.776483  0.287626
