26
Energy: -167649.222690 eV PBE+vdW (tier 2 basis)
N    -0.360825  0.271712  0.148291
C    -0.311587  0.349015  1.672052
C    0.769369  1.387224  2.060176
O    1.243877  2.124028  1.135889
H    0.399065  -0.312937  -0.234837
H    -0.261927  1.208803  -0.278429
H    -1.265062  0.814568  1.974805
C    -0.199376  -1.061497  2.289038
C    -0.598584  -1.121976  3.780538
C    -1.003121  -2.519002  4.311665
C    0.153075  -3.491416  4.555699
N    -0.334342  -4.752046  5.259273
H    0.811455  -1.462306  2.117040
H    -0.893849  -1.697562  1.713818
H    -1.474869  -0.475815  3.936236
H    0.201051  -0.699816  4.405271
H    -1.744348  -2.974855  3.636008
H    -1.523701  -2.344099  5.266014
H    0.920312  -3.061220  5.211867
H    0.636873  -3.833478  3.632446
H    -0.757462  -4.539296  6.176016
H    0.440948  -5.411284  5.429938
H    -1.044762  -5.256290  4.707114
O    1.093973  1.515389  3.277013
H    -1.254142  -0.134422  -0.172238
Cd    2.406959  3.260581  2.702296
