26
Energy: -167648.452378 eV PBE+vdW (tier 2 basis)
N    0.776182  0.873182  3.106901
C    0.536178  -0.348895  3.944570
C    1.851667  -1.147262  4.142678
O    2.976063  -0.726807  3.791825
H    0.457978  0.726512  2.140970
H    0.240134  1.669549  3.472376
H    0.296940  0.018872  4.958077
C    -0.672148  -1.207185  3.456899
C    -0.513370  -1.943674  2.111171
C    -1.582850  -3.029633  1.821051
C    -2.974166  -2.504558  1.450169
N    -3.894403  -3.641092  1.025069
H    -1.545435  -0.537854  3.457614
H    -0.889588  -1.930524  4.261085
H    0.456105  -2.464865  2.084991
H    -0.496651  -1.230169  1.270706
H    -1.655780  -3.710737  2.683940
H    -1.195973  -3.631918  0.984825
H    -2.939207  -1.814651  0.597263
H    -3.485346  -2.003738  2.281612
H    -4.031963  -4.335686  1.775528
H    -4.829702  -3.287531  0.767538
H    -3.528650  -4.148509  0.204047
O    1.832708  -2.297043  4.743433
H    0.953844  -2.596351  5.054574
Cd    3.037715  1.298908  3.046706
