26
Energy: -167649.237845 eV PBE+vdW (tier 2 basis)
N    -0.922332  0.514305  0.608581
C    -0.312300  0.421529  2.004605
C    0.970435  1.289661  2.015923
O    1.201328  2.024451  1.002503
H    -0.866753  1.477666  0.236101
H    -1.914842  0.231335  0.617774
H    -1.017070  0.943832  2.673233
C    -0.155151  -1.054194  2.436770
C    -0.005302  -1.240310  3.961306
C    0.197323  -2.697961  4.443016
C    -1.078105  -3.545662  4.489621
N    -0.829877  -4.876385  5.188906
H    0.696890  -1.504863  1.903639
H    -1.059639  -1.576999  2.082736
H    -0.873042  -0.797749  4.475353
H    0.870152  -0.672481  4.304091
H    0.611442  -2.632124  5.460830
H    0.963410  -3.197169  3.828977
H    -1.468574  -3.800940  3.496753
H    -1.875700  -3.053992  5.061201
H    -1.687661  -5.449632  5.220052
H    -0.520756  -4.744324  6.164493
H    -0.107241  -5.438544  4.713981
O    1.710820  1.282513  3.043589
H    -0.433199  -0.093947  -0.067676
Cd    3.001742  2.863988  2.086644
