26
Energy: -167648.459922 eV PBE+vdW (tier 2 basis)
N    0.817257  0.686281  0.059531
C    0.728068  0.416792  1.534667
C    1.787258  1.260762  2.293705
O    2.410309  2.213493  1.776728
H    1.346429  -0.057297  -0.414705
H    -0.118249  0.693269  -0.363880
H    -0.240133  0.832621  1.865381
C    0.775408  -1.116280  1.853366
C    -0.047053  -1.528306  3.100791
C    0.082504  -3.009570  3.540584
C    -0.765134  -4.001708  2.736302
N    -0.761304  -5.379452  3.385252
H    1.823686  -1.440226  1.944589
H    0.362155  -1.635437  0.976089
H    -1.106689  -1.272901  2.943761
H    0.245629  -0.937784  3.986617
H    -0.241622  -3.045390  4.592324
H    1.140202  -3.315941  3.532693
H    -0.402772  -4.153428  1.712205
H    -1.818570  -3.696994  2.691732
H    -1.333694  -6.046947  2.844055
H    0.186908  -5.780497  3.452376
H    -1.151189  -5.356823  4.340796
O    2.039941  1.023373  3.542899
H    1.529181  0.279593  3.927541
Cd    1.948351  2.665654  -0.281079
