26
Energy: -167648.687382 eV PBE+vdW (tier 2 basis)
N    1.043908  -1.435358  0.211552
C    0.446606  -0.539286  1.293775
C    1.616441  0.023093  2.140205
O    2.808328  -0.277888  1.816727
H    0.326149  -1.726993  -0.467480
H    1.797861  -0.959506  -0.311022
H    0.018368  0.329931  0.769023
C    -0.624442  -1.252687  2.145581
C    -2.075457  -1.329840  1.606248
C    -2.378296  -2.358791  0.494991
C    -3.801211  -2.935369  0.487423
N    -4.899336  -1.953119  0.091672
H    -0.668476  -0.682690  3.083588
H    -0.260656  -2.254777  2.428219
H    -2.402075  -0.319889  1.312945
H    -2.673359  -1.590392  2.493458
H    -1.748529  -3.253069  0.633721
H    -2.142095  -1.965650  -0.509019
H    -4.083510  -3.317842  1.476721
H    -3.876565  -3.761538  -0.229751
H    -4.979593  -1.155993  0.739075
H    -4.764125  -1.575965  -0.858255
H    -5.816890  -2.427960  0.093075
O    1.332630  0.791713  3.106348
H    1.460010  -2.290665  0.613573
Cd    3.511315  1.059527  3.525606
