26
Energy: -167648.115070 eV PBE+vdW (tier 2 basis)
N    2.230369  -0.004660  1.033799
C    0.879609  -0.160265  1.390630
C    0.235716  1.318247  1.633326
O    -0.974620  1.435095  1.904573
H    2.963095  -0.160158  1.725259
H    2.524395  -0.080591  0.061511
H    0.292763  -0.511792  0.525376
C    0.625691  -1.016456  2.658012
C    1.065241  -2.498677  2.547877
C    0.129130  -3.407823  1.731086
C    0.599289  -4.855317  1.546846
N    0.464792  -5.726467  2.792897
H    -0.445253  -0.947652  2.899823
H    1.163097  -0.557217  3.502517
H    1.131358  -2.852139  3.588674
H    2.089471  -2.561015  2.149373
H    0.021502  -3.026854  0.703465
H    -0.889113  -3.396636  2.152975
H    1.653545  -4.917990  1.248538
H    -0.000912  -5.357240  0.778794
H    -0.510832  -5.778348  3.122389
H    0.762202  -6.693900  2.588377
H    1.043563  -5.398795  3.578896
O    0.995000  2.354873  1.515728
H    1.920929  2.089349  1.275573
Cd    -2.045496  3.369933  2.152219
