26
Energy: -167648.154499 eV PBE+vdW (tier 2 basis)
N    0.867529  0.720499  0.372600
C    0.202541  0.276729  1.527024
C    1.162611  0.513696  2.827335
O    0.753223  0.199487  3.959564
H    1.375346  0.063663  -0.216923
H    0.647959  1.621497  -0.048322
H    -0.632968  0.958231  1.764833
C    -0.276726  -1.196289  1.513737
C    -1.546807  -1.454416  0.666806
C    -1.353559  -1.566774  -0.854349
C    -2.628093  -1.786157  -1.679343
N    -3.175991  -3.209538  -1.629355
H    -0.498555  -1.467095  2.555621
H    0.549557  -1.851396  1.193189
H    -2.305705  -0.689577  0.896203
H    -1.953351  -2.399635  1.065474
H    -0.609272  -2.342286  -1.099755
H    -0.937937  -0.625529  -1.250059
H    -2.434864  -1.590660  -2.740629
H    -3.450540  -1.134321  -1.358347
H    -3.466094  -3.498209  -0.684588
H    -4.008514  -3.293900  -2.234483
H    -2.489083  -3.898696  -1.970867
O    2.317289  1.068334  2.664612
H    2.489783  1.273473  1.711260
Cd    1.814198  0.575784  5.888306
