26
Energy: -167649.233587 eV PBE+vdW (tier 2 basis)
N    1.005681  -0.110849  -0.280908
C    0.510521  -0.059466  1.161441
C    1.737281  0.142863  2.084015
O    2.871002  0.362018  1.551663
H    0.225027  0.001197  -0.944699
H    1.693191  0.637288  -0.471109
H    -0.068816  0.875173  1.245444
C    -0.361284  -1.269287  1.540861
C    -1.768495  -1.310560  0.898057
C    -2.632912  -2.405466  1.567972
C    -4.141010  -2.379925  1.292281
N    -4.576888  -3.096504  0.016625
H    -0.473843  -1.211105  2.633371
H    0.193146  -2.201908  1.345328
H    -1.699307  -1.483781  -0.189026
H    -2.257064  -0.333217  1.038322
H    -2.552363  -2.283902  2.658862
H    -2.224526  -3.408303  1.363690
H    -4.542990  -1.361335  1.222508
H    -4.674843  -2.895852  2.099162
H    -5.605991  -3.080906  -0.068469
H    -4.201942  -2.667976  -0.840384
H    -4.294822  -4.088389  0.021185
O    1.550248  0.131454  3.336772
H    1.474669  -1.005352  -0.494658
Cd    3.710329  0.620088  3.652697
