26
Energy: -167648.464892 eV PBE+vdW (tier 2 basis)
N    1.597722  1.458560  0.254729
C    0.663454  0.841696  1.259860
C    1.450764  0.018152  2.307661
O    2.639103  -0.341134  2.161442
H    1.285137  1.257068  -0.702973
H    1.603172  2.482743  0.344230
H    0.193052  1.673346  1.810638
C    -0.447536  0.004220  0.542317
C    -1.638938  -0.401013  1.444196
C    -2.949824  -0.783525  0.708156
C    -2.979896  -2.195023  0.112937
N    -4.379821  -2.557069  -0.365453
H    0.010718  -0.875639  0.064151
H    -0.826843  0.656605  -0.259956
H    -1.905376  0.457825  2.081427
H    -1.355988  -1.228786  2.112850
H    -3.175480  -0.035231  -0.067544
H    -3.752794  -0.700429  1.456973
H    -2.712386  -2.958893  0.854324
H    -2.325410  -2.313338  -0.759312
H    -4.403043  -3.507790  -0.767265
H    -5.066299  -2.540507  0.405252
H    -4.724915  -1.912935  -1.093740
O    0.866548  -0.360295  3.403713
H    -0.044199  -0.021707  3.531631
Cd    3.721926  0.639276  0.568526
