26
Energy: -167648.296654 eV PBE+vdW (tier 2 basis)
N    1.897300  -1.121723  0.697753
C    0.648882  -0.443853  1.191075
C    0.976973  0.419804  2.440290
O    2.137867  0.745478  2.768851
H    1.925393  -2.099765  1.016783
H    1.912443  -1.153048  -0.328455
H    0.367242  0.290082  0.416385
C    -0.502446  -1.474938  1.419705
C    -1.968104  -0.968738  1.265134
C    -2.508550  -1.005815  -0.179852
C    -3.946539  -0.506307  -0.385196
N    -5.030418  -1.523228  -0.039590
H    -0.372257  -1.930322  2.412583
H    -0.355772  -2.289201  0.694533
H    -2.101810  0.057279  1.654453
H    -2.574332  -1.609713  1.922063
H    -2.403568  -2.021920  -0.593716
H    -1.893979  -0.363614  -0.829483
H    -4.111906  -0.261537  -1.440996
H    -4.172164  0.390777  0.205434
H    -5.030887  -1.802718  0.951631
H    -5.964919  -1.128087  -0.235187
H    -4.948788  -2.381385  -0.606284
O    0.020513  0.881952  3.184736
H    -0.877458  0.593806  2.918060
Cd    3.742621  -0.051001  1.565802
