26
Energy: -167649.174595 eV PBE+vdW (tier 2 basis)
N    0.597461  -0.142412  0.228041
C    0.356088  -0.239705  1.731288
C    1.675053  -0.689351  2.402961
O    1.696480  -0.785740  3.666065
H    0.836597  -1.061011  -0.179779
H    -0.243842  0.204274  -0.257793
H    0.171631  0.788715  2.079045
C    -0.828642  -1.172767  2.056927
C    -2.248901  -0.646258  1.723324
C    -2.843599  0.304808  2.781186
C    -4.246812  0.852441  2.490344
N    -5.379616  -0.131019  2.771783
H    -0.762802  -1.393139  3.131829
H    -0.662977  -2.134699  1.546551
H    -2.875440  -1.544714  1.617295
H    -2.281074  -0.164687  0.730585
H    -2.213175  1.201104  2.889093
H    -2.829248  -0.175091  3.773326
H    -4.371165  1.165643  1.445904
H    -4.455683  1.718820  3.128942
H    -5.389930  -0.432894  3.757970
H    -6.293856  0.312941  2.587606
H    -5.339006  -0.977462  2.186748
O    2.686563  -0.924272  1.669048
H    1.375608  0.496061  -0.003489
Cd    3.858287  -1.369584  3.565204
