26
Energy: -167648.487328 eV PBE+vdW (tier 2 basis)
N    -0.247160  2.116217  2.074473
C    -0.520592  0.662337  2.448589
C    0.603608  0.180534  3.396349
O    1.351962  1.060854  3.931781
H    -1.104393  2.571506  1.722466
H    0.474197  2.203982  1.342205
H    -1.409198  0.697171  3.102029
C    -0.858080  -0.214595  1.228813
C    0.267691  -0.487751  0.212067
C    -0.204231  -1.050097  -1.152698
C    -0.731185  -2.488019  -1.119026
N    -1.023626  -2.995481  -2.525291
H    -1.716359  0.268550  0.731941
H    -1.249997  -1.153972  1.644070
H    1.015015  -1.164179  0.654090
H    0.808686  0.441288  -0.031245
H    0.661299  -1.003858  -1.831351
H    -0.969481  -0.381790  -1.578977
H    -1.672105  -2.591675  -0.564714
H    0.001098  -3.186537  -0.694528
H    -1.729400  -2.419047  -3.008997
H    -1.385001  -3.962226  -2.507242
H    -0.178240  -3.000878  -3.117008
O    0.677755  -1.051784  3.676233
H    0.088464  2.654107  2.891708
Cd    2.261688  -0.570037  5.205274
