26
Energy: -167648.396107 eV PBE+vdW (tier 2 basis)
N    2.170161  -0.472611  0.093164
C    1.266337  -0.131323  1.242474
C    1.530635  -1.063689  2.450501
O    2.449552  -1.910191  2.487919
H    1.656091  -0.975272  -0.641439
H    2.533909  0.383722  -0.342444
H    1.585899  0.864310  1.596689
C    -0.234528  -0.026408  0.821295
C    -0.951693  -1.341889  0.458110
C    -2.337419  -1.177895  -0.219600
C    -3.474864  -0.750572  0.714913
N    -4.820022  -0.798170  0.002741
H    -0.262850  0.681062  -0.022107
H    -0.758019  0.502798  1.634187
H    -1.049097  -1.987034  1.345638
H    -0.344428  -1.918155  -0.258817
H    -2.589045  -2.155890  -0.657550
H    -2.255879  -0.472142  -1.061374
H    -3.371178  0.277984  1.082105
H    -3.571355  -1.421743  1.578047
H    -5.046856  -1.747806  -0.331867
H    -5.585721  -0.511432  0.633350
H    -4.853134  -0.170445  -0.815413
O    0.797595  -0.963101  3.517779
H    0.122537  -0.254426  3.496792
Cd    3.853273  -1.846391  0.843917
