26
Energy: -167649.177465 eV PBE+vdW (tier 2 basis)
N    -0.292385  0.630361  0.065926
C    0.447867  0.569276  1.398514
C    1.807934  -0.134577  1.172039
O    2.502326  -0.447551  2.183616
H    -0.702334  -0.278440  -0.198406
H    0.344289  0.904613  -0.701524
H    0.732290  1.612719  1.617704
C    -0.424495  0.057878  2.558926
C    -0.963726  -1.382065  2.461519
C    -1.613457  -1.923295  3.760458
C    -2.983109  -1.326478  4.099922
N    -3.610186  -2.032515  5.294783
H    -1.242682  0.786304  2.678556
H    0.201596  0.167044  3.457100
H    -0.134762  -2.067614  2.228369
H    -1.689569  -1.482981  1.637223
H    -0.919205  -1.776682  4.602945
H    -1.722693  -3.010927  3.630570
H    -3.698966  -1.442825  3.275995
H    -2.937564  -0.265256  4.374047
H    -3.029524  -1.952691  6.143676
H    -3.753343  -3.038757  5.116409
H    -4.534289  -1.632558  5.522434
O    2.215542  -0.284168  -0.024479
H    -1.059106  1.320555  0.104644
Cd    4.191553  -1.014373  0.814033
