26
Energy: -167648.511083 eV PBE+vdW (tier 2 basis)
N    0.396564  -0.363793  -0.141732
C    0.640651  -0.667391  1.309839
C    2.025417  -1.329357  1.493772
O    2.614139  -1.956133  0.586239
H    -0.584174  -0.544913  -0.389615
H    0.564127  0.631268  -0.342573
H    0.661680  0.296044  1.846010
C    -0.504290  -1.566021  1.874682
C    -0.522001  -1.764307  3.407316
C    -1.825355  -2.452091  3.882490
C    -1.831321  -2.642387  5.404040
N    -3.109798  -3.305410  5.894647
H    -0.480578  -2.544206  1.367356
H    -1.440770  -1.067904  1.576720
H    -0.435598  -0.784765  3.905910
H    0.335661  -2.377008  3.724537
H    -1.927673  -3.429336  3.384873
H    -2.691328  -1.841420  3.582075
H    -1.764862  -1.686707  5.939274
H    -1.009910  -3.285852  5.743616
H    -3.091368  -3.422342  6.920571
H    -3.949539  -2.749213  5.672003
H    -3.245106  -4.243960  5.488768
O    2.611351  -1.300293  2.652179
H    2.172900  -0.743030  3.328529
Cd    1.830169  -1.632055  -1.407098
