28
Energy: -35057.4529368 eV PBE+vdW (tier 2 basis)
N    0.905279  0.987360  1.722897
C    1.199364  -0.345466  2.366673
C    2.199559  -1.056012  1.454810
O    2.844233  -0.425274  0.583198
H    0.024619  0.893197  1.198362
H    0.673288  1.654370  2.467966
H    1.770233  -0.134605  3.289516
C    -0.070598  -1.158637  2.746472
C    0.133584  -2.191969  3.874890
C    -1.073480  -3.119792  4.128859
N    -2.214315  -2.523846  4.837027
C    -2.614633  -2.846015  6.089947
N    -3.887686  -2.644748  6.443238
N    -1.751326  -3.345248  6.979734
H    -0.465560  -1.650549  1.843281
H    -0.824339  -0.420862  3.063486
H    0.406310  -1.671534  4.806068
H    0.973396  -2.854135  3.626771
H    -0.734364  -3.988988  4.706392
H    -1.448049  -3.527292  3.178320
H    -2.916934  -2.058039  4.271747
H    -4.176503  -2.677407  7.415973
H    -2.076984  -3.757002  7.848407
H    -0.749520  -3.287094  6.851981
H    -4.626964  -2.553556  5.755014
O    2.360949  -2.326806  1.663566
H    3.050818  -2.718287  1.078252
Ca    2.681622  1.684234  0.139153
