28
Energy: -35058.0157741 eV PBE+vdW (tier 2 basis)
N    0.991541  -1.762381  -0.045580
C    0.458964  -0.675200  0.884583
C    1.602142  -0.328688  1.859176
O    2.773623  -0.793915  1.620742
H    0.656383  -1.657799  -1.013183
H    0.731960  -2.706367  0.276969
H    0.328367  0.220015  0.253983
C    -0.879225  -1.051873  1.542172
C    -2.034270  -1.223071  0.534675
C    -3.392776  -1.626862  1.136300
N    -4.087040  -0.508063  1.787099
C    -5.190363  -0.653558  2.563979
N    -5.745295  0.429351  3.115893
N    -5.697218  -1.864127  2.812629
H    -1.103740  -0.251154  2.260963
H    -0.746483  -1.969487  2.139229
H    -1.797331  -2.018045  -0.189853
H    -2.155895  -0.305570  -0.064684
H    -3.250267  -2.424357  1.880514
H    -4.009575  -2.035249  0.319322
H    -4.000622  0.398734  1.335111
H    -6.664782  0.392128  3.544169
H    -5.280498  1.329796  3.114359
H    -6.435815  -1.986255  3.498831
H    -5.511691  -2.657727  2.211083
O    1.391821  0.449463  2.836914
H    2.029450  -1.712606  -0.039291
Ca    3.567636  0.421869  3.348895
