28
Energy: -35058.1483699 eV PBE+vdW (tier 2 basis)
N    1.435682  -1.202509  -0.537109
C    0.850071  -0.888873  0.836308
C    1.754054  0.188922  1.468935
O    1.584813  0.526372  2.678617
H    2.012379  -0.390854  -0.835277
H    2.058608  -2.023297  -0.510224
H    -0.114027  -0.388631  0.645905
C    0.630856  -2.137607  1.702847
C    -0.483085  -3.079828  1.203413
C    -0.725309  -4.242676  2.185107
N    -1.785822  -5.127601  1.698410
C    -2.572787  -5.912070  2.469263
N    -3.634925  -6.508322  1.920503
N    -2.314274  -6.070185  3.772024
H    0.378060  -1.760462  2.704674
H    1.585921  -2.677802  1.814799
H    -0.221899  -3.499786  0.216943
H    -1.420843  -2.517220  1.078006
H    -1.041099  -3.838267  3.157565
H    0.210437  -4.806299  2.339025
H    -1.827576  -5.306868  0.699435
H    -4.117490  -7.266074  2.393100
H    -2.989734  -6.521972  4.380803
H    -1.383302  -5.943325  4.150223
H    -4.013114  -6.213731  1.027061
O    2.627727  0.769807  0.732091
H    0.712217  -1.378814  -1.247344
Ca    3.112461  2.136972  2.470898
