28
Energy: -35057.089693 eV PBE+vdW (tier 2 basis)
N    0.703926  -0.651733  -0.707672
C    -0.318856  0.031102  0.157185
C    0.428356  1.067286  1.009018
O    1.609016  1.369508  0.728450
H    0.986166  -1.527302  -0.248995
H    0.240030  -0.958971  -1.570288
H    -0.936742  0.648507  -0.520426
C    -1.296673  -0.898642  0.923754
C    -0.676699  -1.844036  1.971909
C    -1.672661  -2.459362  2.979843
N    -2.531040  -3.510415  2.427917
C    -3.012330  -4.563149  3.138068
N    -2.835900  -4.640335  4.459536
N    -3.646286  -5.544360  2.490327
H    -1.857370  -1.457108  0.158820
H    -2.058649  -0.255483  1.398268
H    0.049024  -1.291359  2.590468
H    -0.119216  -2.662315  1.490044
H    -2.281714  -1.659360  3.434853
H    -1.076275  -2.914005  3.781383
H    -3.016761  -3.326729  1.555516
H    -3.035542  -5.502577  4.958320
H    -4.198212  -6.235033  2.989845
H    -3.565665  -5.665149  1.487091
H    -2.679155  -3.819009  5.031788
O    -0.139902  1.703043  1.988319
H    -1.074917  1.459139  2.147296
Ca    2.761049  0.773850  -0.971638
