28
Energy: -35057.134232 eV PBE+vdW (tier 2 basis)
N    1.061291  -1.193591  -0.112021
C    0.381589  -0.982999  1.218848
C    1.485098  -0.806543  2.266338
O    2.659519  -1.149420  2.007428
H    0.637733  -2.012042  -0.564958
H    0.807610  -0.414163  -0.730623
H    -0.189963  -0.041334  1.179051
C    -0.605302  -2.148347  1.542068
C    -1.420938  -2.008703  2.844178
C    -2.427181  -3.151988  3.116622
N    -3.722144  -2.985298  2.451936
C    -4.913605  -3.373735  2.969798
N    -6.041662  -2.957514  2.386759
N    -4.969616  -4.143349  4.060135
H    -0.040951  -3.094782  1.563501
H    -1.281950  -2.197464  0.674063
H    -1.962284  -1.049320  2.868918
H    -0.739001  -2.023642  3.707201
H    -2.620692  -3.159815  4.196653
H    -1.975292  -4.123829  2.857368
H    -3.738781  -2.727456  1.470623
H    -6.059982  -2.158644  1.762990
H    -5.847195  -4.278186  4.553676
H    -4.204240  -4.749046  4.332280
H    -6.935197  -3.389662  2.601031
O    1.254051  -0.297693  3.440492
H    0.335541  0.010468  3.583223
Ca    3.557547  -1.434903  0.093422
