28
Energy: -35057.9886097 eV PBE+vdW (tier 2 basis)
N    0.961252  -0.665237  0.436967
C    0.274385  0.530682  1.087808
C    1.383963  1.426738  1.672879
O    2.598937  1.204786  1.330221
H    0.455909  -1.004465  -0.393573
H    1.058710  -1.456108  1.090393
H    -0.153743  1.113409  0.254463
C    -0.850209  0.136240  2.058430
C    -2.065398  -0.509479  1.356855
C    -3.388957  -0.505328  2.149815
N    -3.503568  -1.564711  3.156456
C    -4.662513  -2.177164  3.501571
N    -4.616688  -3.261679  4.282176
N    -5.837929  -1.726293  3.055819
H    -1.156237  1.074432  2.544730
H    -0.438236  -0.502041  2.857631
H    -1.849601  -1.540888  1.036228
H    -2.279127  0.062923  0.440335
H    -4.195595  -0.665692  1.422992
H    -3.548185  0.485727  2.606528
H    -2.729252  -1.711550  3.795792
H    -5.452982  -3.623650  4.729548
H    -3.766939  -3.801282  4.399574
H    -6.679305  -2.286490  3.154572
H    -5.968500  -0.768166  2.753471
O    1.078183  2.406273  2.416902
H    1.920365  -0.382270  0.157798
Ca    3.200260  3.093284  2.424621
