28
Energy: -35058.0755451 eV PBE+vdW (tier 2 basis)
N    -0.285031  0.196312  0.020756
C    0.053712  0.081701  1.503992
C    1.555295  0.395467  1.640894
O    2.164164  0.911827  0.636126
H    -1.256947  0.502868  -0.131552
H    -0.163265  -0.702810  -0.469941
H    -0.474022  0.916821  1.993742
C    -0.443308  -1.263744  2.075492
C    -0.712219  -1.258006  3.593524
C    -1.387830  -2.568517  4.038691
N    -1.736395  -2.518906  5.460233
C    -1.988103  -3.592924  6.241837
N    -2.143737  -3.420308  7.557831
N    -2.049558  -4.821337  5.716630
H    0.266856  -2.061380  1.808305
H    -1.389533  -1.499154  1.560707
H    -1.375402  -0.411296  3.835228
H    0.221203  -1.112258  4.153057
H    -0.701991  -3.414313  3.883575
H    -2.289992  -2.745482  3.427672
H    -2.017140  -1.619560  5.840149
H    -2.536926  -4.150219  8.143211
H    -1.871567  -2.560973  8.021472
H    -2.088058  -5.638883  6.317351
H    -2.258578  -4.974078  4.737622
O    2.158803  0.197109  2.738340
H    0.359319  0.874823  -0.426171
Ca    4.015250  1.128221  1.886227
