28
Energy: -35056.5397143 eV PBE+vdW (tier 2 basis)
N    0.754057  -0.497134  -0.001527
C    0.294923  -0.384085  1.372983
C    1.551828  -0.235531  2.230070
O    2.293945  -1.209517  2.593152
H    1.282887  -1.338595  -0.222492
H    1.169748  0.332981  -0.420633
H    -0.262962  0.562559  1.464703
C    -0.621591  -1.542764  1.799683
C    -2.091787  -1.420124  1.344556
C    -2.384668  -1.657756  -0.146333
N    -3.834593  -1.591694  -0.367687
C    -4.522162  -2.197451  -1.355033
N    -5.856920  -2.250123  -1.290582
N    -3.880718  -2.766917  -2.383391
H    -0.634906  -1.585026  2.899254
H    -0.186377  -2.495913  1.459910
H    -2.474520  -0.429393  1.640400
H    -2.667657  -2.154668  1.925690
H    -2.039033  -2.659941  -0.440057
H    -1.863448  -0.919562  -0.775402
H    -4.366807  -0.962234  0.226044
H    -6.358273  -2.066824  -0.428779
H    -4.381211  -3.351094  -3.044971
H    -2.946292  -2.481187  -2.647170
H    -6.415819  -2.491928  -2.102004
O    2.021659  0.948697  2.547654
H    1.424605  1.688940  2.307292
Ca    3.960428  -1.874165  3.653650
