28
Energy: -35057.5506179 eV PBE+vdW (tier 2 basis)
N    -0.102521  1.843990  1.553679
C    0.011437  0.428962  2.067205
C    1.345034  -0.114053  1.559456
O    2.223902  0.648819  1.092187
H    -0.713922  1.825359  0.725495
H    -0.642151  2.386297  2.238355
H    0.137357  0.492748  3.163313
C    -1.241479  -0.436679  1.759177
C    -1.458809  -1.665285  2.666976
C    -2.758066  -2.410114  2.291563
N    -2.927936  -3.663343  3.033540
C    -3.991996  -4.030348  3.782261
N    -4.243735  -5.329486  3.963920
N    -4.788791  -3.116221  4.348590
H    -1.217597  -0.740959  0.700491
H    -2.105996  0.237187  1.869542
H    -1.501555  -1.352890  3.721563
H    -0.614374  -2.361630  2.577904
H    -2.755814  -2.651112  1.216960
H    -3.641307  -1.781231  2.460996
H    -2.296190  -4.419926  2.785908
H    -3.861070  -6.041489  3.351140
H    -5.675123  -3.386935  4.762056
H    -4.478313  -2.169006  4.519867
H    -4.865058  -5.649199  4.700464
O    1.520427  -1.395394  1.678086
H    2.416421  -1.676813  1.379213
Ca    2.079224  2.797752  0.882093
