28
Energy: -35057.1994119 eV PBE+vdW (tier 2 basis)
N    0.127521  -0.195580  -0.812877
C    -0.284083  0.335076  0.532223
C    1.000302  0.643881  1.310504
O    2.097950  0.680880  0.711814
H    0.132559  -1.222777  -0.771213
H    -0.619495  0.022194  -1.482865
H    -0.719044  1.334828  0.347170
C    -1.374235  -0.470704  1.282775
C    -1.028589  -1.888015  1.780036
C    -2.230820  -2.494562  2.534989
N    -1.934790  -3.835077  3.041335
C    -2.861315  -4.781436  3.329834
N    -4.166901  -4.499079  3.283133
N    -2.453926  -6.016932  3.631428
H    -2.247885  -0.506744  0.613628
H    -1.718312  0.149800  2.128637
H    -0.153627  -1.859667  2.450487
H    -0.771248  -2.554967  0.942089
H    -3.087706  -2.572518  1.850365
H    -2.520694  -1.822675  3.361233
H    -1.010370  -3.994767  3.431627
H    -4.857983  -5.241409  3.338850
H    -3.083739  -6.691768  4.054305
H    -1.511507  -6.334562  3.434391
H    -4.515958  -3.554853  3.396491
O    0.991526  0.936638  2.575980
H    0.103416  0.933291  2.988892
Ca    2.439951  0.578504  -1.400259
