28
Energy: -35057.3004197 eV PBE+vdW (tier 2 basis)
N    0.626160  0.309576  0.328208
C    0.465237  0.003067  1.792623
C    1.841778  -0.438240  2.320397
O    2.851517  -0.332672  1.589810
H    0.236137  -0.477479  -0.206220
H    0.015592  1.098817  0.091445
H    0.269840  0.963062  2.304279
C    -0.683201  -0.981267  2.125376
C    -2.101625  -0.422052  1.894506
C    -3.179785  -1.405369  2.392818
N    -4.521208  -0.841763  2.233591
C    -5.667785  -1.557412  2.151770
N    -6.804027  -0.929797  1.837525
N    -5.664971  -2.880024  2.348671
H    -0.600895  -1.266688  3.187162
H    -0.530366  -1.914814  1.558766
H    -2.277061  -0.212764  0.828450
H    -2.204523  0.533217  2.435000
H    -2.988635  -1.655941  3.450555
H    -3.130542  -2.337260  1.811041
H    -4.635189  0.150750  2.419125
H    -6.809648  0.003666  1.441715
H    -6.487660  -3.435269  2.133396
H    -4.949477  -3.336827  2.901272
H    -7.707136  -1.373020  1.973952
O    2.023316  -0.874902  3.528114
H    1.215451  -0.934175  4.078183
Ca    3.052706  0.551578  -0.333530
