28
Energy: -35056.5531415 eV PBE+vdW (tier 2 basis)
N    0.300142  -0.749481  -0.015210
C    0.267892  -0.231367  1.340929
C    1.711982  0.261668  1.442424
O    2.061792  1.410913  1.019031
H    0.506782  -1.739469  -0.115021
H    -0.474883  -0.468076  -0.609309
H    -0.342555  0.681791  1.341031
C    -0.277380  -1.126766  2.482143
C    0.180016  -2.596741  2.578688
C    -0.694639  -3.357897  3.595714
N    -0.331059  -4.773826  3.680511
C    -1.163515  -5.772940  4.051535
N    -0.767077  -7.040556  3.902275
N    -2.381062  -5.505330  4.535100
H    -1.367881  -1.120904  2.333157
H    -0.108497  -0.610102  3.440564
H    1.234129  -2.687850  2.907874
H    0.101248  -3.103781  1.605380
H    -1.742690  -3.298072  3.268977
H    -0.620051  -2.876548  4.584983
H    0.656089  -5.011093  3.650665
H    -1.257233  -7.803666  4.357751
H    -3.064043  -6.246852  4.655343
H    -2.600136  -4.617276  4.970238
H    0.016503  -7.290149  3.309574
O    2.684356  -0.492106  1.880067
H    2.356437  -1.345199  2.237731
Ca    3.088186  3.037436  0.293419
