28
Energy: -35057.2998653 eV PBE+vdW (tier 2 basis)
N    2.469273  -0.752144  2.059607
C    1.004030  -0.689358  1.721931
C    0.801514  0.511511  0.782142
O    1.792745  1.138490  0.347912
H    2.589737  -0.406563  3.020311
H    2.750928  -1.736872  2.110425
H    0.776368  -1.571891  1.096997
C    0.059324  -0.690241  2.950372
C    -0.013414  -2.031199  3.708188
C    -1.024532  -1.965162  4.870365
N    -1.132306  -3.256466  5.551818
C    -2.210422  -3.689957  6.245728
N    -2.265536  -4.967621  6.631055
N    -3.224891  -2.862456  6.519207
H    -0.957714  -0.436066  2.609921
H    0.353014  0.130704  3.625736
H    0.977826  -2.298973  4.108985
H    -0.312067  -2.834342  3.017267
H    -2.019295  -1.710312  4.476515
H    -0.729087  -1.173549  5.579731
H    -0.283825  -3.802978  5.666150
H    -2.933517  -5.279905  7.328925
H    -4.098409  -3.223092  6.891218
H    -3.096197  -1.859032  6.572457
H    -1.666142  -5.676992  6.224032
O    -0.368892  0.885510  0.365951
H    -1.122609  0.364791  0.711498
Ca    3.866095  0.709166  0.541558
