28
Energy: -35057.2895655 eV PBE+vdW (tier 2 basis)
N    1.279335  -0.133114  -0.112850
C    0.323817  0.355090  0.944461
C    1.175555  0.819335  2.133205
O    2.412435  0.947973  2.006861
H    1.302746  -1.160911  -0.068840
H    0.867467  0.062620  -1.032579
H    -0.139710  1.279473  0.555023
C    -0.801580  -0.671549  1.259531
C    -2.052707  -0.136245  1.992323
C    -3.203398  -1.167283  1.959588
N    -4.398908  -0.648398  2.623180
C    -5.338344  -1.394523  3.254325
N    -5.318357  -2.729410  3.179928
N    -6.271753  -0.777885  3.982626
H    -0.372872  -1.526003  1.806861
H    -1.128875  -1.057869  0.281820
H    -2.390345  0.799714  1.519016
H    -1.856389  0.082786  3.057168
H    -2.892123  -2.081477  2.484106
H    -3.423443  -1.433948  0.912198
H    -4.669591  0.308857  2.414128
H    -4.896155  -3.214307  2.396992
H    -7.111552  -1.262536  4.284248
H    -6.174414  0.188886  4.273253
H    -5.915767  -3.287501  3.782819
O    0.649388  1.137500  3.277070
H    -0.322768  1.012103  3.311262
Ca    3.618307  0.687622  0.261278
