28
Energy: -35057.9825221 eV PBE+vdW (tier 2 basis)
N    0.366492  0.447856  0.195994
C    0.491009  0.206493  1.695300
C    1.988268  0.048146  2.018544
O    2.349868  -0.369626  3.160098
H    0.268500  -0.431942  -0.330871
H    -0.444945  1.040740  -0.032349
H    0.225284  1.170525  2.161885
C    -0.489748  -0.843145  2.239451
C    -0.432051  -2.272189  1.668532
C    -1.484382  -3.155620  2.371299
N    -1.531594  -4.505171  1.806890
C    -2.607337  -5.327097  1.840175
N    -2.583310  -6.458062  1.129359
N    -3.694532  -5.003869  2.547672
H    -1.504081  -0.432336  2.117068
H    -0.313275  -0.865642  3.325139
H    0.570935  -2.703897  1.814762
H    -0.643857  -2.288798  0.586339
H    -2.478640  -2.704029  2.242667
H    -1.267483  -3.191464  3.452106
H    -0.649027  -4.945341  1.563740
H    -1.910032  -6.610479  0.386910
H    -4.556294  -5.530450  2.440248
H    -3.650597  -4.373364  3.339399
H    -3.263682  -7.194822  1.287102
O    2.846968  0.456630  1.158203
H    1.229377  0.913467  -0.141781
Ca    4.454167  0.242486  2.728121
