28
Energy: -35057.9778844 eV PBE+vdW (tier 2 basis)
N    0.698790  -0.634039  0.245888
C    0.164422  0.571404  1.011770
C    1.387788  1.359906  1.520456
O    2.545013  1.071232  1.050578
H    0.108417  -0.882625  -0.559860
H    0.778088  -1.466895  0.847628
H    -0.298680  1.223639  0.251934
C    -0.883585  0.205413  2.074259
C    -2.228774  -0.271555  1.486198
C    -3.416057  -0.262002  2.475269
N    -3.481145  -1.384603  3.419189
C    -4.484611  -2.293239  3.492656
N    -4.715500  -2.919064  4.650314
N    -5.229680  -2.585752  2.422801
H    -1.042385  1.127456  2.653419
H    -0.456471  -0.529206  2.776972
H    -2.138294  -1.275595  1.041809
H    -2.514701  0.411101  0.669962
H    -4.351678  -0.246956  1.903304
H    -3.412209  0.672614  3.056214
H    -2.911905  -1.314375  4.256941
H    -5.304441  -3.745009  4.694994
H    -4.395259  -2.543976  5.536450
H    -6.087744  -3.120264  2.515290
H    -4.948389  -2.339579  1.482739
O    1.227635  2.321692  2.330263
H    1.655043  -0.409137  -0.091643
Ca    3.384310  2.860413  2.156207
