28
Energy: -35057.9867368 eV PBE+vdW (tier 2 basis)
N    1.099583  -0.748166  0.292989
C    0.326066  0.416377  0.903142
C    1.360172  1.337548  1.580174
O    2.604156  1.153148  1.330667
H    0.678270  -1.085190  -0.583940
H    1.164706  -1.547786  0.939639
H    -0.054729  0.997445  0.045925
C    -0.854832  -0.025938  1.781899
C    -1.996398  -0.689004  0.981878
C    -3.360556  -0.772842  1.689012
N    -3.423892  -1.809052  2.729039
C    -4.441552  -1.916769  3.621449
N    -4.404556  -2.889841  4.536457
N    -5.449752  -1.040961  3.617949
H    -1.222290  0.893665  2.260475
H    -0.494231  -0.669976  2.599936
H    -1.711135  -1.695376  0.631204
H    -2.181625  -0.099077  0.070594
H    -4.121192  -0.962999  0.914128
H    -3.590678  0.196300  2.155228
H    -2.945830  -2.682907  2.525173
H    -5.219125  -3.120112  5.096610
H    -3.568670  -3.437853  4.703007
H    -6.135617  -1.036286  4.366871
H    -5.677828  -0.488095  2.800278
O    0.970697  2.300774  2.306029
H    2.070403  -0.432542  0.102343
Ca    3.066434  3.045513  2.480845
