28
Energy: -35057.3474151 eV PBE+vdW (tier 2 basis)
N    2.632921  0.014485  1.799123
C    1.365950  -0.797940  1.919529
C    0.276567  -0.021056  1.191676
O    0.543830  0.951403  0.448121
H    2.773206  0.499113  2.696486
H    3.424538  -0.638244  1.755813
H    1.512242  -1.708416  1.311698
C    1.026576  -1.221002  3.385164
C    0.647503  -2.697704  3.640427
C    -0.822092  -3.094914  3.395509
N    -1.093646  -4.488322  3.761104
C    -1.408992  -4.972808  4.981842
N    -1.345907  -6.288891  5.198262
N    -1.761496  -4.149894  5.979119
H    0.266380  -0.544066  3.802112
H    1.940265  -1.035099  3.968179
H    0.877315  -2.896704  4.697045
H    1.309089  -3.361856  3.062893
H    -1.102088  -2.999819  2.339006
H    -1.499272  -2.421870  3.940622
H    -1.031754  -5.174868  3.016310
H    -1.784767  -6.713319  6.009379
H    -1.918537  -4.517455  6.912258
H    -2.153327  -3.235292  5.792110
H    -0.892966  -6.920513  4.546844
O    -0.936119  -0.457717  1.369759
H    -1.594227  0.053371  0.843978
Ca    2.524809  1.728396  0.021632
