28
Energy: -35056.7726108 eV PBE+vdW (tier 2 basis)
N    -0.281153  0.098213  0.132201
C    0.067984  -0.268604  1.493075
C    1.569838  -0.491757  1.285869
O    2.409172  0.466973  1.305234
H    -0.668643  -0.641383  -0.448031
H    -0.767359  0.980823  0.010600
H    -0.028455  0.611133  2.144585
C    -0.685574  -1.461797  2.111016
C    -2.167047  -1.142651  2.391552
C    -2.916593  -2.342704  2.993915
N    -4.313085  -1.993440  3.268953
C    -5.336126  -2.866763  3.376504
N    -6.589644  -2.404282  3.426688
N    -5.108622  -4.185124  3.403311
H    -0.184701  -1.756653  3.047226
H    -0.633920  -2.331644  1.428339
H    -2.670682  -0.832020  1.464774
H    -2.220139  -0.292707  3.090988
H    -2.413596  -2.674003  3.918178
H    -2.910868  -3.182666  2.283688
H    -4.508186  -1.039287  3.557463
H    -7.359145  -2.996039  3.721936
H    -5.876591  -4.844008  3.324848
H    -4.215984  -4.565230  3.693153
H    -6.820378  -1.454734  3.157396
O    2.066113  -1.657922  0.970674
H    1.403758  -2.380024  1.020108
Ca    4.159980  1.502550  0.977946
