28
Energy: -35057.2746742 eV PBE+vdW (tier 2 basis)
N    1.439626  -0.711575  -0.797886
C    0.342451  -0.254669  0.129855
C    0.988497  0.030554  1.490168
O    2.216857  -0.129712  1.654596
H    1.301109  -1.713891  -0.981908
H    1.288865  -0.273273  -1.713776
H    -0.016165  0.722317  -0.238365
C    -0.853820  -1.252245  0.143764
C    -2.150677  -0.798651  0.849535
C    -3.324507  -1.746923  0.514227
N    -4.539152  -1.365208  1.235160
C    -5.807997  -1.565437  0.803830
N    -6.814307  -0.984221  1.460987
N    -6.054526  -2.306974  -0.281386
H    -0.513823  -2.212056  0.564688
H    -1.085451  -1.434221  -0.917268
H    -2.426919  0.222496  0.542563
H    -2.018032  -0.808528  1.945241
H    -3.042087  -2.786541  0.750111
H    -3.537943  -1.688460  -0.562182
H    -4.445298  -1.125707  2.218312
H    -6.661673  -0.218459  2.108149
H    -6.981093  -2.317759  -0.697498
H    -5.420062  -3.036478  -0.584236
H    -7.776019  -1.278406  1.320808
O    0.302655  0.484366  2.497798
H    -0.647984  0.619658  2.306588
Ca    3.731475  -0.428996  0.177127
