28
Energy: -35057.1042401 eV PBE+vdW (tier 2 basis)
N    2.649459  -0.464159  1.942360
C    1.439078  -1.221845  1.469624
C    0.456275  -0.197200  0.894361
O    0.808688  0.990302  0.727824
H    2.574235  -0.333695  2.959433
H    3.468998  -1.072496  1.831260
H    1.761981  -1.806152  0.588935
C    0.849038  -2.241129  2.483405
C    0.225019  -1.664217  3.767124
C    -0.114603  -2.709301  4.850145
N    -1.286724  -3.530853  4.520776
C    -1.567156  -4.725392  5.109181
N    -2.643613  -5.405967  4.708578
N    -0.762624  -5.236455  6.044345
H    1.669670  -2.930449  2.736050
H    0.122584  -2.875604  1.949062
H    -0.671268  -1.064135  3.539091
H    0.924233  -0.968465  4.258705
H    -0.275813  -2.173731  5.799401
H    0.744016  -3.382290  4.986412
H    -2.105354  -3.027988  4.186157
H    -2.997558  -6.195862  5.239711
H    -0.888184  -6.190760  6.369761
H    -0.148436  -4.653826  6.600992
H    -3.145302  -5.168137  3.860530
O    -0.740453  -0.532500  0.511251
H    -0.944716  -1.483882  0.617302
Ca    2.782532  1.809189  0.887224
