28
Energy: -35057.1719395 eV PBE+vdW (tier 2 basis)
N    1.147068  -1.386631  1.309684
C    0.150922  -0.461376  0.663742
C    0.760698  0.949066  0.679588
O    1.928746  1.123292  1.089939
H    0.796361  -1.631220  2.244684
H    1.143965  -2.277531  0.801668
H    0.097923  -0.734440  -0.405590
C    -1.276565  -0.538079  1.270137
C    -2.005834  -1.867964  0.994777
C    -3.357576  -2.034087  1.724836
N    -4.471113  -1.222427  1.215971
C    -5.583079  -1.709172  0.608951
N    -6.719392  -1.010853  0.669394
N    -5.548594  -2.865691  -0.059150
H    -1.877972  0.289780  0.860553
H    -1.207706  -0.348310  2.354857
H    -1.385475  -2.714344  1.329204
H    -2.147293  -1.994835  -0.089741
H    -3.241179  -1.807048  2.794966
H    -3.655510  -3.089210  1.678264
H    -4.581746  -0.296032  1.616410
H    -6.878988  -0.303295  1.378706
H    -4.681103  -3.293313  -0.355927
H    -6.405274  -3.318383  -0.362664
H    -7.504922  -1.227236  0.063020
O    0.123519  1.989225  0.234475
H    -0.779111  1.811705  -0.099658
Ca    3.413232  -0.314591  1.603904
