28
Energy: -35057.2737127 eV PBE+vdW (tier 2 basis)
N    0.991949  0.475745  -0.007922
C    0.152036  0.269293  1.228960
C    1.094386  -0.174969  2.348771
O    2.248171  -0.576227  2.083549
H    0.547144  -0.026475  -0.785713
H    0.918866  1.462180  -0.284384
H    -0.284685  1.237477  1.523746
C    -1.008309  -0.736488  0.961216
C    -2.048128  -0.913883  2.087128
C    -3.275435  -1.711163  1.592598
N    -4.230269  -1.937459  2.678153
C    -5.571897  -2.060923  2.537748
N    -6.340476  -2.057326  3.629598
N    -6.129344  -2.154681  1.325771
H    -0.579705  -1.714045  0.687734
H    -1.521726  -0.347951  0.067239
H    -2.395163  0.066816  2.450049
H    -1.601951  -1.455209  2.936869
H    -2.948048  -2.670333  1.157630
H    -3.787277  -1.139081  0.806235
H    -3.856142  -2.227517  3.577363
H    -7.306975  -2.366661  3.595632
H    -7.136041  -2.077863  1.214794
H    -5.617971  -2.516850  0.529817
H    -5.998291  -1.729087  4.526016
O    0.737134  -0.153641  3.600132
H    -0.147993  0.231107  3.763620
Ca    3.377832  -0.231493  0.301921
