28
Energy: -35057.1714295 eV PBE+vdW (tier 2 basis)
N    2.041194  0.778580  2.633012
C    1.533576  -0.596281  2.289640
C    1.627689  -0.749587  0.763507
O    2.155403  0.149789  0.073783
H    1.233483  1.365013  2.879530
H    2.581404  0.720446  3.502830
H    2.262152  -1.322852  2.692256
C    0.130754  -0.921376  2.870593
C    0.101596  -1.055744  4.405953
C    -1.307608  -1.213427  5.020021
N    -1.960404  -2.513104  4.814271
C    -2.248702  -3.409063  5.792039
N    -3.266535  -4.256344  5.622630
N    -1.518388  -3.462665  6.909548
H    -0.225514  -1.863708  2.423488
H    -0.577171  -0.145079  2.533619
H    0.525426  -0.152018  4.871421
H    0.742040  -1.895779  4.716453
H    -1.980888  -0.436008  4.629330
H    -1.243226  -1.031615  6.100266
H    -2.516946  -2.616719  3.971461
H    -3.382858  -5.068569  6.221271
H    -1.830372  -4.003115  7.710488
H    -0.600663  -3.042188  6.977013
H    -4.010029  -4.077503  4.955951
O    1.216877  -1.813628  0.142946
H    0.830187  -2.505737  0.716859
Ca    3.221522  1.885280  0.695820
