28
Energy: -35056.6424682 eV PBE+vdW (tier 2 basis)
N    0.516406  -1.457518  -0.697653
C    -0.310776  -0.526061  -0.018380
C    0.184081  0.937238  -0.014403
O    1.365011  1.277257  -0.334915
H    1.382596  -1.744341  -0.255749
H    0.554630  -1.422448  -1.709506
H    -1.273980  -0.462100  -0.563505
C    -0.637133  -0.990795  1.439975
C    -1.484874  -2.275431  1.434865
C    -1.711917  -2.842002  2.845498
N    -2.498437  -4.076938  2.769611
C    -3.255605  -4.595447  3.757132
N    -3.200826  -4.091767  4.995947
N    -4.088107  -5.605937  3.484128
H    -1.161308  -0.194064  1.990742
H    0.316532  -1.155404  1.966861
H    -0.979055  -3.027933  0.812058
H    -2.460619  -2.073088  0.967637
H    -2.268994  -2.120831  3.461490
H    -0.743010  -3.033635  3.336845
H    -2.364212  -4.663940  1.951549
H    -3.876993  -4.371936  5.698763
H    -4.504201  -6.161655  4.223898
H    -4.345175  -5.844471  2.533131
H    -2.394527  -3.575072  5.324326
O    -0.616521  1.930291  0.267066
H    -1.528826  1.648564  0.492959
Ca    2.946840  2.484466  -0.913369
