28
Energy: -35057.1103139 eV PBE+vdW (tier 2 basis)
N    0.355173  1.569928  1.744799
C    0.782483  0.252555  2.344692
C    1.835299  -0.346813  1.409007
O    1.945053  0.069347  0.234910
H    -0.670080  1.618577  1.771522
H    0.650862  2.322891  2.377655
H    1.265552  0.443221  3.316833
C    -0.441289  -0.687239  2.574538
C    -0.154727  -2.036504  3.261850
C    -1.418407  -2.897014  3.517070
N    -2.243509  -2.501557  4.661299
C    -2.175706  -3.020668  5.912931
N    -3.024039  -2.579454  6.844506
N    -1.248872  -3.929255  6.235061
H    -0.934590  -0.866937  1.605137
H    -1.141242  -0.105324  3.195211
H    0.370643  -1.880771  4.217655
H    0.493133  -2.656351  2.623425
H    -1.112047  -3.946664  3.618911
H    -2.071988  -2.885883  2.634529
H    -3.109203  -2.018050  4.445527
H    -3.102145  -3.034775  7.748548
H    -1.188793  -4.288594  7.182984
H    -0.766403  -4.471043  5.529061
H    -3.667173  -1.815363  6.670780
O    2.641843  -1.294191  1.787985
H    2.561327  -1.548405  2.730033
Ca    1.270846  1.926336  -0.571457
