28
Energy: -35057.1109793 eV PBE+vdW (tier 2 basis)
N    0.358908  0.338000  0.567519
C    -0.127214  0.395869  1.995179
C    1.108567  0.307619  2.894136
O    2.191200  -0.119445  2.436669
H    -0.236380  -0.319998  0.050929
H    0.162615  1.243224  0.123718
H    -0.603115  1.374309  2.171018
C    -1.174884  -0.724005  2.281233
C    -1.816410  -0.725184  3.682482
C    -2.892563  -1.822238  3.884679
N    -4.205741  -1.549280  3.295119
C    -5.269446  -0.999707  3.933152
N    -6.415217  -0.842767  3.266222
N    -5.173053  -0.575525  5.197798
H    -0.704868  -1.703126  2.092111
H    -1.961427  -0.586281  1.522151
H    -2.261558  0.257603  3.905627
H    -1.051789  -0.925263  4.448543
H    -2.995979  -2.016545  4.960617
H    -2.547805  -2.776705  3.464886
H    -4.431926  -2.057076  2.446152
H    -6.496604  -1.048472  2.276913
H    -5.967323  -0.137926  5.654934
H    -4.435811  -0.897565  5.812325
H    -7.271034  -0.570617  3.739750
O    1.084045  0.664098  4.144731
H    0.234604  1.047273  4.445046
Ca    2.802211  -0.236268  0.395362
