28
Energy: -35057.1623662 eV PBE+vdW (tier 2 basis)
N    1.158135  -1.386939  0.827131
C    0.155038  -0.278107  0.659143
C    0.820134  1.011442  1.170186
O    2.040805  1.017643  1.440319
H    0.900948  -1.928353  1.662794
H    1.044115  -2.050791  0.053672
H    0.035756  -0.115320  -0.427634
C    -1.241061  -0.569207  1.273488
C    -1.987388  -1.739212  0.598053
C    -3.314708  -2.162236  1.265598
N    -4.471731  -1.349919  0.877841
C    -5.740562  -1.814689  0.767971
N    -6.666661  -1.045944  0.187291
N    -6.065125  -3.032450  1.210917
H    -1.849314  0.347353  1.195171
H    -1.123600  -0.757275  2.353688
H    -1.353375  -2.638235  0.622982
H    -2.166951  -1.519685  -0.465523
H    -3.199804  -2.179162  2.362569
H    -3.524994  -3.189894  0.942627
H    -4.378492  -0.339819  0.864059
H    -6.418253  -0.269598  -0.415336
H    -5.532751  -3.501975  1.933882
H    -6.957491  -3.451131  0.965617
H    -7.656078  -1.256309  0.275691
O    0.178039  2.133017  1.290153
H    -0.772932  2.092305  1.063414
Ca    3.499299  -0.513511  1.185237
