28
Energy: -35057.1070774 eV PBE+vdW (tier 2 basis)
N    2.252929  -0.371716  1.071381
C    1.034787  -1.128328  0.612728
C    0.264335  -0.200701  -0.335180
O    0.797056  0.849985  -0.754050
H    2.055964  0.015344  2.004050
H    3.006003  -1.048596  1.240833
H    1.395984  -1.946237  -0.037185
C    0.226911  -1.763550  1.782191
C    -0.792088  -2.855287  1.378810
C    -1.168563  -3.853283  2.505543
N    -2.112433  -3.362528  3.510068
C    -3.422620  -3.697391  3.628173
N    -4.004101  -4.562258  2.791364
N    -4.150382  -3.113704  4.583969
H    -0.255024  -0.967797  2.371245
H    0.981601  -2.230375  2.434155
H    -0.367595  -3.470778  0.569384
H    -1.737299  -2.422563  1.005911
H    -0.262179  -4.183889  3.032158
H    -1.566822  -4.756382  2.029741
H    -1.708379  -2.933072  4.336447
H    -5.003307  -4.735303  2.847801
H    -5.071855  -3.460289  4.832394
H    -3.798080  -2.338278  5.133561
H    -3.471147  -5.241787  2.262710
O    -0.923279  -0.492035  -0.772551
H    -1.279502  -1.332768  -0.413591
Ca    2.794085  1.550567  -0.445060
