28
Energy: -35057.1149648 eV PBE+vdW (tier 2 basis)
N    0.355063  -0.182130  0.189346
C    0.004042  0.108053  1.624892
C    1.318679  0.028818  2.418066
O    2.412034  0.058486  1.812529
H    0.157879  -1.175338  0.007472
H    -0.310580  0.316742  -0.411665
H    -0.285092  1.173609  1.671165
C    -1.172638  -0.752773  2.176358
C    -1.965379  -0.113242  3.340341
C    -3.011458  -1.025666  4.022348
N    -4.294788  -1.096180  3.320609
C    -5.504187  -1.193212  3.928193
N    -6.610401  -1.013682  3.200900
N    -5.597822  -1.441640  5.237123
H    -0.794890  -1.747135  2.463792
H    -1.855552  -0.915901  1.328893
H    -2.450132  0.816339  3.006024
H    -1.297120  0.202331  4.161036
H    -3.213225  -0.598909  5.012952
H    -2.593723  -2.034491  4.177099
H    -4.295568  -1.284020  2.323310
H    -6.591668  -0.540699  2.304469
H    -6.482626  -1.326945  5.723018
H    -4.863954  -1.917162  5.749264
H    -7.522310  -1.288214  3.553387
O    1.353023  -0.033369  3.713864
H    0.468291  -0.047316  4.135997
Ca    2.797102  0.196648  -0.281781
