28
Energy: -35058.0085005 eV PBE+vdW (tier 2 basis)
N    -0.427388  1.203687  2.021761
C    0.487249  0.013342  2.295406
C    1.827769  0.313940  1.595745
O    2.728428  -0.575907  1.538659
H    -1.045442  1.037498  1.213673
H    -1.021407  1.442596  2.827731
H    0.703459  0.043339  3.376264
C    -0.156233  -1.334737  1.927052
C    -1.401390  -1.679543  2.771038
C    -2.128567  -2.985271  2.383876
N    -1.540953  -4.190840  2.975019
C    -2.240344  -5.290207  3.343057
N    -1.642460  -6.222569  4.092034
N    -3.518456  -5.440786  2.984336
H    0.637061  -2.085266  2.056470
H    -0.404368  -1.337743  0.852439
H    -2.158508  -0.887181  2.659737
H    -1.146423  -1.710075  3.841590
H    -2.186785  -3.077271  1.286342
H    -3.156376  -2.911899  2.761885
H    -0.531363  -4.291826  2.977837
H    -0.805803  -6.022697  4.628036
H    -4.094638  -6.160728  3.409878
H    -3.911045  -4.968083  2.178823
H    -2.050746  -7.144588  4.209020
O    2.027564  1.492250  1.130871
H    0.169238  2.021376  1.786544
Ca    4.141928  0.887187  0.612877
