28
Energy: -35057.1401743 eV PBE+vdW (tier 2 basis)
N    0.832401  -0.541331  -0.081179
C    0.304795  -0.286588  1.306083
C    1.410588  -0.695502  2.288565
O    2.541876  -1.014494  1.862440
H    0.413605  -1.415849  -0.424766
H    0.448213  0.176184  -0.706806
H    0.221798  0.809408  1.420391
C    -1.105201  -0.906432  1.539714
C    -1.843863  -0.428266  2.811673
C    -3.380604  -0.553936  2.788265
N    -3.857850  -1.937130  2.908261
C    -5.144036  -2.312221  2.676173
N    -5.474524  -3.600579  2.794344
N    -6.059485  -1.418084  2.294796
H    -1.032432  -2.004357  1.513255
H    -1.702327  -0.608464  0.664435
H    -1.652486  0.645181  2.971080
H    -1.481277  -0.956038  3.712217
H    -3.764507  -0.136534  1.846033
H    -3.771635  0.063038  3.613941
H    -3.355355  -2.534973  3.559692
H    -4.774747  -4.329676  2.872301
H    -6.979309  -1.718255  1.985134
H    -5.954169  -0.427473  2.479692
H    -6.445205  -3.897889  2.813147
O    1.239042  -0.674032  3.576212
H    0.343270  -0.393051  3.857786
Ca    3.322999  -0.839314  -0.118748
