28
Energy: -35057.1249128 eV PBE+vdW (tier 2 basis)
N    2.418449  -0.437938  0.894099
C    1.177944  -1.156848  0.434411
C    0.476330  -0.236881  -0.572484
O    1.064344  0.773971  -1.014360
H    2.218580  -0.009050  1.807622
H    3.136840  -1.140402  1.104804
H    1.515630  -2.019086  -0.169113
C    0.311851  -1.699560  1.609094
C    -0.751999  -2.759122  1.233237
C    -1.199878  -3.677203  2.398398
N    -2.140262  -3.087037  3.356089
C    -3.373596  -3.573644  3.651737
N    -4.072460  -4.273776  2.754205
N    -3.898204  -3.328340  4.854497
H    -0.143321  -0.854195  2.148688
H    1.027018  -2.172482  2.300084
H    -0.339804  -3.434439  0.466270
H    -1.662533  -2.293819  0.815371
H    -0.315009  -4.030203  2.950128
H    -1.662855  -4.577290  1.976878
H    -1.748866  -2.476401  4.066875
H    -4.906271  -4.784877  3.027677
H    -4.885910  -3.476809  5.039429
H    -3.324144  -3.069272  5.649719
H    -3.857457  -4.257829  1.765601
O    -0.708731  -0.497290  -1.035916
H    -1.110076  -1.307532  -0.655696
Ca    3.079393  1.404352  -0.674345
