28
Energy: -35057.2743773 eV PBE+vdW (tier 2 basis)
N    -0.014056  0.594459  -0.771585
C    0.054955  -0.063418  0.583478
C    1.537586  -0.243733  0.926074
O    2.423016  0.107154  0.117065
H    -0.392099  -0.091708  -1.437686
H    -0.735812  1.323618  -0.738283
H    -0.337875  0.656097  1.322561
C    -0.810243  -1.357697  0.638650
C    -1.022807  -2.012587  2.021006
C    -2.137612  -3.081823  1.962183
N    -2.289711  -3.762122  3.248583
C    -3.440320  -4.291252  3.730396
N    -4.530002  -4.379955  2.960297
N    -3.483350  -4.697519  5.001422
H    -0.393317  -2.095856  -0.065174
H    -1.793659  -1.059676  0.242759
H    -1.302787  -1.257601  2.772849
H    -0.097780  -2.511651  2.356749
H    -1.915490  -3.807570  1.162077
H    -3.092549  -2.593642  1.722781
H    -1.441997  -4.051378  3.728698
H    -5.429728  -4.617773  3.367358
H    -4.231034  -5.295741  5.339300
H    -2.786117  -4.411960  5.680257
H    -4.466440  -4.438950  1.950898
O    1.927127  -0.724454  2.070369
H    1.195657  -0.951317  2.680181
Ca    2.225443  1.334056  -1.621263
