28
Energy: -35057.8895065 eV PBE+vdW (tier 2 basis)
N    1.775301  -1.057720  0.351357
C    0.829466  -0.459780  1.385570
C    1.686670  0.001486  2.580488
O    1.128199  0.343743  3.666258
H    1.430428  -0.925720  -0.610505
H    2.701952  -0.600628  0.443030
H    0.470317  0.481639  0.936425
C    -0.400068  -1.332900  1.687022
C    -0.150109  -2.754560  2.220380
C    -1.421553  -3.445132  2.766432
N    -2.429900  -3.807978  1.762308
C    -2.890371  -5.060439  1.517975
N    -4.117935  -5.217635  1.016911
N    -2.128660  -6.133048  1.753354
H    -1.014450  -1.361142  0.774045
H    -0.980900  -0.755616  2.422422
H    0.559470  -2.722899  3.062478
H    0.296518  -3.401846  1.447287
H    -1.902660  -2.793104  3.511155
H    -1.132250  -4.354085  3.307222
H    -3.051057  -3.065812  1.454117
H    -4.822659  -4.490733  1.080771
H    -2.525484  -7.067353  1.737139
H    -1.126487  -6.068704  1.874588
H    -4.416790  -6.102906  0.618871
O    2.951361  0.130118  2.414211
H    1.919721  -2.067124  0.497801
Ca    3.063929  1.169878  4.416889
