28
Energy: -35057.2364716 eV PBE+vdW (tier 2 basis)
N    1.486988  -0.736111  -0.819799
C    0.286281  -0.134468  -0.130637
C    0.791821  0.580296  1.124655
O    1.963421  0.407498  1.524618
H    1.313697  -1.741048  -0.944616
H    1.520622  -0.375398  -1.780479
H    -0.142976  0.636057  -0.792152
C    -0.803077  -1.212553  0.152533
C    -2.165525  -0.717209  0.680598
C    -3.199826  -1.868743  0.712385
N    -4.454830  -1.490931  1.367059
C    -5.704778  -1.608731  0.856789
N    -6.735641  -1.753681  1.691613
N    -5.918915  -1.571719  -0.463140
H    -0.387867  -1.965247  0.842289
H    -0.963254  -1.718552  -0.812955
H    -2.553163  0.099717  0.051080
H    -2.065683  -0.330807  1.707221
H    -2.777718  -2.731095  1.251710
H    -3.423832  -2.220398  -0.302418
H    -4.416703  -1.382078  2.377097
H    -6.613057  -2.061074  2.650798
H    -6.824266  -1.823182  -0.847616
H    -5.259804  -1.145923  -1.101722
H    -7.691246  -1.601995  1.382668
O    0.037229  1.390511  1.808377
H    -0.852671  1.536465  1.427526
Ca    3.627772  -0.369600  0.433519
