28
Energy: -35057.0908129 eV PBE+vdW (tier 2 basis)
N    0.705025  -0.238908  -0.734454
C    -0.005567  0.557658  0.324162
C    0.884705  0.542986  1.575071
O    2.068330  0.147741  1.492410
H    0.334809  -1.197825  -0.724349
H    0.426575  0.127613  -1.651958
H    0.027575  1.612236  -0.005873
C    -1.501296  0.212471  0.551785
C    -1.816175  -1.207202  1.063735
C    -3.235503  -1.401596  1.641932
N    -4.302573  -1.445706  0.639131
C    -5.451923  -2.157198  0.768470
N    -6.271683  -2.257481  -0.281414
N    -5.754423  -2.773841  1.913673
H    -2.015416  0.421693  -0.398653
H    -1.910323  0.964995  1.248773
H    -1.133939  -1.466375  1.889561
H    -1.655278  -1.959862  0.276201
H    -3.440164  -0.619566  2.393280
H    -3.239318  -2.367313  2.163697
H    -4.327739  -0.719717  -0.070071
H    -5.964202  -2.048575  -1.224473
H    -5.374469  -2.474819  2.804092
H    -6.515209  -3.445931  1.953911
H    -7.224486  -2.592551  -0.176112
O    0.477367  0.989450  2.724365
H    -0.443863  1.321538  2.731642
Ca    3.174162  -0.364916  -0.264533
