28
Energy: -35058.099108 eV PBE+vdW (tier 2 basis)
N    2.558810  -0.396889  1.349941
C    2.124900  -0.781251  2.760829
C    2.513284  -2.260029  2.961993
O    3.276859  -2.820894  2.098754
H    1.792443  -0.508923  0.669994
H    3.322007  -1.037765  1.056926
H    2.779956  -0.212068  3.441350
C    0.654548  -0.451957  3.054844
C    0.335291  1.054895  3.131424
C    -1.094804  1.308546  3.649821
N    -1.353031  2.740372  3.840607
C    -2.517617  3.395926  3.619747
N    -2.773154  4.512585  4.306197
N    -3.403198  2.957053  2.719067
H    0.434648  -0.927402  4.022300
H    0.010003  -0.958967  2.317314
H    0.450969  1.545311  2.151863
H    1.051377  1.538668  3.815706
H    -1.242953  0.783665  4.607675
H    -1.835160  0.898311  2.952752
H    -0.704724  3.226961  4.454349
H    -2.281010  4.743036  5.162565
H    -3.498899  5.159166  4.012395
H    -3.145484  2.318570  1.978079
H    -4.328490  3.369728  2.659585
O    2.127439  -2.877677  3.999393
H    2.893547  0.574492  1.289392
Ca    3.335442  -4.658464  3.423137
