28
Energy: -35056.631635 eV PBE+vdW (tier 2 basis)
N    0.774611  0.324226  0.573963
C    0.666831  -0.008848  1.991252
C    2.129918  -0.398506  2.214190
O    3.047425  0.470988  2.368413
H    0.485306  -0.420183  -0.058576
H    0.340344  1.206121  0.311955
H    0.494815  0.911719  2.566516
C    -0.407694  -1.056325  2.340018
C    -0.696205  -1.292539  3.834463
C    -1.907037  -2.226794  4.014091
N    -2.246279  -2.407292  5.427528
C    -3.462659  -2.757762  5.899117
N    -3.695616  -2.701200  7.214572
N    -4.437444  -3.132455  5.063889
H    -0.193536  -2.014293  1.826682
H    -1.321338  -0.687120  1.848878
H    -0.910582  -0.331442  4.325464
H    0.181823  -1.725405  4.342362
H    -1.703300  -3.201686  3.539111
H    -2.780143  -1.784153  3.512880
H    -1.482666  -2.440931  6.096046
H    -4.509047  -3.147298  7.625670
H    -5.391651  -3.235394  5.394500
H    -4.240126  -3.492264  4.138119
H    -3.091778  -2.183753  7.842877
O    2.536368  -1.636138  2.142133
H    1.790730  -2.267718  2.049347
Ca    4.826494  1.463994  2.083983
