28
Energy: -35057.1058491 eV PBE+vdW (tier 2 basis)
N    -0.140833  0.435551  -0.408302
C    -0.218321  0.252222  1.082650
C    1.218644  0.221517  1.612767
O    2.174101  0.513375  0.861729
H    -0.254615  -0.483546  -0.854904
H    -0.970807  0.960368  -0.707917
H    -0.633111  1.191920  1.490471
C    -1.152563  -0.890074  1.569285
C    -0.733783  -2.329524  1.218802
C    -1.808884  -3.402285  1.491144
N    -1.998029  -3.689865  2.918943
C    -3.104373  -4.291972  3.433782
N    -4.115652  -4.662543  2.644332
N    -3.186426  -4.472558  4.754022
H    -2.146777  -0.670744  1.149910
H    -1.291850  -0.779716  2.657526
H    0.203064  -2.607157  1.729289
H    -0.516264  -2.418248  0.142005
H    -1.519696  -4.317648  0.950488
H    -2.771394  -3.061960  1.083245
H    -1.150096  -3.840476  3.460606
H    -4.998322  -4.968513  3.043823
H    -3.890393  -5.080424  5.161726
H    -2.554787  -4.012947  5.399981
H    -3.985071  -4.850473  1.657333
O    1.486996  -0.047508  2.856493
H    0.697997  -0.218690  3.409908
Ca    2.087245  1.354917  -1.107137
