28
Energy: -35057.2741493 eV PBE+vdW (tier 2 basis)
N    1.505680  -1.724255  0.191117
C    0.270500  -0.875325  0.025916
C    0.671247  0.572976  0.326204
O    1.842441  0.850495  0.662138
H    1.375125  -2.314353  1.023107
H    1.537820  -2.398519  -0.582214
H    -0.004532  -0.893881  -1.042885
C    -0.923825  -1.430082  0.858105
C    -2.314633  -0.806543  0.609350
C    -3.427975  -1.656967  1.262647
N    -4.740733  -1.032850  1.095738
C    -5.922215  -1.690712  1.010120
N    -7.015643  -1.013237  0.652585
N    -5.994725  -3.004731  1.247823
H    -0.671821  -1.368322  1.928970
H    -0.975048  -2.500307  0.603888
H    -2.521783  -0.729970  -0.469926
H    -2.366933  0.205360  1.046304
H    -3.202143  -1.808377  2.331409
H    -3.458494  -2.643042  0.778650
H    -4.809398  -0.033339  1.266181
H    -6.962159  -0.100041  0.214734
H    -5.329632  -3.475212  1.850083
H    -6.838762  -3.522578  1.021523
H    -7.944603  -1.399069  0.791245
O    -0.167904  1.559589  0.205782
H    -1.061369  1.292127  -0.091872
Ca    3.589517  -0.372835  0.531280
