28
Energy: -35058.1034148 eV PBE+vdW (tier 2 basis)
N    2.289299  -0.086827  2.911365
C    1.105490  -1.009671  3.183829
C    1.603117  -2.451512  2.956158
O    0.779251  -3.414500  2.974605
H    3.163172  -0.636653  3.028325
H    2.283080  0.268714  1.943956
H    0.905944  -0.932335  4.265415
C    -0.151566  -0.630761  2.387158
C    -0.792095  0.714888  2.784397
C    -2.094145  0.974215  1.994235
N    -2.653899  2.308543  2.227143
C    -3.891176  2.602847  2.688617
N    -4.440661  3.778284  2.373982
N    -4.565253  1.739959  3.457872
H    -0.865434  -1.451197  2.552611
H    0.081549  -0.649481  1.309053
H    -0.099590  1.550454  2.589253
H    -1.004508  0.730116  3.864486
H    -2.857169  0.225365  2.242033
H    -1.904561  0.871588  0.914509
H    -2.165034  3.083915  1.788206
H    -4.110665  4.333921  1.591917
H    -5.548914  1.886519  3.660499
H    -4.097641  1.012543  3.982679
H    -5.240913  4.140734  2.883161
O    2.860090  -2.654232  2.806754
H    2.314783  0.723855  3.544782
Ca    2.446451  -4.880291  2.771999
