28
Energy: -35057.125305 eV PBE+vdW (tier 2 basis)
N    1.068859  0.188303  -0.505234
C    0.047624  0.313094  0.599172
C    0.817317  0.349844  1.922131
O    2.009780  -0.023550  1.968740
H    0.768368  -0.562019  -1.138475
H    1.018083  1.032692  -1.087546
H    -0.475212  1.277365  0.490581
C    -1.008387  -0.833755  0.528001
C    -2.171712  -0.763153  1.537494
C    -3.211583  -1.902875  1.397489
N    -4.169009  -1.770226  0.293989
C    -5.508211  -1.598122  0.431647
N    -6.321766  -2.000711  -0.547453
N    -6.018706  -1.019587  1.522290
H    -0.488692  -1.800199  0.633675
H    -1.411013  -0.788427  -0.496556
H    -2.686524  0.207994  1.459659
H    -1.785041  -0.856350  2.564051
H    -3.779351  -1.976649  2.333134
H    -2.698839  -2.870058  1.288414
H    -3.880601  -2.125482  -0.612129
H    -6.033787  -2.684157  -1.239506
H    -5.455983  -0.470104  2.158449
H    -7.016290  -1.049344  1.709381
H    -7.292766  -1.704850  -0.581885
O    0.275393  0.765805  3.028939
H    -0.639194  1.102411  2.935818
Ca    3.400244  -0.193890  0.359731
