28
Energy: -35058.1484269 eV PBE+vdW (tier 2 basis)
N    2.626828  -0.353903  1.197020
C    2.213758  -0.597748  2.645219
C    2.754437  -1.989218  3.033204
O    3.585114  -2.568097  2.246714
H    2.886533  0.625358  1.016733
H    1.877914  -0.608935  0.536332
H    2.793245  0.120335  3.249049
C    0.711277  -0.395729  2.889633
C    0.233554  1.066172  2.776897
C    -1.257261  1.206319  3.139955
N    -1.691644  2.601329  3.039594
C    -2.729375  3.152545  3.709014
N    -2.886904  4.479026  3.688533
N    -3.574393  2.387983  4.409248
H    0.524102  -0.771080  3.906405
H    0.138853  -1.053191  2.213901
H    0.383669  1.445206  1.751452
H    0.826493  1.705536  3.448693
H    -1.412422  0.876760  4.177448
H    -1.866081  0.561576  2.483673
H    -1.303208  3.162765  2.287464
H    -2.140946  5.103079  3.401906
H    -3.756204  4.911954  3.983980
H    -3.713239  1.408692  4.191206
H    -4.250547  2.809322  5.038728
O    2.423395  -2.510827  4.139615
H    3.441275  -0.964389  0.986515
Ca    3.823776  -4.209841  3.787869
