28
Energy: -35057.483402 eV PBE+vdW (tier 2 basis)
N    1.585798  0.443098  1.920007
C    1.183513  -0.948431  1.503737
C    0.999198  -0.934009  -0.012756
O    1.395843  0.030231  -0.710387
H    0.757371  0.903622  2.320440
H    2.232955  0.369813  2.712618
H    2.061499  -1.601413  1.661922
C    -0.017518  -1.546666  2.276609
C    0.275402  -1.850396  3.757472
C    -0.945678  -2.344463  4.564513
N    -1.391872  -3.713504  4.277662
C    -1.340163  -4.756241  5.141165
N    -2.197529  -5.770082  4.994700
N    -0.436297  -4.789269  6.125270
H    -0.306284  -2.469717  1.754349
H    -0.874700  -0.857631  2.184982
H    0.622790  -0.941805  4.274622
H    1.091644  -2.585943  3.831391
H    -1.802798  -1.673485  4.404570
H    -0.715857  -2.279087  5.635304
H    -2.036085  -3.834968  3.502542
H    -2.056647  -6.653805  5.474453
H    -0.507743  -5.468831  6.875931
H    0.386568  -4.200909  6.122645
H    -3.062078  -5.671113  4.473636
O    0.455121  -1.997255  -0.518516
H    0.409617  -1.968853  -1.502610
Ca    2.396932  1.804112  -0.000269
