28
Energy: -35057.5964975 eV PBE+vdW (tier 2 basis)
N    1.846496  2.285774  1.087381
C    0.804450  1.240681  0.782782
C    -0.498000  1.974650  0.461614
O    -0.512292  3.209438  0.238426
H    1.948996  2.337563  2.109791
H    2.756535  1.937704  0.766392
H    1.087779  0.771184  -0.177374
C    0.645570  0.128188  1.843754
C    1.820583  -0.865378  1.917611
C    1.495106  -2.035995  2.865228
N    2.581798  -3.017512  2.883998
C    2.803006  -3.920953  3.866094
N    3.922414  -4.650115  3.840296
N    1.932802  -4.065569  4.871111
H    -0.273652  -0.420705  1.594110
H    0.462381  0.594408  2.826480
H    2.744066  -0.374570  2.261151
H    2.018068  -1.264173  0.908785
H    0.550698  -2.510318  2.547990
H    1.357949  -1.659496  3.889445
H    3.072338  -3.187048  2.010584
H    4.030034  -5.473154  4.424407
H    2.170988  -4.624942  5.684284
H    0.959242  -3.802894  4.776777
H    4.709487  -4.402874  3.251157
O    -1.554692  1.228183  0.387988
H    -2.360136  1.729500  0.120627
Ca    1.185986  4.534422  0.240112
