28
Energy: -35057.8708258 eV PBE+vdW (tier 2 basis)
N    1.499287  -0.982446  0.314775
C    0.622564  -0.436337  1.434906
C    1.560396  0.034654  2.563919
O    1.083395  0.334871  3.699880
H    1.072174  -0.845945  -0.612750
H    2.414326  -0.494446  0.339600
H    0.195614  0.499489  1.036225
C    -0.546452  -1.357429  1.821819
C    -0.202799  -2.784727  2.281124
C    -1.392931  -3.527840  2.934960
N    -2.501043  -3.873227  2.040155
C    -2.771867  -5.091090  1.510650
N    -3.850930  -5.233345  0.736390
N    -1.961185  -6.135205  1.713470
H    -1.246340  -1.381257  0.972989
H    -1.070237  -0.820648  2.627371
H    0.591018  -2.758881  3.044793
H    0.174369  -3.399431  1.447165
H    -1.813818  -2.915034  3.744063
H    -1.013759  -4.430358  3.430274
H    -3.275910  -3.217776  2.019069
H    -4.434089  -4.447100  0.472829
H    -2.163187  -7.033191  1.284936
H    -1.287115  -6.149771  2.468079
H    -4.169895  -6.148683  0.434981
O    2.800964  0.214666  2.295466
H    1.689055  -1.988611  0.428736
Ca    3.043394  1.221098  4.304126
