28
Energy: -35057.4365263 eV PBE+vdW (tier 2 basis)
N    0.402731  0.157514  0.015781
C    -0.115343  0.217349  1.433411
C    1.072620  0.568210  2.326386
O    2.193102  0.861886  1.846740
H    0.416248  -0.832791  -0.264650
H    -0.305859  0.570911  -0.601017
H    -0.801165  1.078365  1.504411
C    -0.865176  -1.089213  1.833192
C    -1.793449  -1.074062  3.070977
C    -3.243761  -0.644487  2.781709
N    -4.056415  -0.760952  3.994996
C    -5.349686  -1.145388  4.062439
N    -5.865750  -1.494834  5.244153
N    -6.106583  -1.200015  2.959931
H    -0.113888  -1.881576  1.969571
H    -1.456092  -1.380263  0.950372
H    -1.368567  -0.452453  3.871048
H    -1.815689  -2.099192  3.465233
H    -3.677564  -1.310231  2.022168
H    -3.288810  0.387099  2.392030
H    -3.633594  -0.468852  4.871256
H    -5.279184  -1.731172  6.036907
H    -7.018813  -1.645151  2.983138
H    -5.904117  -0.630786  2.147381
H    -6.869158  -1.562126  5.382493
O    0.837721  0.566672  3.604241
H    1.631625  0.821652  4.129587
Ca    2.696619  1.057886  -0.244883
