28
Energy: -35057.0672555 eV PBE+vdW (tier 2 basis)
N    0.888207  -0.013835  -0.236696
C    0.014877  -0.016514  0.992455
C    0.941634  0.220471  2.186025
O    2.156665  -0.059659  2.096453
H    0.507472  -0.695344  -0.903695
H    0.769232  0.888136  -0.714998
H    -0.715009  0.805769  0.927264
C    -0.733188  -1.380151  1.129128
C    -1.881258  -1.501136  2.159368
C    -3.253223  -0.997887  1.657986
N    -4.327126  -1.178596  2.637827
C    -5.383521  -2.020174  2.539413
N    -6.492549  -1.755878  3.232305
N    -5.329145  -3.104320  1.756350
H    0.013503  -2.159932  1.341676
H    -1.137020  -1.603529  0.127984
H    -1.626483  -1.017490  3.115624
H    -1.967921  -2.566760  2.414643
H    -3.540088  -1.520594  0.735371
H    -3.219903  0.072306  1.401082
H    -4.388021  -0.495358  3.386899
H    -7.202435  -2.466371  3.384024
H    -6.170238  -3.635710  1.552918
H    -4.450767  -3.540227  1.506663
H    -6.688277  -0.832605  3.605062
O    0.511838  0.679082  3.325265
H    -0.427481  0.951307  3.325490
Ca    3.317226  -0.333999  0.321114
