28
Energy: -35056.9902477 eV PBE+vdW (tier 2 basis)
N    0.863434  0.224399  0.379067
C    0.025291  0.343740  1.626450
C    0.971465  0.795053  2.742344
O    2.193356  0.541900  2.659163
H    0.500194  -0.556414  -0.179913
H    0.689188  1.049139  -0.208887
H    -0.752892  1.109599  1.479130
C    -0.643465  -1.024948  1.963595
C    -1.642343  -1.067575  3.143787
C    -3.117953  -0.745221  2.842158
N    -3.808728  -1.896625  2.244889
C    -5.084863  -1.870693  1.781041
N    -5.600919  -2.975276  1.237549
N    -5.803305  -0.744345  1.823557
H    0.159018  -1.754673  2.151372
H    -1.155043  -1.351088  1.043824
H    -1.318580  -0.416233  3.967956
H    -1.587840  -2.071944  3.590129
H    -3.210786  0.108679  2.152711
H    -3.598787  -0.461212  3.792702
H    -3.477565  -2.813784  2.533978
H    -5.028475  -3.780822  1.010921
H    -6.710038  -0.692826  1.368314
H    -5.596034  -0.003619  2.482828
H    -6.595551  -3.058404  1.050729
O    0.558266  1.419894  3.805412
H    -0.389033  1.665295  3.797519
Ca    3.324603  0.088846  0.905579
