28
Energy: -35058.0998795 eV PBE+vdW (tier 2 basis)
N    -0.025576  0.693502  2.584318
C    0.956383  -0.471718  2.517925
C    2.155081  -0.000134  1.670012
O    3.050269  -0.829561  1.327608
H    -0.511691  0.750150  3.489757
H    0.501011  1.574682  2.426002
H    1.350358  -0.590149  3.541120
C    0.310525  -1.784126  2.052065
C    -0.694873  -2.397619  3.047803
C    -1.113092  -3.822204  2.628222
N    -1.962319  -4.462535  3.638502
C    -3.051730  -5.236166  3.418003
N    -3.389547  -6.154668  4.326541
N    -3.800487  -5.086114  2.319927
H    1.146299  -2.481604  1.892368
H    -0.150108  -1.635630  1.061020
H    -1.598003  -1.775158  3.149350
H    -0.228972  -2.445856  4.045521
H    -0.215101  -4.441889  2.472673
H    -1.646325  -3.805376  1.670178
H    -1.546999  -4.570169  4.560314
H    -2.733170  -6.489462  5.023621
H    -4.521529  -5.761970  2.088935
H    -3.784932  -4.236701  1.770961
H    -4.311480  -6.580281  4.330275
O    2.253915  1.244092  1.378527
H    -0.741609  0.632934  1.845526
Ca    4.271703  0.810730  0.443926
