28
Energy: -35057.2479982 eV PBE+vdW (tier 2 basis)
N    2.365519  -0.678358  2.098969
C    0.903256  -0.544178  1.770624
C    0.755463  0.687731  0.859603
O    1.774527  1.228833  0.376614
H    2.514183  -0.308883  3.047030
H    2.590631  -1.675550  2.180828
H    0.640471  -1.398174  1.119960
C    -0.041488  -0.542803  2.997668
C    -0.107214  -1.874250  3.774004
C    -1.127672  -1.795799  4.932104
N    -1.133316  -2.993337  5.777715
C    -2.207361  -3.753815  6.098655
N    -2.205388  -4.429318  7.249802
N    -3.259692  -3.844149  5.277306
H    -1.060422  -0.301818  2.650706
H    0.242926  0.285498  3.667976
H    0.880301  -2.122786  4.193888
H    -0.377488  -2.697872  3.095472
H    -2.143416  -1.636755  4.548095
H    -0.903166  -0.927330  5.571210
H    -0.328475  -3.115773  6.386233
H    -2.858441  -5.188814  7.417840
H    -4.125404  -4.271880  5.590746
H    -3.183695  -3.650383  4.287265
H    -1.590013  -4.182151  8.017691
O    -0.396595  1.174010  0.515688
H    -1.172391  0.727238  0.911949
Ca    3.818359  0.660866  0.524360
