28
Energy: -35057.9208918 eV PBE+vdW (tier 2 basis)
N    1.024782  -1.728715  0.531387
C    0.880109  -0.394973  1.253659
C    2.298527  0.136453  1.532784
O    3.279024  -0.361261  0.872706
H    1.070652  -2.520789  1.188575
H    1.911991  -1.723743  -0.005760
H    0.488450  0.300907  0.492010
C    -0.130574  -0.417043  2.410385
C    0.077315  -1.430419  3.551191
C    -0.976449  -1.198178  4.657439
N    -0.863273  -2.151786  5.765383
C    -1.883419  -2.783442  6.396189
N    -1.724614  -3.163068  7.666615
N    -3.032431  -3.048673  5.766529
H    -1.129896  -0.549647  1.967605
H    -0.125469  0.607164  2.812847
H    1.085189  -1.324794  3.983411
H    -0.015547  -2.470791  3.197799
H    -1.988056  -1.262653  4.238550
H    -0.874231  -0.175428  5.054055
H    0.004152  -2.119758  6.294111
H    -2.350754  -3.835762  8.098850
H    -1.012691  -2.757975  8.264671
H    -3.843932  -3.373102  6.282926
H    -3.104260  -3.062369  4.757639
O    2.465112  1.123234  2.311740
H    0.242695  -1.903300  -0.116391
Ca    4.578597  1.325911  1.618095
