28
Energy: -35056.5173633 eV PBE+vdW (tier 2 basis)
N    0.339692  -1.139336  -0.484369
C    -0.030635  -0.613375  0.823113
C    1.314240  -0.858593  1.508560
O    2.287924  -0.042269  1.411515
H    0.034906  -2.092200  -0.672692
H    0.143318  -0.526509  -1.271512
H    -0.153867  0.476298  0.754307
C    -1.288586  -1.232395  1.462981
C    -1.718933  -0.618445  2.810612
C    -3.220419  -0.712783  3.129985
N    -3.681427  -2.080891  3.403971
C    -4.982019  -2.462790  3.380247
N    -5.289704  -3.744497  3.604222
N    -5.949033  -1.584768  3.100358
H    -1.189061  -2.331580  1.531961
H    -2.079840  -1.076805  0.713306
H    -1.497065  0.459772  2.805945
H    -1.135199  -1.033597  3.648355
H    -3.792665  -0.329162  2.272960
H    -3.427647  -0.060250  3.993605
H    -3.077929  -2.655547  3.986057
H    -6.245894  -4.035329  3.780233
H    -6.900535  -1.896269  2.931698
H    -5.816894  -0.587212  3.215792
H    -4.586066  -4.473394  3.596203
O    1.578309  -1.971846  2.139693
H    0.792536  -2.553775  2.211200
Ca    4.202929  0.690395  1.231495
