28
Energy: -35057.9211832 eV PBE+vdW (tier 2 basis)
N    -0.605245  0.279659  0.290380
C    -0.217459  0.097008  1.752429
C    1.292005  0.379886  1.869516
O    1.911587  0.090342  2.937437
H    -1.575455  0.611010  0.187219
H    0.034722  0.972284  -0.141377
H    -0.681594  0.948395  2.279191
C    -0.770663  -1.186524  2.390036
C    -0.418228  -2.540540  1.746485
C    -0.976655  -3.692958  2.611448
N    -0.712099  -5.017617  2.041257
C    -1.578942  -6.057988  1.977952
N    -1.097612  -7.303488  1.962492
N    -2.899382  -5.859624  1.912176
H    -1.864132  -1.073949  2.452933
H    -0.416526  -1.162864  3.431692
H    0.673916  -2.652742  1.654972
H    -0.839085  -2.634409  0.731604
H    -2.058936  -3.577086  2.746364
H    -0.535611  -3.643128  3.619802
H    0.266475  -5.278267  1.954696
H    -1.675074  -8.089264  1.678734
H    -3.546307  -6.633541  2.026285
H    -3.298497  -4.976753  1.621603
H    -0.160079  -7.522537  2.281423
O    1.870385  1.016510  0.918156
H    -0.513878  -0.595450  -0.245540
Ca    3.669372  1.286637  2.252632
