28
Energy: -35057.1195131 eV PBE+vdW (tier 2 basis)
N    1.299335  -1.840425  0.681052
C    0.346037  -0.936227  1.419622
C    1.094958  0.363064  1.742215
O    2.332740  0.434549  1.581139
H    1.280161  -2.765137  1.126145
H    0.931268  -2.010606  -0.261455
H    -0.484407  -0.670000  0.744861
C    -0.217481  -1.589151  2.713755
C    -1.284622  -2.694382  2.517327
C    -2.736432  -2.168650  2.505079
N    -3.735915  -3.226385  2.342536
C    -4.643650  -3.632527  3.261393
N    -5.757950  -4.240801  2.850300
N    -4.438944  -3.429146  4.568239
H    -0.626021  -0.798680  3.362603
H    0.635923  -1.995815  3.278943
H    -1.174052  -3.414762  3.339622
H    -1.096370  -3.271734  1.598020
H    -2.888227  -1.445664  1.688175
H    -2.957466  -1.629391  3.436360
H    -3.882126  -3.580299  1.401707
H    -6.089725  -4.168316  1.894172
H    -5.188556  -3.576901  5.237081
H    -3.511000  -3.306538  4.952732
H    -6.340183  -4.768062  3.494166
O    0.489023  1.420621  2.191890
H    -0.483448  1.345927  2.276348
Ca    3.647130  -0.896563  0.569975
