28
Energy: -35057.9087673 eV PBE+vdW (tier 2 basis)
N    1.006022  -0.001164  0.140618
C    0.401625  -0.075361  1.538424
C    1.537539  0.211797  2.540377
O    1.361928  0.004345  3.778731
H    1.370284  -0.911819  -0.174220
H    0.323840  0.324708  -0.559130
H    -0.252455  0.809650  1.615031
C    -0.468708  -1.320137  1.779649
C    0.216872  -2.692133  1.663760
C    -0.650511  -3.878719  2.130094
N    -1.763337  -4.177980  1.219594
C    -2.857410  -4.906301  1.561675
N    -3.835280  -5.066737  0.666137
N    -2.980472  -5.425766  2.786197
H    -1.338666  -1.256255  1.108867
H    -0.872490  -1.192006  2.794949
H    1.119278  -2.719083  2.293188
H    0.559919  -2.895313  0.634003
H    -1.072829  -3.649549  3.118908
H    0.005294  -4.757475  2.237663
H    -1.547386  -4.181102  0.225895
H    -3.887952  -4.507410  -0.177513
H    -3.859246  -5.835832  3.088404
H    -2.175437  -5.612561  3.372087
H    -4.570208  -5.753678  0.803356
O    2.613231  0.757216  2.104328
H    1.808673  0.655909  0.160105
Ca    3.270883  1.076755  4.238825
