28
Energy: -35058.1569604 eV PBE+vdW (tier 2 basis)
N    1.620188  -1.419733  -0.521544
C    0.901735  -0.876799  0.709733
C    1.781293  0.255916  1.277239
O    1.492545  0.779730  2.394611
H    2.261675  -0.682426  -0.874599
H    2.198632  -2.242423  -0.295632
H    -0.007042  -0.378621  0.332775
C    0.519747  -1.968798  1.719076
C    -0.595272  -2.921070  1.242342
C    -1.027099  -3.894354  2.356396
N    -2.134742  -4.741493  1.909822
C    -2.437316  -5.966075  2.398606
N    -3.359834  -6.705030  1.776165
N    -1.802982  -6.451196  3.471625
H    0.191321  -1.434925  2.622999
H    1.423319  -2.530095  2.010752
H    -0.275890  -3.510807  0.368326
H    -1.466463  -2.322738  0.928816
H    -1.314411  -3.322211  3.254727
H    -0.185538  -4.548555  2.625989
H    -2.853436  -4.305564  1.338821
H    -3.770828  -7.520167  2.219999
H    -1.913344  -7.424289  3.739806
H    -1.375166  -5.842248  4.158599
H    -3.673818  -6.490601  0.836228
O    2.758243  0.691057  0.570707
H    0.971436  -1.688532  -1.273826
Ca    3.102050  2.298047  2.130444
