28
Energy: -35057.4793319 eV PBE+vdW (tier 2 basis)
N    -0.449120  2.428007  2.278065
C    1.031477  2.173665  2.172310
C    1.415861  2.365429  0.708696
O    0.686968  3.031685  -0.066122
H    -0.940877  1.530189  2.178953
H    -0.651509  2.713491  3.243722
H    1.523431  3.034547  2.664259
C    1.583780  0.922376  2.891080
C    1.166413  -0.470366  2.383840
C    1.838338  -1.556451  3.249402
N    1.500464  -2.906627  2.795237
C    2.240680  -4.014514  3.033360
N    1.917574  -5.157542  2.421200
N    3.301622  -3.967202  3.845225
H    1.315034  1.032963  3.953185
H    2.680046  1.011362  2.859189
H    1.464403  -0.613445  1.334577
H    0.071927  -0.600081  2.438031
H    1.547498  -1.417564  4.304569
H    2.930046  -1.442709  3.183058
H    0.551900  -3.071986  2.472078
H    2.303382  -6.045957  2.724850
H    3.948834  -4.748025  3.896246
H    3.395226  -3.259662  4.564003
H    1.300160  -5.179127  1.617578
O    2.559030  1.863775  0.355431
H    2.806605  2.100868  -0.568689
Ca    -1.180195  3.982902  0.489667
