28
Energy: -35057.1964348 eV PBE+vdW (tier 2 basis)
N    0.217245  -0.320851  0.140912
C    0.008223  0.066236  1.578457
C    1.367696  0.510378  2.130699
O    2.312430  0.744938  1.345124
H    0.366227  -1.336878  0.093665
H    -0.667809  -0.176150  -0.359268
H    -0.579451  1.002895  1.560412
C    -0.805459  -0.927741  2.445739
C    -0.183617  -2.299165  2.774710
C    -1.174013  -3.146607  3.601691
N    -0.600966  -4.438916  3.980414
C    -0.999968  -5.188066  5.036572
N    -0.274961  -6.253030  5.388257
N    -2.085561  -4.853005  5.741133
H    -1.771976  -1.061939  1.935337
H    -1.073828  -0.405128  3.380309
H    0.754030  -2.185972  3.340605
H    0.062943  -2.846632  1.849236
H    -2.105776  -3.285101  3.027258
H    -1.427861  -2.608823  4.526933
H    -0.018038  -4.915620  3.298734
H    -0.641940  -6.954695  6.023818
H    -2.289816  -5.312588  6.623683
H    -2.836246  -4.303607  5.339704
H    0.676020  -6.385971  5.062657
O    1.567319  0.720252  3.396828
H    0.785912  0.557710  3.964337
Ca    2.248239  0.816076  -0.794955
