28
Energy: -35057.1586101 eV PBE+vdW (tier 2 basis)
N    0.749379  0.330641  0.055621
C    0.107534  -0.095657  1.347432
C    1.143592  -0.947477  2.100747
O    2.342144  -0.920141  1.743443
H    0.452033  -0.320424  -0.682656
H    0.346138  1.230960  -0.226106
H    0.013544  0.816454  1.965925
C    -1.298612  -0.733534  1.219736
C    -2.355657  0.222305  0.624285
C    -3.826102  -0.133036  0.908817
N    -4.302351  -1.318381  0.183625
C    -5.466028  -1.959474  0.470482
N    -5.796403  -3.048558  -0.228641
N    -6.253362  -1.537298  1.463036
H    -1.634422  -1.013828  2.232610
H    -1.232286  -1.672996  0.649182
H    -2.212339  0.337110  -0.462088
H    -2.217354  1.227478  1.052693
H    -4.432464  0.749170  0.645439
H    -3.956371  -0.317114  1.985397
H    -3.993089  -1.414506  -0.780193
H    -5.131457  -3.524038  -0.827659
H    -6.221613  -0.584461  1.806202
H    -7.042786  -2.096956  1.772199
H    -6.728848  -3.446978  -0.177304
O    0.845214  -1.662602  3.140596
H    -0.102212  -1.656253  3.387773
Ca    3.268179  0.222597  0.201407
