28
Energy: -35057.273034 eV PBE+vdW (tier 2 basis)
N    1.486671  -0.789625  -0.679867
C    0.285597  -0.143304  -0.033643
C    0.774797  0.561758  1.232682
O    1.908238  0.314587  1.698123
H    1.262506  -1.775866  -0.859472
H    1.598060  -0.392226  -1.620244
H    -0.104284  0.631012  -0.714541
C    -0.843031  -1.185683  0.229775
C    -2.196615  -0.637037  0.727231
C    -3.291154  -1.726149  0.676595
N    -4.558753  -1.227113  1.210742
C    -5.792618  -1.634354  0.827669
N    -6.859790  -0.950848  1.248129
N    -5.947145  -2.685581  0.015558
H    -0.468084  -1.950732  0.928539
H    -1.001754  -1.684540  -0.739559
H    -2.522433  0.211137  0.103988
H    -2.106695  -0.284068  1.767229
H    -2.958516  -2.616928  1.235367
H    -3.458589  -2.023799  -0.367907
H    -4.523835  -0.688343  2.071690
H    -6.780909  -0.016528  1.634435
H    -6.851338  -2.884734  -0.402123
H    -5.258121  -3.426472  -0.035119
H    -7.795840  -1.337897  1.177598
O    0.042648  1.434047  1.862814
H    -0.807565  1.642764  1.424937
Ca    3.573552  -0.572476  0.694374
