28
Energy: -35057.4184013 eV PBE+vdW (tier 2 basis)
N    0.455187  0.493205  0.193169
C    -0.085239  0.386953  1.599353
C    1.110776  0.502002  2.542716
O    2.249881  0.816125  2.123424
H    0.437677  -0.451777  -0.214884
H    -0.227564  1.010368  -0.372601
H    -0.692859  1.288261  1.789094
C    -0.955946  -0.888406  1.803567
C    -1.931620  -0.933261  3.005044
C    -3.319312  -0.324115  2.716487
N    -4.225783  -0.392491  3.865155
C    -5.314132  -1.182799  3.995292
N    -6.259719  -0.850200  4.877693
N    -5.459110  -2.285246  3.249778
H    -0.280862  -1.755229  1.860424
H    -1.533078  -1.012650  0.873227
H    -1.493703  -0.455388  3.891031
H    -2.056537  -1.990005  3.279549
H    -3.801693  -0.830027  1.868793
H    -3.237903  0.736373  2.432167
H    -4.102303  0.305833  4.592134
H    -6.337426  0.088676  5.253752
H    -6.346215  -2.777918  3.223599
H    -4.667390  -2.758672  2.834500
H    -6.961582  -1.519883  5.177173
O    0.862910  0.280513  3.798261
H    1.662852  0.392596  4.362960
Ca    2.787694  1.322163  0.092145
