28
Energy: -35057.1035793 eV PBE+vdW (tier 2 basis)
N    -0.646174  1.385906  0.944763
C    0.525827  1.446989  1.885072
C    1.555680  2.399477  1.261363
O    1.230948  3.124575  0.295560
H    -0.542033  0.556694  0.346590
H    -1.489595  1.192705  1.496913
H    0.176445  1.992684  2.780773
C    1.076056  0.085259  2.385403
C    1.672151  -0.856250  1.322017
C    2.489898  -2.039875  1.877138
N    1.676457  -3.038767  2.581222
C    2.187295  -3.982107  3.416180
N    1.350111  -4.803062  4.055037
N    3.502821  -4.067269  3.630571
H    0.262083  -0.406420  2.937918
H    1.829396  0.298801  3.163716
H    2.368281  -0.307286  0.667847
H    0.885901  -1.251055  0.656866
H    3.244879  -1.662306  2.582201
H    3.024124  -2.501224  1.030689
H    0.789023  -3.288574  2.152384
H    1.685976  -5.634991  4.530703
H    3.869485  -4.664815  4.365953
H    4.179632  -3.718860  2.961693
H    0.354155  -4.621486  4.105725
O    2.755544  2.534532  1.739584
H    2.949962  1.972327  2.517405
Ca    -0.709327  3.405398  -0.557286
