28
Energy: -35057.6059838 eV PBE+vdW (tier 2 basis)
N    1.915701  -0.121945  0.435892
C    0.629332  -0.345819  1.192318
C    1.017505  -0.619823  2.643213
O    2.166005  -0.354697  3.071116
H    2.152281  -1.001815  -0.043515
H    1.719786  0.527029  -0.335296
H    0.103053  0.625599  1.225231
C    -0.303926  -1.392817  0.524407
C    -1.802646  -1.268308  0.867257
C    -2.642638  -2.291133  0.079506
N    -4.063860  -2.155743  0.407295
C    -5.092749  -2.535984  -0.381676
N    -6.335803  -2.169074  -0.055801
N    -4.874570  -3.246476  -1.494011
H    0.064384  -2.405423  0.752736
H    -0.184580  -1.252430  -0.561473
H    -2.156069  -0.253988  0.626900
H    -1.961051  -1.423332  1.943794
H    -2.290938  -3.313545  0.299020
H    -2.526479  -2.116929  -1.000228
H    -4.303671  -1.911100  1.363513
H    -6.517952  -1.429235  0.612937
H    -5.620615  -3.394985  -2.166336
H    -4.047503  -3.820042  -1.606464
H    -7.144769  -2.605526  -0.486068
O    0.080043  -1.103099  3.401065
H    0.376001  -1.213817  4.334634
Ca    3.799730  0.481456  1.922034
