28
Energy: -35058.1039304 eV PBE+vdW (tier 2 basis)
N    -0.531512  1.089154  1.752042
C    0.553145  0.358088  2.537241
C    1.885817  0.622352  1.807383
O    1.916094  1.505146  0.878284
H    -1.000361  0.467524  1.076714
H    -0.080062  1.848391  1.204849
H    0.633904  0.885461  3.502110
C    0.232874  -1.125427  2.772064
C    -0.967896  -1.392271  3.702569
C    -1.165899  -2.904883  3.946884
N    -2.382528  -3.212680  4.703988
C    -2.464110  -3.888999  5.872954
N    -3.594179  -4.532463  6.175392
N    -1.435854  -3.916003  6.728929
H    1.146808  -1.561258  3.202013
H    0.091788  -1.625497  1.798895
H    -1.897515  -0.989938  3.266949
H    -0.824396  -0.876871  4.664709
H    -0.305096  -3.330562  4.478130
H    -1.224017  -3.435984  2.984162
H    -3.260587  -3.120272  4.200665
H    -3.790195  -4.839262  7.123281
H    -4.280036  -4.775832  5.468560
H    -1.435326  -4.555481  7.517085
H    -0.710937  -3.210610  6.716865
O    2.935725  0.010597  2.167730
H    -1.254964  1.497069  2.359722
Ca    4.154315  1.197509  0.726829
