28
Energy: -35057.2431196 eV PBE+vdW (tier 2 basis)
N    1.609914  -1.292505  -0.692822
C    0.379152  -0.526971  -0.281599
C    0.830275  0.540996  0.722232
O    2.047500  0.748830  0.916110
H    1.609864  -2.187946  -0.185910
H    1.501925  -1.569270  -1.675478
H    0.043861  0.043069  -1.166697
C    -0.779010  -1.459902  0.174357
C    -2.188058  -0.833114  0.281855
C    -3.283930  -1.925253  0.335331
N    -4.636230  -1.362240  0.338064
C    -5.665958  -1.723905  1.143824
N    -6.916395  -1.570126  0.704691
N    -5.447880  -2.214980  2.368337
H    -0.502143  -1.945215  1.123710
H    -0.824243  -2.257845  -0.583326
H    -2.380529  -0.186513  -0.589429
H    -2.299488  -0.212420  1.188150
H    -3.159266  -2.559418  1.221340
H    -3.178652  -2.588176  -0.538362
H    -4.914752  -0.873170  -0.508860
H    -7.132911  -1.466557  -0.281177
H    -4.581340  -2.054887  2.865474
H    -6.205997  -2.628040  2.902590
H    -7.706902  -1.591784  1.342231
O    -0.018517  1.290960  1.358774
H    -0.955864  1.082030  1.160648
Ca    3.728572  -0.094650  -0.101057
