28
Energy: -35057.1267076 eV PBE+vdW (tier 2 basis)
N    0.926481  1.066627  2.051487
C    0.767221  -0.308431  2.639893
C    1.914821  -1.171794  2.088336
O    2.865973  -0.626595  1.485687
H    0.281580  1.150879  1.255043
H    0.576711  1.751657  2.730216
H    0.992380  -0.219486  3.718874
C    -0.643986  -0.931664  2.493460
C    -1.745170  -0.185058  3.277538
C    -3.034044  -0.999417  3.529459
N    -3.939547  -1.150705  2.383046
C    -5.245771  -0.781632  2.359641
N    -5.689708  0.229670  3.111190
N    -6.091608  -1.428399  1.553573
H    -0.599162  -1.962636  2.884184
H    -0.894177  -1.021296  1.423817
H    -2.003063  0.764122  2.784203
H    -1.356239  0.070538  4.276317
H    -3.594260  -0.523772  4.343085
H    -2.776488  -2.003889  3.900416
H    -3.693078  -1.856411  1.695546
H    -5.066541  0.910438  3.525835
H    -7.011370  -1.052454  1.343167
H    -5.891516  -2.356955  1.197574
H    -6.684697  0.389304  3.235060
O    1.978835  -2.454718  2.267345
H    1.223926  -2.845312  2.753509
Ca    3.267499  1.441388  1.180499
