28
Energy: -35056.4804095 eV PBE+vdW (tier 2 basis)
N    0.564749  1.759943  0.746421
C    0.040338  0.793210  1.698177
C    0.360726  1.366750  3.072764
O    -0.421352  2.183566  3.669696
H    -0.012970  2.576378  0.564590
H    1.551035  2.000887  0.809657
H    -1.054441  0.811549  1.616212
C    0.493044  -0.661044  1.417532
C    1.989426  -0.926067  1.171817
C    2.301549  -2.348004  0.661928
N    1.882517  -2.542447  -0.730805
C    1.740008  -3.749950  -1.327046
N    2.011704  -4.877179  -0.662645
N    1.286762  -3.807487  -2.583234
H    -0.064217  -0.947272  0.513816
H    0.117588  -1.311399  2.223345
H    2.593723  -0.836326  2.094203
H    2.409695  -0.196394  0.462217
H    1.778076  -3.087873  1.284764
H    3.384612  -2.521579  0.765134
H    2.022258  -1.759023  -1.363456
H    2.624075  -4.888645  0.144095
H    1.352115  -4.660026  -3.129827
H    0.867523  -3.004990  -3.038398
H    1.766709  -5.781432  -1.053873
O    1.503825  1.159072  3.676501
H    2.053352  0.490551  3.210930
Ca    -1.216684  3.432270  5.108307
