28
Energy: -35057.1448595 eV PBE+vdW (tier 2 basis)
N    1.125319  -1.138276  -0.290540
C    0.281922  -0.360786  0.681969
C    1.174172  0.749696  1.263251
O    2.264733  1.017273  0.711905
H    1.480978  -1.975645  0.188751
H    0.513108  -1.511589  -1.024372
H    -0.467866  0.186247  0.080640
C    -0.477811  -1.209007  1.733207
C    -1.513812  -2.174279  1.113775
C    -2.638256  -2.655064  2.054256
N    -2.247199  -3.710607  2.992847
C    -3.087868  -4.662845  3.469706
N    -4.398877  -4.607897  3.222434
N    -2.583504  -5.679725  4.175158
H    -1.021568  -0.514497  2.396098
H    0.250472  -1.736417  2.370379
H    -1.022094  -3.050343  0.665225
H    -2.032017  -1.651820  0.294134
H    -3.429851  -3.068950  1.415956
H    -3.067694  -1.792817  2.592648
H    -1.378426  -3.605914  3.506824
H    -4.997018  -5.405187  3.418467
H    -3.183705  -6.292798  4.718079
H    -1.598093  -5.915047  4.147237
H    -4.869369  -3.740525  2.992503
O    0.824404  1.475101  2.279650
H    -0.037571  1.240545  2.680654
Ca    3.120491  0.205176  -1.061840
