28
Energy: -35057.50714 eV PBE+vdW (tier 2 basis)
N    0.379587  2.453099  1.665322
C    0.866745  1.193315  0.996180
C    0.149542  1.089687  -0.348753
O    -0.473160  2.065266  -0.832737
H    -0.325630  2.185823  2.365355
H    1.147451  2.840093  2.225088
H    1.924721  1.363511  0.723177
C    0.784111  -0.090462  1.856441
C    1.721553  -0.079110  3.077934
C    1.665591  -1.340744  3.958663
N    2.339622  -2.494464  3.348318
C    2.211813  -3.771041  3.789801
N    2.851395  -4.750233  3.143711
N    1.426798  -4.059744  4.831526
H    1.027354  -0.938333  1.201160
H    -0.261461  -0.240991  2.173800
H    1.471750  0.756522  3.749072
H    2.762063  0.097530  2.757922
H    0.617931  -1.616715  4.148876
H    2.130154  -1.094798  4.927202
H    3.205239  -2.299345  2.851646
H    2.937178  -5.679257  3.543526
H    1.219510  -5.024107  5.072961
H    1.172661  -3.362143  5.520567
H    3.280982  -4.603618  2.237655
O    0.273198  -0.046365  -0.962246
H    -0.156470  -0.046464  -1.849219
Ca    -0.670226  4.026087  0.048055
