28
Energy: -35057.9423375 eV PBE+vdW (tier 2 basis)
N    -0.161108  0.467817  0.303789
C    0.216004  -0.124379  1.658435
C    1.750193  -0.030175  1.771656
O    2.368936  -0.620889  2.707621
H    -0.198432  -0.252968  -0.432720
H    -1.078881  0.935524  0.326756
H    -0.170971  0.586788  2.407824
C    -0.458242  -1.497197  1.864762
C    -0.468243  -1.974931  3.334248
C    -1.591603  -2.957460  3.702265
N    -1.425182  -4.293984  3.114323
C    -2.400245  -5.237549  3.098304
N    -2.158989  -6.414737  2.513030
N    -3.602479  -4.987666  3.623629
H    0.006170  -2.243518  1.202716
H    -1.501775  -1.383074  1.528183
H    -0.614714  -1.109592  3.997890
H    0.509621  -2.392655  3.611511
H    -2.558877  -2.556198  3.365383
H    -1.621615  -3.024218  4.802250
H    -0.476757  -4.657782  3.076770
H    -1.352343  -6.561923  1.917902
H    -4.374488  -5.632558  3.484201
H    -3.745883  -4.261338  4.315095
H    -2.786067  -7.203608  2.634177
O    2.374172  0.724043  0.941596
H    0.563379  1.155459  0.022698
Ca    4.271504  0.405422  2.104636
