28
Energy: -35057.4222619 eV PBE+vdW (tier 2 basis)
N    0.492883  -0.049065  0.084949
C    -0.138622  -0.066368  1.457505
C    0.951067  0.294796  2.461052
O    2.129525  0.529543  2.103509
H    0.442362  -1.005322  -0.290923
H    -0.117287  0.486933  -0.542735
H    -0.879471  0.747825  1.508199
C    -0.836519  -1.433375  1.737516
C    -1.800215  -1.569328  2.935816
C    -3.231438  -1.056507  2.695452
N    -4.085138  -1.466549  3.814663
C    -5.304402  -0.967483  4.112075
N    -5.879837  -1.295772  5.271755
N    -5.918600  -0.123974  3.272932
H    -0.049742  -2.196496  1.840910
H    -1.385629  -1.681809  0.815146
H    -1.385683  -1.111119  3.842760
H    -1.856021  -2.649649  3.140300
H    -3.615565  -1.469440  1.746561
H    -3.260313  0.041889  2.627598
H    -3.814436  -2.307539  4.316666
H    -5.357956  -1.727962  6.026182
H    -6.768246  0.354447  3.555923
H    -5.715764  -0.124792  2.280787
H    -6.867483  -1.130012  5.437379
O    0.568608  0.361065  3.701609
H    1.305476  0.610996  4.306327
Ca    2.858446  0.694067  0.077087
