28
Energy: -35057.9819443 eV PBE+vdW (tier 2 basis)
N    1.042776  -1.730335  0.444972
C    0.911671  -0.414329  1.201917
C    2.333876  0.098413  1.494805
O    3.311935  -0.393318  0.827091
H    1.078735  -2.540519  1.080215
H    1.929881  -1.721712  -0.092068
H    0.524796  0.303882  0.458822
C    -0.101531  -0.458453  2.355649
C    0.121623  -1.469301  3.495782
C    -0.998469  -1.321832  4.547124
N    -0.883830  -2.317352  5.613865
C    -1.910447  -2.766043  6.374557
N    -1.710603  -3.807189  7.187561
N    -3.118904  -2.199886  6.296578
H    -1.095426  -0.613555  1.907579
H    -0.120599  0.564492  2.760116
H    1.100806  -1.301127  3.971810
H    0.107454  -2.509132  3.128625
H    -1.973038  -1.465460  4.058605
H    -0.976604  -0.300188  4.962205
H    0.046793  -2.533781  5.958668
H    -2.374969  -4.040485  7.918849
H    -0.911036  -4.421930  7.084849
H    -3.923693  -2.637075  6.735472
H    -3.244023  -1.245160  5.981749
O    2.506265  1.066561  2.295773
H    0.258531  -1.879064  -0.206892
Ca    4.624031  1.265878  1.614720
