28
Energy: -35057.4220542 eV PBE+vdW (tier 2 basis)
N    -0.429809  2.329696  2.213156
C    1.052600  2.069793  2.158402
C    1.481172  2.229113  0.703712
O    0.777394  2.878140  -0.107911
H    -0.919548  1.429882  2.121112
H    -0.660153  2.638468  3.165301
H    1.532250  2.939699  2.646699
C    1.574454  0.831458  2.921806
C    1.172097  -0.570145  2.427398
C    1.731926  -1.641212  3.389819
N    1.367766  -3.008215  3.001981
C    2.175372  -4.096090  3.025960
N    1.632305  -5.304473  3.195479
N    3.497521  -3.983184  2.863401
H    1.262992  0.964534  3.969857
H    2.671260  0.918499  2.935486
H    1.550664  -0.756657  1.411720
H    0.074766  -0.678276  2.386992
H    1.364725  -1.452287  4.411488
H    2.824917  -1.567768  3.440798
H    0.374024  -3.221903  3.005961
H    2.152015  -6.151199  2.985340
H    4.111534  -4.771302  3.042281
H    3.920628  -3.165149  2.445018
H    0.707227  -5.427728  3.592626
O    2.634470  1.720000  0.395140
H    2.907376  1.939356  -0.526183
Ca    -1.105947  3.840951  0.368163
