15
Energy: -106879.1712402  eV PBE+vdW (tier 2 basis)
N    1.448776  0.399872  0.369884
C    1.415268  0.947424  1.755394
C    2.832843  1.003589  2.304499
O    3.724476  0.269193  1.829674
H    0.535380  -0.102885  0.279519
H    1.369203  1.182588  -0.288808
H    0.966773  1.952763  1.763530
C    0.564485  0.024257  2.701072
S    -0.964509  -0.591102  1.941174
H    0.350979  0.551929  3.637992
H    1.129656  -0.881568  2.964889
H    -1.641732  0.584358  1.941221
O    3.139981  1.759319  3.323822
H    2.409876  2.330426  3.638515
Sr    3.618544  -0.966161  -0.111378
