15
Energy: -106878.7577187  eV PBE+vdW (tier 2 basis)
N    -0.406160  -0.579851  -0.323169
C    0.049940  -0.237105  0.983984
C    1.573836  -0.383754  1.120522
O    2.307398  -0.438662  0.086967
H    -0.296292  -1.550490  -0.605246
H    -1.317107  -0.212152  -0.582024
H    -0.130977  0.843077  1.136885
C    -0.728528  -1.011856  2.082930
S    -0.345557  -0.462797  3.838409
H    -0.582702  -2.097351  2.031212
H    -1.798426  -0.785446  1.989912
H    -1.373490  -1.092240  4.481715
O    2.091126  -0.389485  2.303632
H    0.566398  -1.401509  4.195251
Sr    4.282829  -0.264646  1.288248
