15
Energy: -106879.5500056  eV PBE+vdW (tier 2 basis)
N    -0.045366  -0.035884  -0.011673
C    -0.008637  -0.020649  1.519587
C    1.467661  0.121632  1.922521
O    1.822060  -0.096123  3.119482
H    0.787691  0.470053  -0.365638
H    -0.007043  -0.998149  -0.377868
H    -0.515333  0.906483  1.830221
C    -0.763006  -1.224456  2.111525
S    -1.404840  -0.934649  3.787534
H    -0.155600  -2.138613  2.067243
H    -1.667022  -1.400444  1.509652
H    -0.228092  -1.104350  4.431676
O    2.306673  0.501477  1.027936
H    -0.901542  0.402809  -0.376443
Sr    4.046394  0.591862  2.703249
