15
Energy: -106879.4482935  eV PBE+vdW (tier 2 basis)
N    2.544387  -6.156363  0.319046
C    2.790141  -7.312704  1.185422
C    4.311321  -7.570358  1.087771
O    4.866545  -8.575967  1.601262
H    2.105394  -6.388540  -0.573868
H    2.000603  -5.418796  0.766927
H    2.596748  -7.019433  2.231017
C    1.940645  -8.551025  0.839985
S    2.048534  -9.855563  2.150108
H    2.218382  -8.974694  -0.133269
H    0.884397  -8.257361  0.815593
H    1.258047  -10.784928  1.557765
O    4.960780  -6.673902  0.449148
H    4.174653  -6.033089  0.154663
Sr    4.930550  -10.685452  2.357738
