15
Energy: -106879.9311871  eV PBE+vdW (tier 2 basis)
N    0.151042  -0.288511  -0.027743
C    0.035185  0.242427  1.374040
C    1.410749  0.293279  2.035851
O    2.386655  -0.343985  1.506461
H    0.314564  0.443957  -0.728703
H    0.922601  -0.971548  -0.091034
H    -0.379026  1.257061  1.319599
C    -0.937181  -0.670132  2.181363
S    -2.391976  -1.191391  1.218358
H    -1.227758  -0.152952  3.101712
H    -0.440397  -1.608926  2.463791
H    -3.021807  0.010743  1.201216
O    1.531537  0.936734  3.124879
H    -0.786604  -0.757800  -0.215877
Sr    3.818415  0.382041  3.307087
