15
Energy: -106879.0368428  eV PBE+vdW (tier 2 basis)
N    0.058328  1.235048  0.707657
C    0.246508  0.038622  1.587610
C    1.731679  -0.041021  1.956029
O    2.449100  0.978011  1.885337
H    0.247000  0.928089  -0.258140
H    -0.960171  1.398967  0.682866
H    -0.262866  0.260008  2.542976
C    -0.372989  -1.255275  1.010948
S    -2.108332  -1.040233  0.490043
H    -0.318761  -2.079050  1.738145
H    0.168041  -1.574476  0.107443
H    -2.650522  -1.096949  1.731213
O    2.271348  -1.142709  2.392930
H    1.660029  -1.908699  2.396663
Sr    1.809041  3.097752  1.230185
