15
Energy: -106879.5887415  eV PBE+vdW (tier 2 basis)
N    1.046492  -0.177412  0.116564
C    0.860983  0.044949  1.601212
C    2.320608  0.287504  2.109938
O    2.437775  0.434614  3.388482
H    0.836117  -1.133471  -0.196346
H    0.511871  0.477465  -0.466507
H    0.276989  0.967063  1.729786
C    0.150968  -1.140554  2.270989
S    -0.332172  -0.709012  3.999545
H    0.782619  -2.038440  2.268005
H    -0.793110  -1.360055  1.755234
H    -0.964490  -1.871490  4.293358
O    3.212245  0.305667  1.271019
H    2.102546  0.002978  0.021102
Sr    2.229561  0.007193  5.518620
