15
Energy: -106879.8552876  eV PBE+vdW (tier 2 basis)
N    -0.132528  -1.183913  0.217138
C    -0.282057  -0.149184  1.317724
C    1.122921  0.142509  1.850368
O    2.027512  -0.725471  1.608983
H    0.773762  -1.669330  0.394379
H    -0.905390  -1.862541  0.182102
H    -0.751382  0.743156  0.885624
C    -1.132990  -0.644194  2.511606
S    -0.294744  -1.591597  3.847453
H    -2.013020  -1.211992  2.180194
H    -1.511442  0.245061  3.030669
H    -0.112749  -2.765240  3.193837
O    1.256484  1.088058  2.674172
H    -0.068483  -0.740622  -0.710683
Sr    2.792104  -0.250702  3.875438
