15
Energy: -106879.7495762  eV PBE+vdW (tier 2 basis)
N    -0.119437  -0.036368  -0.127581
C    -0.085693  0.152720  1.378858
C    1.377231  0.145964  1.835677
O    2.129438  -0.755749  1.341732
H    -1.039252  -0.354276  -0.468386
H    0.106655  0.839706  -0.623061
H    -0.571839  1.105275  1.616207
C    -0.784921  -1.052287  2.051767
S    -0.249861  -1.262588  3.812131
H    -0.525996  -1.975271  1.517276
H    -1.873293  -0.915192  2.048924
H    -0.663105  -2.550126  3.905806
O    1.688898  0.870857  2.821402
H    0.598598  -0.738724  -0.385139
Sr    3.024379  -0.927029  3.604051
