15
Energy: -106879.5559463  eV PBE+vdW (tier 2 basis)
N    -0.113636  -0.472874  0.009759
C    0.037756  -0.005347  1.461430
C    1.551027  0.072701  1.735936
O    2.343930  0.134696  0.727538
H    -0.953421  -0.079033  -0.434941
H    0.732309  -0.179285  -0.514276
H    -0.345222  1.026022  1.488662
C    -0.773403  -0.883679  2.428829
S    -1.022760  -0.099937  4.056602
H    -0.259768  -1.839307  2.602515
H    -1.753548  -1.110557  1.989387
H    -2.219515  0.459142  3.760237
O    1.978540  0.106219  2.926504
H    -0.181870  -1.499212  -0.048961
Sr    4.207582  0.446453  2.247780
