15
Energy: -106879.9440086  eV PBE+vdW (tier 2 basis)
N    -0.083248  0.265188  0.468088
C    -0.274557  -0.745279  1.546597
C    1.082733  -1.005775  2.191588
O    2.139839  -0.904770  1.544599
H    -0.961628  0.349081  -0.055931
H    0.038924  1.188952  0.900089
H    -0.975370  -0.401358  2.324056
C    -0.853887  -2.052702  0.963317
S    0.081875  -2.815055  -0.431908
H    -1.850827  -1.847570  0.549187
H    -0.985026  -2.810316  1.744554
H    0.898754  -3.615559  0.298493
O    1.011278  -1.382491  3.439865
H    1.898217  -1.578040  3.817668
Sr    2.066924  -0.543302  -0.821265
