15
Energy: -106879.9179387  eV PBE+vdW (tier 2 basis)
N    -0.047361  -1.345389  0.751316
C    -0.140205  -0.156069  1.666892
C    1.283273  0.209015  2.119872
O    2.280474  -0.319997  1.516510
H    -0.191767  -2.182121  1.388334
H    -0.759571  -1.345778  0.010825
H    -0.514571  0.704304  1.091259
C    -1.109855  -0.460075  2.828894
S    -0.759709  -2.106711  3.561382
H    -2.147051  -0.427032  2.478883
H    -0.989993  0.315435  3.593182
H    -1.960748  -2.671507  3.296018
O    1.427664  1.053654  3.055287
H    0.897684  -1.398536  0.336476
Sr    3.783735  0.980805  2.883870
