15
Energy: -106879.9021801  eV PBE+vdW (tier 2 basis)
N    -0.371704  0.320180  0.388858
C    0.227006  0.028797  1.737629
C    1.743481  0.255458  1.650887
O    2.474813  -0.123072  2.616500
H    -0.452892  -0.630690  -0.080312
H    -1.301756  0.753802  0.442014
H    -0.150748  0.773630  2.455396
C    -0.188377  -1.386334  2.203253
S    -0.212942  -2.620934  0.860643
H    -1.218167  -1.362057  2.582643
H    0.455697  -1.702039  3.030564
H    1.128088  -2.787129  0.752662
O    2.221953  0.868663  0.633714
H    0.267413  0.920264  -0.158078
Sr    4.400136  0.874462  1.669623
