15
Energy: -106879.4523488  eV PBE+vdW (tier 2 basis)
N    2.502401  -6.110107  0.424999
C    2.754075  -7.306093  1.239596
C    4.257659  -7.612105  1.038574
O    4.825024  -8.621059  1.531516
H    1.955429  -6.286193  -0.419841
H    2.064829  -5.347090  0.941407
H    2.628185  -7.051314  2.303619
C    1.820928  -8.481171  0.881779
S    1.889981  -10.028315  1.880855
H    1.988950  -8.825167  -0.148977
H    0.778321  -8.146005  0.947444
H    1.432296  -9.530990  3.057769
O    4.882594  -6.745419  0.338238
H    4.093918  -6.076247  0.107242
Sr    4.812410  -10.648722  2.469782
