15
Energy: -106879.0786297  eV PBE+vdW (tier 2 basis)
N    0.461339  -0.515067  0.143295
C    0.289793  0.077625  1.501726
C    1.539620  -0.187208  2.329700
O    2.336874  -1.091941  2.006100
H    -0.507089  -0.814149  -0.117296
H    0.656709  0.248652  -0.514122
H    0.121872  1.163813  1.425711
C    -0.933768  -0.555242  2.245792
S    -2.411413  -0.551009  1.165460
H    -1.140620  0.027451  3.151750
H    -0.713474  -1.584186  2.556630
H    -2.722419  -1.857132  1.331009
O    1.783540  0.481058  3.423978
H    1.140827  1.194291  3.615893
Sr    2.383716  -2.271551  0.030565
