15
Energy: -106879.1203226  eV PBE+vdW (tier 2 basis)
N    0.821268  -0.078002  0.746622
C    0.101941  -0.332935  2.042488
C    1.176089  -0.277662  3.150015
O    1.986818  0.683148  3.116669
H    1.223741  -0.962702  0.411480
H    0.121038  0.160006  0.035326
H    -0.505247  0.568352  2.234353
C    -0.882678  -1.514226  2.066935
S    -0.049896  -3.139020  2.340643
H    -1.452022  -1.538044  1.128718
H    -1.598463  -1.351627  2.882002
H    -1.101811  -3.746551  2.940249
O    1.246728  -1.162826  4.076218
H    0.719907  -2.014265  3.797983
Sr    2.709691  1.756300  1.246116
