15
Energy: -106879.8115940  eV PBE+vdW (tier 2 basis)
N    -0.395916  -0.026592  -0.088072
C    -0.222004  0.329713  1.380025
C    1.274341  0.337558  1.697696
O    1.707529  1.180434  2.529697
H    -1.351162  -0.346327  -0.308465
H    -0.191607  0.777313  -0.701162
H    -0.667887  1.316510  1.544493
C    -0.893267  -0.767510  2.252301
S    -0.159411  -1.085443  3.902239
H    -0.807097  -1.745908  1.757873
H    -1.958948  -0.551332  2.395513
H    -0.471191  0.105446  4.472493
O    1.951891  -0.651591  1.260500
H    0.275641  -0.780742  -0.322786
Sr    3.104086  -0.540529  3.388652
