15
Energy: -106879.1010966  eV PBE+vdW (tier 2 basis)
N    0.053981  -0.692172  -0.008419
C    0.075342  -0.290927  1.385757
C    1.201391  0.665602  1.827902
O    1.931634  1.228194  0.947499
H    -0.447752  -0.035321  -0.604267
H    0.988508  -0.813239  -0.402953
H    -0.858634  0.253495  1.602517
C    0.077647  -1.573108  2.247427
S    -1.108591  -2.681436  1.367974
H    -0.306880  -1.438607  3.265615
H    1.050742  -2.076111  2.287971
H    -1.166279  -3.657299  2.329481
O    1.350928  0.901114  3.077044
H    -0.271785  -3.397664  0.574687
Sr    2.990748  2.532481  2.611763
