15
Energy: -106879.7314398  eV PBE+vdW (tier 2 basis)
N    -0.089501  0.317234  0.401800
C    -0.182453  -0.582036  1.584340
C    1.235761  -0.792899  2.124653
O    2.199364  -0.776097  1.345075
H    -1.011099  0.361763  -0.047489
H    0.080101  1.276503  0.726793
H    -0.829743  -0.155744  2.370190
C    -0.803770  -1.939224  1.175541
S    0.008444  -2.836008  -0.213795
H    -1.833103  -1.767845  0.830846
H    -0.869308  -2.624946  2.028588
H    0.904342  -3.547095  0.517456
O    1.445772  -1.063786  3.387122
H    0.650042  -1.003233  3.953874
Sr    1.959150  -0.626368  -1.002510
