15
Energy: -106879.5797307  eV PBE+vdW (tier 2 basis)
N    2.642757  -6.089540  0.538176
C    2.840708  -7.378389  1.310921
C    4.354025  -7.700254  1.066622
O    4.804788  -8.749007  1.667922
H    1.945214  -6.146639  -0.214177
H    2.405682  -5.288527  1.135365
H    2.672411  -7.166098  2.374241
C    1.868121  -8.461311  0.809588
S    1.855616  -10.075923  1.683404
H    2.080768  -8.727164  -0.236330
H    0.831005  -8.102635  0.854695
H    1.323942  -9.658319  2.859723
O    4.971677  -6.944376  0.325488
H    3.628434  -5.962672  0.119872
Sr    4.811854  -10.793149  2.411492
