26
Energy: -566927.467276 eV PBE+vdW (tier 2 basis)
N    -0.339209  1.605356  3.850241
C    -0.165578  0.134759  3.486831
C    1.363490  -0.138841  3.291427
O    1.708006  -1.336991  3.092600
H    -0.005169  2.230562  3.097934
H    -1.334967  1.821956  4.017165
H    -0.456556  -0.440713  4.379373
C    -0.997059  -0.252367  2.249181
C    -2.536986  -0.262911  2.461537
C    -3.126949  -1.557954  3.073962
C    -3.567388  -2.649937  2.088751
N    -4.977307  -2.442054  1.542812
H    -0.649483  -1.246713  1.935199
H    -0.738928  0.429948  1.424023
H    -2.981102  -0.056058  1.476169
H    -2.858504  0.594091  3.074563
H    -3.970987  -1.303723  3.733058
H    -2.397124  -2.035215  3.745131
H    -3.595107  -3.627977  2.583299
H    -2.911630  -2.732820  1.212660
H    -5.087724  -1.559943  1.022112
H    -5.233416  -3.204945  0.895300
H    -5.681257  -2.444869  2.297452
O    2.149586  0.842158  3.363312
H    0.178602  1.863733  4.706407
Hg    3.929749  -0.705530  3.011501
