26
Energy: -566926.996829 eV PBE+vdW (tier 2 basis)
N    0.029253  0.551900  0.264949
C    -0.021644  0.178683  1.689934
C    1.408131  0.059812  2.334262
O    2.455362  -0.058392  1.678555
H    -0.546640  -0.052011  -0.332345
H    -0.219849  1.532768  0.085434
H    -0.486652  1.028501  2.222725
C    -0.806282  -1.144824  1.934565
C    -2.343483  -0.982610  1.857367
C    -3.078539  -2.289715  2.236868
C    -4.601082  -2.101280  2.213383
N    -5.342744  -3.368533  2.612040
H    -0.530335  -1.528799  2.927668
H    -0.446893  -1.906865  1.222500
H    -2.648657  -0.670170  0.845318
H    -2.657314  -0.176222  2.538873
H    -2.762407  -2.606332  3.243872
H    -2.789636  -3.094012  1.542005
H    -4.970020  -1.838257  1.214058
H    -4.931034  -1.326273  2.916698
H    -6.364177  -3.217395  2.586578
H    -5.141158  -4.157652  1.978974
H    -5.109838  -3.674579  3.569323
O    1.515204  0.046541  3.626400
H    0.686840  0.193640  4.130366
Hg    2.237673  0.304406  -0.551371
