26
Energy: -566927.732054 eV PBE+vdW (tier 2 basis)
N    -0.382399  1.763271  1.688778
C    -0.099628  0.718096  2.762600
C    1.452682  0.575592  2.907901
O    1.867053  -0.261934  3.760358
H    0.150835  2.634697  1.846061
H    -0.133253  1.426475  0.744531
H    -0.430004  1.163816  3.715156
C    -0.811083  -0.618359  2.498043
C    -2.354607  -0.546741  2.586112
C    -2.993259  -1.955008  2.512273
C    -4.520855  -1.880436  2.621688
N    -5.165068  -3.258093  2.572762
H    -0.429853  -1.311994  3.261699
H    -0.490940  -1.025930  1.525222
H    -2.767983  0.068393  1.769766
H    -2.644480  -0.064986  3.533166
H    -2.592657  -2.575399  3.329379
H    -2.709067  -2.440869  1.565652
H    -4.968392  -1.309853  1.798245
H    -4.844654  -1.430552  3.568710
H    -4.848700  -3.864798  3.344563
H    -6.192248  -3.185146  2.649945
H    -4.965029  -3.752332  1.689843
O    2.182104  1.321893  2.207371
H    -1.384498  2.010576  1.679314
Hg    4.045987  0.319622  3.350862
