26
Energy: -566926.934530 eV PBE+vdW (tier 2 basis)
N    1.562254  1.500199  0.292566
C    0.649411  0.859730  1.265432
C    1.425820  -0.003055  2.314729
O    2.559251  -0.471223  2.117334
H    1.235352  1.416559  -0.677904
H    1.733894  2.494699  0.493676
H    0.189471  1.680073  1.845892
C    -0.449443  0.016177  0.537232
C    -1.644802  -0.390516  1.435251
C    -2.944962  -0.790337  0.688706
C    -2.965657  -2.212602  0.118029
N    -4.359477  -2.586528  -0.368768
H    0.017404  -0.863330  0.066915
H    -0.824313  0.663760  -0.270983
H    -1.923845  0.472621  2.060624
H    -1.358098  -1.206051  2.116444
H    -3.166413  -0.056053  -0.101603
H    -3.755402  -0.695708  1.428387
H    -2.704355  -2.962368  0.875838
H    -2.301604  -2.345126  -0.744976
H    -4.375293  -3.544608  -0.753517
H    -5.054796  -2.558737  0.393772
H    -4.698756  -1.957310  -1.112764
O    0.848365  -0.301531  3.438462
H    -0.013519  0.137866  3.598752
Hg    3.662360  0.459576  0.351246
