26
Energy: -566927.172332 eV PBE+vdW (tier 2 basis)
N    1.031320  -1.396272  0.171439
C    0.446854  -0.516708  1.272404
C    1.644762  -0.005888  2.146715
O    2.770576  -0.530131  1.981681
H    0.283359  -1.782709  -0.423717
H    1.678343  -0.877845  -0.445735
H    0.030680  0.373544  0.777725
C    -0.609546  -1.242781  2.129037
C    -2.066561  -1.316545  1.591019
C    -2.381882  -2.361356  0.498552
C    -3.806532  -2.937184  0.513428
N    -4.908016  -1.973038  0.084863
H    -0.657092  -0.681757  3.072347
H    -0.241165  -2.246358  2.398993
H    -2.388881  -0.308488  1.287782
H    -2.656409  -1.561283  2.488557
H    -1.753350  -3.255196  0.645682
H    -2.155589  -1.984512  -0.514014
H    -4.086818  -3.288251  1.514856
H    -3.879519  -3.787217  -0.175630
H    -4.992259  -1.153123  0.702717
H    -4.776523  -1.630559  -0.878808
H    -5.823451  -2.452152  0.104938
O    1.377562  0.924049  2.966266
H    1.567023  -2.188408  0.564242
Hg    3.520112  1.019167  3.712659
