26
Energy: -566927.900653 eV PBE+vdW (tier 2 basis)
N    2.221712  -2.573366  0.531930
C    1.168407  -1.492062  0.749662
C    1.737253  -0.455916  1.779490
O    0.983783  0.481502  2.150229
H    3.165273  -2.173188  0.394315
H    2.285388  -3.222719  1.333417
H    1.110213  -0.930675  -0.197717
C    -0.188714  -2.118399  1.113194
C    -1.406161  -1.201382  0.892848
C    -2.741237  -1.949662  1.123967
C    -3.943391  -1.043804  0.837940
N    -5.265404  -1.775294  1.020771
H    -0.161450  -2.501063  2.146335
H    -0.294268  -3.006629  0.463886
H    -1.380197  -0.803219  -0.133440
H    -1.349118  -0.333218  1.568626
H    -2.787693  -2.316506  2.161402
H    -2.781769  -2.832686  0.466116
H    -3.944918  -0.675218  -0.195633
H    -3.981369  -0.178981  1.512018
H    -6.061919  -1.149621  0.820603
H    -5.353787  -2.584949  0.387826
H    -5.390391  -2.122653  1.983807
O    2.940472  -0.606877  2.131775
H    1.994701  -3.137083  -0.303870
Hg    2.771586  1.370667  3.396501
