26
Energy: -566927.624546 eV PBE+vdW (tier 2 basis)
N    -0.065556  1.659063  1.632905
C    -0.047524  0.453510  2.566671
C    1.424703  -0.073386  2.656847
O    1.627584  -1.087307  3.380581
H    0.090557  1.391932  0.647099
H    -0.975695  2.143912  1.684935
H    -0.262559  0.848346  3.573342
C    -1.067907  -0.626369  2.165486
C    -2.535367  -0.138282  2.240973
C    -3.607483  -1.192290  1.858524
C    -3.952688  -2.191329  2.967868
N    -5.162372  -3.035253  2.588489
H    -0.895083  -1.465309  2.854467
H    -0.835663  -0.999700  1.154710
H    -2.690457  0.697482  1.541083
H    -2.746748  0.257882  3.246774
H    -3.304646  -1.724487  0.943283
H    -4.515391  -0.625497  1.600268
H    -4.224231  -1.685766  3.903271
H    -3.145913  -2.903673  3.179298
H    -5.399478  -3.704613  3.337777
H    -6.000953  -2.455459  2.427836
H    -5.003531  -3.585477  1.730592
O    2.314394  0.571048  2.041210
H    0.666485  2.347047  1.876247
Hg    3.899518  -0.944024  2.977465
