26
Energy: -566927.730515 eV PBE+vdW (tier 2 basis)
N    -0.906994  0.516236  0.570825
C    -0.344956  0.414272  1.984598
C    0.960213  1.283516  2.045214
O    1.226946  1.981874  1.031729
H    -0.895431  1.490306  0.222734
H    -1.884194  0.182584  0.540726
H    -1.057674  0.949852  2.633852
C    -0.195864  -1.056024  2.416107
C    -0.009933  -1.245040  3.932677
C    0.207219  -2.702070  4.411936
C    -1.074501  -3.535507  4.523851
N    -0.809062  -4.868259  5.211358
H    0.628920  -1.526802  1.856390
H    -1.121122  -1.561449  2.084586
H    -0.857258  -0.794249  4.472571
H    0.879546  -0.678542  4.251237
H    0.670172  -2.635068  5.408305
H    0.938915  -3.209786  3.764153
H    -1.516367  -3.785248  3.551180
H    -1.836750  -3.033072  5.133060
H    -1.673992  -5.426554  5.289173
H    -0.446663  -4.741048  6.169260
H    -0.122874  -5.443815  4.699582
O    1.626984  1.271142  3.116950
H    -0.365963  -0.047891  -0.105114
Hg    3.076681  2.872643  2.236063
