26
Energy: -566927.919932 eV PBE+vdW (tier 2 basis)
N    0.950348  0.109112  -0.195840
C    0.296900  0.131777  1.181748
C    1.403123  0.456900  2.240704
O    2.569755  0.675620  1.827175
H    1.582008  -0.699971  -0.312997
H    0.232831  0.056921  -0.936019
H    -0.366116  1.012417  1.189305
C    -0.484914  -1.154348  1.494009
C    -1.734434  -1.370159  0.606758
C    -2.582604  -2.567381  1.100367
C    -3.832667  -2.757955  0.233353
N    -4.692567  -3.916605  0.716314
H    -0.791171  -1.065352  2.546490
H    0.190113  -2.024195  1.442074
H    -1.446694  -1.553924  -0.441677
H    -2.351698  -0.457967  0.617430
H    -2.879367  -2.392111  2.146408
H    -1.972670  -3.484255  1.084648
H    -3.582442  -2.984420  -0.810744
H    -4.483171  -1.874346  0.248242
H    -4.186953  -4.815385  0.693787
H    -5.030089  -3.776855  1.680952
H    -5.527794  -4.026627  0.119116
O    1.031497  0.516921  3.448266
H    1.515198  0.956942  -0.370965
Hg    3.137579  1.119246  4.122100
