26
Energy: -566926.946914 eV PBE+vdW (tier 2 basis)
N    -0.242239  2.127961  2.084376
C    -0.536790  0.675751  2.445998
C    0.591070  0.158895  3.403084
O    1.372800  1.020417  3.890718
H    -1.076062  2.568186  1.661309
H    0.533498  2.219417  1.409752
H    -1.419314  0.712073  3.107205
C    -0.867399  -0.192476  1.222320
C    0.258631  -0.469802  0.205076
C    -0.211100  -1.042600  -1.156415
C    -0.705832  -2.492272  -1.121342
N    -1.008222  -3.001532  -2.524522
H    -1.716417  0.307752  0.723327
H    -1.272443  -1.129778  1.629915
H    1.006491  -1.142491  0.652981
H    0.795049  0.460293  -0.042792
H    0.649966  -0.977099  -1.839118
H    -0.991418  -0.389594  -1.578943
H    -1.635398  -2.619911  -0.552960
H    0.048866  -3.175201  -0.710978
H    -1.743382  -2.448274  -2.991284
H    -1.335625  -3.980378  -2.503813
H    -0.175200  -2.975749  -3.133198
O    0.590506  -1.068166  3.689615
H    0.017112  2.684138  2.916829
Hg    2.285267  -0.694940  5.243872
