26
Energy: -566927.670912 eV PBE+vdW (tier 2 basis)
N    -0.327595  1.700331  0.599213
C    0.645826  0.873753  1.433758
C    1.806948  0.392868  0.496990
O    2.692523  -0.352292  0.990534
H    -0.897675  1.111623  -0.030809
H    0.159601  2.391363  0.003895
H    1.124497  1.580624  2.131159
C    -0.096182  -0.248600  2.180994
C    0.636938  -0.830550  3.406014
C    -0.184980  -1.974959  4.044281
C    0.471068  -2.734169  5.204157
N    0.264506  -2.100130  6.577209
H    -0.363363  -1.050350  1.473247
H    -1.055346  0.186375  2.515729
H    0.831480  -0.020358  4.126835
H    1.620585  -1.223334  3.101478
H    -0.378834  -2.739195  3.276746
H    -1.182711  -1.615957  4.346258
H    1.555328  -2.847274  5.080274
H    0.036500  -3.737134  5.289347
H    0.699876  -2.682566  7.310671
H    -0.736295  -2.024474  6.815323
H    0.677093  -1.160684  6.659692
O    1.794820  0.823717  -0.690365
H    -0.980250  2.218382  1.210397
Hg    3.822642  -0.298009  -1.080028
