26
Energy: -566927.751377 eV PBE+vdW (tier 2 basis)
N    -0.436989  -0.626028  -0.142812
C    0.013554  0.076839  1.133010
C    1.564138  0.292058  1.067331
O    2.128221  0.731352  2.107275
H    -0.159914  -1.619531  -0.168617
H    -1.466365  -0.586663  -0.226838
H    -0.372872  1.107380  1.050114
C    -0.556818  -0.551478  2.410668
C    -0.175481  -1.998887  2.781381
C    -0.889519  -2.428517  4.086336
C    -0.573262  -3.875419  4.476898
N    -1.286759  -4.282804  5.758248
H    -1.654297  -0.463935  2.323260
H    -0.274433  0.133588  3.223954
H    0.915036  -2.078366  2.914589
H    -0.454620  -2.701208  1.978271
H    -1.977580  -2.312157  3.957868
H    -0.589307  -1.749497  4.900074
H    0.496329  -4.032018  4.664858
H    -0.897549  -4.592458  3.712085
H    -1.069843  -5.261435  6.005750
H    -1.007916  -3.700282  6.562645
H    -2.312624  -4.215504  5.672018
O    2.129037  0.103333  -0.042696
H    -0.036711  -0.180870  -0.986106
Hg    4.109546  0.994505  0.942436
