26
Energy: -566927.057585 eV PBE+vdW (tier 2 basis)
N    1.950172  -1.564746  -0.034367
C    0.753517  -1.121685  0.802362
C    1.287501  -0.348482  2.055309
O    2.543351  -0.246842  2.167877
H    1.637660  -1.925620  -0.950960
H    2.614456  -0.793411  -0.214543
H    0.218005  -0.373513  0.197780
C    -0.125154  -2.337095  1.161022
C    -1.591043  -2.075129  1.569425
C    -2.535436  -1.651870  0.415949
C    -3.954938  -2.232036  0.447899
N    -4.893120  -1.606030  1.475411
H    0.374587  -2.915699  1.953821
H    -0.125233  -2.995876  0.273770
H    -1.627258  -1.352333  2.399912
H    -1.931033  -3.031404  1.995924
H    -2.134468  -2.022385  -0.540950
H    -2.580585  -0.557118  0.306949
H    -3.954471  -3.309486  0.657105
H    -4.445935  -2.076610  -0.520517
H    -5.015498  -0.593897  1.321381
H    -5.831753  -2.032100  1.405453
H    -4.578907  -1.742209  2.446475
O    0.445349  0.130242  2.854974
H    2.486061  -2.319938  0.425862
Hg    2.261177  0.986272  4.129674
