26
Energy: -566926.958526 eV PBE+vdW (tier 2 basis)
N    0.683217  0.838955  0.440419
C    0.284314  0.136864  1.677715
C    1.410594  -0.795084  2.233062
O    2.535872  -0.908559  1.718112
H    0.481736  1.846176  0.474923
H    0.251036  0.448221  -0.405613
H    0.183353  0.915332  2.454181
C    -1.094406  -0.598212  1.532861
C    -1.170089  -1.876718  0.676159
C    -2.601990  -2.471255  0.703259
C    -2.713129  -3.748491  -0.138050
N    -4.114472  -4.340263  -0.092093
H    -1.804218  0.161559  1.172140
H    -1.429715  -0.813064  2.561629
H    -0.455754  -2.629847  1.044684
H    -0.893655  -1.665249  -0.370145
H    -3.316736  -1.719269  0.333333
H    -2.880365  -2.691555  1.746149
H    -2.041228  -4.539475  0.218458
H    -2.498831  -3.566211  -1.198689
H    -4.828174  -3.688971  -0.454140
H    -4.169694  -5.195579  -0.668371
H    -4.397394  -4.605605  0.864001
O    1.182551  -1.486053  3.308762
H    0.314430  -1.331871  3.736068
Hg    2.990822  0.616314  0.088462
