26
Energy: -566927.767284 eV PBE+vdW (tier 2 basis)
N    1.033482  -0.057957  0.253562
C    0.090967  0.086539  1.443744
C    0.939419  0.532499  2.682852
O    2.177672  0.682265  2.526576
H    1.695642  -0.841669  0.376290
H    0.500017  -0.230529  -0.612847
H    -0.559555  0.946280  1.216638
C    -0.728307  -1.186266  1.712309
C    -1.776530  -1.541844  0.627875
C    -2.564567  -2.807426  1.045220
C    -3.509111  -3.416927  0.001531
N    -4.900925  -2.792756  -0.046286
H    -1.238242  -1.015768  2.671601
H    -0.045110  -2.035901  1.877095
H    -1.290454  -1.743905  -0.341129
H    -2.449320  -0.682412  0.478990
H    -3.105120  -2.629307  1.988757
H    -1.845687  -3.608203  1.275343
H    -3.682374  -4.475026  0.231800
H    -3.112564  -3.358262  -1.019900
H    -5.384787  -2.868798  0.861472
H    -4.894994  -1.799091  -0.314940
H    -5.489819  -3.284674  -0.737874
O    0.306150  0.742559  3.756789
H    1.602045  0.791785  0.102012
Hg    2.234072  1.378795  4.827519
