26
Energy: -566927.532147 eV PBE+vdW (tier 2 basis)
N    0.259289  0.916715  0.286868
C    -0.019460  0.185279  1.595762
C    1.268546  0.272646  2.483375
O    1.211730  -0.275977  3.621030
H    0.632790  1.867529  0.444696
H    0.951546  0.417793  -0.295858
H    -0.772629  0.787928  2.128598
C    -0.501120  -1.258190  1.379431
C    -1.901627  -1.398546  0.731455
C    -2.283420  -2.893416  0.603906
C    -3.562649  -3.219387  -0.178040
N    -4.845524  -3.175736  0.647617
H    -0.510541  -1.722652  2.376222
H    0.249665  -1.812481  0.792196
H    -1.917118  -0.954340  -0.277737
H    -2.637725  -0.847110  1.337690
H    -2.313856  -3.368631  1.597631
H    -1.479887  -3.415381  0.062937
H    -3.511218  -4.244403  -0.564246
H    -3.724900  -2.549097  -1.031437
H    -5.049796  -2.245853  1.039075
H    -5.656572  -3.438092  0.064120
H    -4.816321  -3.845404  1.431687
O    2.255129  0.905251  2.029083
H    -0.605820  1.012230  -0.267577
Hg    3.335489  0.433326  4.124516
