26
Energy: -566926.718869 eV PBE+vdW (tier 2 basis)
N    0.457498  0.626058  0.394857
C    0.166748  -0.020548  1.685424
C    1.470139  -0.330834  2.512106
O    2.609401  -0.363706  2.021523
H    -0.017026  0.179806  -0.397672
H    0.258687  1.634220  0.381512
H    -0.366396  0.726640  2.301611
C    -0.661242  -1.332179  1.530584
C    -2.189131  -1.119826  1.370531
C    -2.927679  -2.479453  1.427760
C    -4.443698  -2.449262  1.673947
N    -5.305561  -2.306866  0.422705
H    -0.485519  -1.956305  2.419138
H    -0.246567  -1.915021  0.690789
H    -2.406663  -0.582923  0.433039
H    -2.549191  -0.478692  2.190648
H    -2.527784  -3.054614  2.277204
H    -2.694038  -3.090772  0.541394
H    -4.748724  -1.639526  2.348732
H    -4.761254  -3.396918  2.125248
H    -6.306905  -2.347242  0.674655
H    -5.162603  -1.418125  -0.076441
H    -5.139556  -3.074246  -0.246443
O    1.361839  -0.605239  3.774653
H    0.463358  -0.526486  4.159886
Hg    2.774174  0.438913  -0.094476
