26
Energy: -566927.768960 eV PBE+vdW (tier 2 basis)
N    -0.365077  1.768359  1.803092
C    -0.139245  0.680759  2.847738
C    1.396532  0.383464  2.924664
O    1.761333  -0.519720  3.729522
H    -0.198801  1.428666  0.841991
H    -1.335646  2.117805  1.849698
H    -0.375145  1.145289  3.819736
C    -1.011046  -0.565043  2.619209
C    -2.526755  -0.270620  2.755745
C    -3.429321  -1.502417  3.023708
C    -3.718247  -2.385150  1.806320
N    -4.777247  -3.431283  2.129343
H    -0.698217  -1.282751  3.391886
H    -0.765016  -1.023756  1.648383
H    -2.907426  0.261974  1.868935
H    -2.679152  0.401928  3.613847
H    -4.381787  -1.100659  3.404177
H    -3.000353  -2.104349  3.839972
H    -2.841559  -2.944645  1.457286
H    -4.119515  -1.806270  0.964553
H    -5.670601  -2.999293  2.413378
H    -4.977961  -4.025271  1.309263
H    -4.486693  -4.059675  2.894109
O    2.166747  1.091737  2.226982
H    0.262801  2.577017  1.946764
Hg    3.974394  -0.094097  3.268699
