26
Energy: -566927.716800 eV PBE+vdW (tier 2 basis)
N    0.971863  -0.066762  -0.286990
C    0.502213  -0.042586  1.163482
C    1.763846  0.118687  2.078378
O    2.887926  0.206191  1.525265
H    0.166197  -0.018390  -0.929714
H    1.591652  0.730738  -0.507444
H    -0.058736  0.898001  1.287037
C    -0.359800  -1.258450  1.538092
C    -1.764720  -1.301912  0.883336
C    -2.635987  -2.382318  1.571807
C    -4.140749  -2.364294  1.272746
N    -4.563822  -3.139594  0.027942
H    -0.480698  -1.202828  2.629909
H    0.197692  -2.188756  1.341205
H    -1.688624  -1.498871  -0.198997
H    -2.250762  -0.320686  1.002548
H    -2.569902  -2.230760  2.659698
H    -2.222004  -3.388507  1.398488
H    -4.538664  -1.348952  1.151165
H    -4.685738  -2.839686  2.097161
H    -5.591928  -3.121041  -0.071453
H    -4.175356  -2.757059  -0.844885
H    -4.290104  -4.132452  0.084798
O    1.552027  0.187434  3.324044
H    1.501951  -0.925438  -0.508364
Hg    3.776226  0.504291  3.751748
