26
Energy: -566927.668617 eV PBE+vdW (tier 2 basis)
N    -0.289760  0.647129  0.051638
C    0.437878  0.584216  1.390493
C    1.808592  -0.145538  1.177800
O    2.490042  -0.399892  2.209030
H    -0.653978  -0.271534  -0.245815
H    0.331432  0.980860  -0.704941
H    0.743399  1.621633  1.608684
C    -0.439973  0.070754  2.541489
C    -0.978844  -1.371402  2.448003
C    -1.612897  -1.918764  3.751911
C    -2.981799  -1.330404  4.110340
N    -3.592149  -2.045772  5.308089
H    -1.263725  0.798098  2.641988
H    0.174337  0.189349  3.446695
H    -0.148711  -2.053466  2.206766
H    -1.710301  -1.470532  1.629080
H    -0.909407  -1.774881  4.587172
H    -1.718351  -3.006271  3.616912
H    -3.706288  -1.445125  3.293780
H    -2.937516  -0.270373  4.389787
H    -3.002850  -1.968906  6.151392
H    -3.734728  -3.051520  5.125919
H    -4.515067  -1.650124  5.548387
O    2.177747  -0.354897  -0.008172
H    -1.089923  1.298442  0.107942
Hg    4.254838  -1.106082  0.890631
