35
Energy: -571610.9378219  eV PBE+vdW (tier 2 basis)
C    0.725980  -1.569141  2.296315
C    0.704469  -0.089087  2.379378
O    1.827735  0.530214  2.311215
H    -0.249057  -2.015706  2.518380
H    1.459467  -1.939670  3.033787
H    1.107494  -1.893687  1.316296
N    -0.431135  0.627373  2.565247
C    -1.676332  0.493190  1.805393
C    -1.586423  1.522362  0.634963
O    -0.733985  2.483070  0.608815
H    -0.262621  1.573578  2.912199
H    -1.676991  -0.508112  1.350018
C    -2.946639  0.604088  2.695298
C    -3.155762  1.936530  3.437911
C    -4.189630  1.892260  4.590161
C    -5.650719  1.767197  4.152650
N    -6.589377  1.881413  5.347254
H    -2.865638  -0.222889  3.416911
H    -3.816792  0.364212  2.065348
H    -3.420849  2.738720  2.731430
H    -2.214247  2.251467  3.913132
H    -4.070308  2.825017  5.162764
H    -3.933267  1.069636  5.276736
H    -5.881872  0.802060  3.685444
H    -5.945382  2.568781  3.463371
H    -7.576929  1.800066  5.059365
H    -6.488505  2.788355  5.828583
H    -6.416389  1.144652  6.048002
N    -2.464244  1.422997  -0.350547
C    -2.507933  2.257108  -1.554143
H    -3.211597  0.734650  -0.250166
H    -2.817222  1.629556  -2.398040
H    -1.524984  2.699152  -1.735765
H    -3.245380  3.063597  -1.425988
Hg    1.487588  2.389400  1.137101
