35
Energy: -571611.1141477  eV PBE+vdW (tier 2 basis)
C    0.555941  -1.272436  0.984180
C    -0.161508  0.029318  1.145631
O    0.259764  1.116718  0.764229
H    1.611192  -1.078213  0.768850
H    0.120982  -1.796340  0.114411
H    0.454973  -1.934677  1.853014
N    -1.423413  -0.034217  1.782798
C    -2.191947  1.074656  2.225340
C    -2.850813  1.872675  0.956751
O    -4.107277  1.864557  1.068735
H    -1.767330  -0.964210  2.028373
H    -3.057456  0.677884  2.769586
C    -1.492745  2.158878  3.117150
C    -1.176340  1.644097  4.536014
C    -0.662473  2.810139  5.414340
C    -0.546347  2.542254  6.918662
N    0.736786  1.831568  7.340333
H    -2.183466  3.011856  3.185412
H    -0.588372  2.510935  2.603459
H    -0.439953  0.827097  4.475360
H    -2.085297  1.224645  4.995337
H    -1.372634  3.647342  5.337424
H    0.288539  3.205468  5.022702
H    -1.373598  1.935249  7.307319
H    -0.537398  3.491726  7.467450
H    0.768408  1.724811  8.366813
H    1.574755  2.368498  7.070584
H    0.826286  0.888240  6.939314
N    -2.065176  2.400377  0.056254
C    -2.480112  3.152604  -1.134625
H    -1.057437  2.194354  0.196238
H    -1.569157  3.457528  -1.661879
H    -3.025276  4.064645  -0.855932
H    -3.067480  2.524640  -1.818667
Hg    -5.772910  2.719077  -0.268384
