35
Energy: -571610.8536280  eV PBE+vdW (tier 2 basis)
C    -0.808715  -0.259053  -0.468974
C    -0.567750  -0.235611  1.004849
O    0.499752  -0.417302  1.564728
H    0.140457  -0.381914  -0.997983
H    -1.314961  0.652536  -0.817420
H    -1.465140  -1.114813  -0.701468
N    -1.697519  0.048172  1.830558
C    -1.587353  0.043442  3.239184
C    -2.826581  -0.742074  3.856861
O    -2.440995  -1.863350  4.285283
H    -2.516861  0.453084  1.373175
H    -0.690471  -0.553802  3.474229
C    -1.450310  1.436831  3.966642
C    -0.095705  2.138811  3.743467
C    1.106218  1.530776  4.494480
C    2.244400  2.494853  4.842873
N    3.112320  2.914249  3.658894
H    -1.613945  1.269851  5.040980
H    -2.258489  2.093456  3.609427
H    -0.273867  3.164729  4.113386
H    0.107914  2.242431  2.667067
H    1.508398  0.652962  3.965617
H    0.768894  1.158963  5.474916
H    2.934863  2.024619  5.553125
H    1.878051  3.426823  5.292122
H    3.885108  3.520183  3.977754
H    2.591159  3.447295  2.949125
H    3.541932  2.102166  3.191353
N    -4.027298  -0.206287  3.870419
C    -5.259047  -0.816506  4.399971
H    -4.112611  0.747464  3.524226
H    -6.071130  -0.093217  4.272647
H    -5.158996  -1.027093  5.473135
H    -5.517894  -1.720379  3.834073
Hg    -3.519575  -3.699184  5.272884
