35
Energy: -571611.0428479  eV PBE+vdW (tier 2 basis)
 C   -0.56385    1.03173    2.16408
 C   -0.87752   -0.31324    2.70557
 O   -0.22716   -0.82177    3.68694
 H    0.38696    0.95347    1.60803
 H   -1.30092    1.41072    1.45520
 H   -0.41262    1.73937    2.98885
 N   -1.86759   -1.12770    2.26905
 C   -3.02210   -0.92830    1.40756
 C   -2.53932   -0.83079   -0.11864
 O   -1.56476   -0.15895   -0.40650
 H   -1.81032   -2.05500    2.69856
 H   -3.60427   -1.85364    1.51559
 C   -3.96740    0.27179    1.67829
 C   -4.81716    0.10727    2.95505
 C   -5.89036    1.21243    3.07544
 C   -6.76554    1.01045    4.31530
 N   -7.85450    2.06953    4.42120
 H   -4.63597    0.34483    0.80610
 H   -3.39789    1.21037    1.69203
 H   -4.16501    0.11737    3.84227
 H   -5.31270   -0.87651    2.94268
 H   -6.52314    1.20341    2.17343
 H   -5.40505    2.20036    3.11733
 H   -6.18950    1.07630    5.24666
 H   -7.28681    0.04505    4.30008
 H   -7.46527    3.02214    4.48486
 H   -8.43346    1.92220    5.26272
 H   -8.49133    2.05205    3.61033
 N   -3.29872   -1.51374   -1.00732
 C   -2.90412   -1.67682   -2.39994
 H   -4.05429   -2.10387   -0.66242
 H   -3.81373   -1.81910   -2.99854
 H   -2.27009   -2.56972   -2.53866
 H   -2.33668   -0.79453   -2.71879
Hg    2.01458   -0.65045    4.07687
