35
Energy: -571610.7711857  eV PBE+vdW (tier 2 basis)
C    -3.587020  -1.319336  -1.225680
C    -2.127342  -1.076378  -1.103503
O    -1.438636  -1.168287  -2.185175
H    -4.169248  -0.770561  -0.481375
H    -3.787923  -2.401165  -1.154441
H    -3.901749  -1.020477  -2.236553
N    -1.489021  -0.707507  0.032396
C    -1.557330  -1.306406  1.379335
C    -0.781935  -2.659755  1.264744
O    -0.670688  -3.245320  0.135861
H    -0.567899  -0.308536  -0.163865
H    -0.957038  -0.631836  2.009318
C    -2.956510  -1.432649  2.030440
C    -3.596052  -0.054264  2.298466
C    -5.038908  -0.059149  2.857590
C    -5.138988  -0.327706  4.361492
N    -6.551957  -0.078813  4.874458
H    -2.816155  -1.979895  2.975441
H    -3.609818  -2.069974  1.418216
H    -3.622203  0.517157  1.359535
H    -2.944622  0.529084  2.968412
H    -5.661481  -0.779404  2.303169
H    -5.459395  0.937501  2.652096
H    -4.491442  0.344338  4.938981
H    -4.900011  -1.362602  4.635356
H    -6.619288  -0.252800  5.889357
H    -7.246673  -0.687257  4.415691
H    -6.849088  0.896424  4.715572
N    -0.274426  -3.203541  2.363867
C    0.531058  -4.420633  2.430960
H    -0.479928  -2.753252  3.257358
H    1.417440  -4.227435  3.050064
H    0.812497  -4.739030  1.425463
H    -0.055466  -5.218740  2.913469
Hg    0.275364  -2.563947  -1.886395
