35
Energy: -571610.9910108  eV PBE+vdW (tier 2 basis)
C    -0.138549  0.778214  -0.413440
C    -0.155380  0.198302  0.953182
O    0.857578  -0.387926  1.477527
H    0.165698  0.007804  -1.136037
H    0.620596  1.576376  -0.447451
H    -1.091501  1.211588  -0.727058
N    -1.240695  0.182731  1.754252
C    -2.649983  0.335538  1.435952
C    -3.226931  1.224800  2.627412
O    -3.056088  0.814375  3.767710
H    -1.059336  -0.179716  2.699439
H    -2.759849  0.855700  0.476675
C    -3.382804  -1.036054  1.434241
C    -4.909792  -0.998115  1.232794
C    -5.500032  -2.415218  1.407290
C    -7.024969  -2.536347  1.449437
N    -7.690651  -2.580435  0.075889
H    -3.156250  -1.526746  2.393363
H    -2.912264  -1.638361  0.641387
H    -5.146135  -0.582881  0.239616
H    -5.372053  -0.331968  1.977961
H    -5.161488  -2.813754  2.375693
H    -5.087425  -3.107952  0.655581
H    -7.501707  -1.710756  1.992582
H    -7.318554  -3.474087  1.935753
H    -8.712179  -2.692747  0.171213
H    -7.353173  -3.379222  -0.481653
H    -7.532301  -1.726207  -0.475243
N    -3.866138  2.361768  2.294240
C    -4.317896  3.330820  3.290437
H    -3.908899  2.634832  1.314643
H    -5.215351  3.831931  2.907052
H    -3.547494  4.099215  3.468467
H    -4.519575  2.812196  4.234004
Hg    3.048643  0.095575  1.211754
