35
Energy: -571611.0916913  eV PBE+vdW (tier 2 basis)
C    0.760968  2.006448  1.952136
C    -0.162553  0.842192  2.142766
O    -0.305757  0.108811  1.097838
H    0.650380  2.773515  2.727351
H    0.587651  2.451573  0.963296
H    1.796856  1.630270  1.947977
N    -0.715666  0.672089  3.356004
C    -1.822424  -0.131259  3.979720
C    -1.581712  -1.648651  4.138776
O    -1.763211  -2.525825  3.195640
H    -0.375618  1.378300  4.006745
H    -1.785970  0.240701  5.009918
C    -3.270009  0.239195  3.529651
C    -3.749020  0.010899  2.086083
C    -5.266716  0.253715  1.869003
C    -5.707083  1.720341  1.908413
N    -7.181519  1.858421  1.551111
H    -3.381371  1.300734  3.797080
H    -3.930261  -0.311367  4.219970
H    -3.593514  -1.043173  1.804121
H    -3.175342  0.630870  1.379660
H    -5.834941  -0.328940  2.611343
H    -5.521738  -0.165343  0.883516
H    -5.163719  2.334978  1.179430
H    -5.599078  2.178813  2.898840
H    -7.481433  2.845859  1.573884
H    -7.790436  1.342980  2.205151
H    -7.384097  1.503979  0.603505
N    -1.307750  -2.151227  5.328064
C    -1.223048  -1.527682  6.655635
H    -1.218626  -3.173996  5.321716
H    -0.808115  -0.516644  6.599775
H    -0.552893  -2.143765  7.265793
H    -2.211823  -1.511352  7.134896
Hg    -0.999745  -1.908014  1.291245
