35
Energy: -571610.8211677  eV PBE+vdW (tier 2 basis)
C    0.334421  -0.777597  0.284349
C    -0.116607  0.252019  1.258386
O    0.670257  1.149729  1.734335
H    0.485779  -0.290855  -0.694810
H    -0.371435  -1.599457  0.137731
H    1.300050  -1.190435  0.604072
N    -1.363272  0.308241  1.757253
C    -2.434520  -0.663552  1.649401
C    -3.743920  0.174395  1.827418
O    -3.730078  1.147264  2.573071
H    -1.585065  1.121600  2.347641
H    -2.386626  -1.119984  0.651906
C    -2.440250  -1.836099  2.694988
C    -2.847196  -1.589595  4.158388
C    -1.879836  -0.770874  5.036360
C    -1.900481  -1.110777  6.529742
N    -3.192003  -0.731147  7.249345
H    -1.434778  -2.285877  2.644092
H    -3.119567  -2.594490  2.279805
H    -2.943315  -2.603270  4.582378
H    -3.861623  -1.161110  4.194848
H    -2.029253  0.311358  4.896898
H    -0.840365  -0.975402  4.735052
H    -1.103306  -0.578490  7.062048
H    -1.767846  -2.186270  6.704255
H    -3.126845  -0.965625  8.252628
H    -4.013188  -1.231300  6.880955
H    -3.386096  0.279253  7.189680
N    -4.830806  -0.258250  1.140668
C    -6.052516  0.516598  1.029731
H    -4.734558  -1.069557  0.529085
H    -6.054630  1.129260  0.108989
H    -6.139547  1.187636  1.891088
H    -6.900729  -0.179011  0.952509
Hg    2.338136  2.171524  0.602753
