35
Energy: -571610.5237711  eV PBE+vdW (tier 2 basis)
C    0.746177  0.209004  1.083302
C    0.062117  -0.539608  2.167624
O    0.213859  -1.813792  2.166500
H    0.129456  0.184327  0.169550
H    1.672563  -0.328667  0.830386
H    0.980799  1.239909  1.357326
N    -0.640907  0.017725  3.188447
C    -1.733522  1.010056  3.146288
C    -2.985393  0.210233  2.675080
O    -2.835365  -0.809264  1.909911
H    -0.759162  -0.644466  3.959258
H    -1.890145  1.305151  4.194911
C    -1.502934  2.273647  2.287211
C    -0.438272  3.280628  2.788150
C    -0.885404  4.174223  3.967820
C    -0.268601  5.575406  4.035812
N    1.193108  5.619768  4.472833
H    -2.468485  2.795506  2.214042
H    -1.274779  1.973551  1.256713
H    -0.212655  3.920425  1.921207
H    0.497113  2.753946  3.033686
H    -0.763133  3.665476  4.937296
H    -1.964213  4.377374  3.875992
H    -0.805042  6.192757  4.766321
H    -0.307111  6.087264  3.065730
H    1.521485  6.597599  4.523393
H    1.821593  5.129733  3.821357
H    1.328756  5.212053  5.409793
N    -4.218207  0.576843  2.995791
C    -4.698536  1.765634  3.691124
H    -4.942757  -0.057897  2.641960
H    -5.129529  2.475042  2.967453
H    -3.893975  2.250098  4.250787
H    -5.497252  1.463681  4.381476
Hg    -1.776845  -2.839012  2.239119
