35
Energy: -571610.6924609  eV PBE+vdW (tier 2 basis)
C    0.172546  -0.494568  0.279533
C    -0.076921  -0.916064  1.683816
O    0.771967  -1.607949  2.362572
H    0.598238  -1.331972  -0.288330
H    0.915880  0.321596  0.284971
H    -0.715116  -0.128119  -0.242951
N    -1.212056  -0.656824  2.348683
C    -2.470171  -0.128409  1.842265
C    -3.131464  0.535276  3.087285
O    -2.948117  0.019290  4.189073
H    -1.233734  -0.915767  3.344810
H    -2.242323  0.608484  1.063383
C    -3.468422  -1.172925  1.226986
C    -4.302013  -2.099790  2.131411
C    -3.554525  -3.217896  2.884228
C    -4.389581  -4.458277  3.215928
N    -5.480324  -4.228477  4.258941
H    -2.881879  -1.766140  0.506827
H    -4.169854  -0.583141  0.619783
H    -5.030968  -2.560511  1.443991
H    -4.901957  -1.494153  2.829549
H    -3.074112  -2.835693  3.798498
H    -2.740785  -3.608925  2.253237
H    -3.757963  -5.254840  3.626612
H    -4.903303  -4.853167  2.330014
H    -5.983000  -5.108879  4.453670
H    -6.186858  -3.545903  3.950793
H    -5.094832  -3.898609  5.156038
N    -3.903595  1.641407  2.928182
C    -4.136467  2.460068  1.755089
H    -4.205452  2.037492  3.825019
H    -5.149739  2.882653  1.826939
H    -4.044681  1.885338  0.829014
H    -3.440653  3.318306  1.727558
Hg    3.007322  -1.429333  2.233842
