35
Energy: -571610.7537841  eV PBE+vdW (tier 2 basis)
C    0.018085  -0.721546  0.171578
C    -0.085631  -0.059692  1.496427
O    0.816665  -0.163039  2.405456
H    0.905248  -0.330276  -0.352306
H    -0.848987  -0.563415  -0.474660
H    0.172588  -1.800927  0.312277
N    -1.150374  0.660189  1.898361
C    -2.511560  0.679108  1.384661
C    -2.989772  2.154388  1.686978
O    -2.798736  2.580414  2.820865
H    -1.046207  1.114178  2.816626
H    -2.500903  0.471310  0.309908
C    -3.417441  -0.345580  2.140459
C    -4.925899  -0.386389  1.804973
C    -5.818287  0.533004  2.661404
C    -7.327467  0.396751  2.437981
N    -7.946306  -0.827750  3.107520
H    -3.273538  -0.187700  3.219734
H    -2.980724  -1.326382  1.899443
H    -5.224518  -1.436800  1.950273
H    -5.096190  -0.192162  0.734103
H    -5.597054  1.590063  2.452940
H    -5.588179  0.403736  3.731785
H    -7.593835  0.325734  1.375664
H    -7.859018  1.255028  2.865473
H    -8.966276  -0.849292  2.950677
H    -7.800558  -0.817744  4.128181
H    -7.570565  -1.715890  2.747200
N    -3.575335  2.880207  0.706760
C    -3.703549  2.585246  -0.714883
H    -3.720972  3.856726  0.980109
H    -4.476111  3.245937  -1.126616
H    -4.000489  1.544846  -0.884757
H    -2.769318  2.797810  -1.259868
Hg    3.041263  -0.303600  2.134764
