35
Energy: -571611.6061641  eV PBE+vdW (tier 2 basis)
C    -0.373992  0.918810  -0.452103
C    -0.243325  0.100944  0.792388
O    0.930616  -0.361401  1.015545
H    -0.206447  0.267684  -1.323473
H    0.424416  1.675426  -0.469866
H    -1.348182  1.414613  -0.532549
N    -1.330352  -0.089507  1.564294
C    -1.424961  -0.550694  2.969292
C    -1.609068  -2.091983  3.047060
O    -0.592902  -2.873961  3.187806
H    -2.183997  0.314968  1.181200
H    -0.453795  -0.350020  3.452101
C    -2.485234  0.292456  3.721760
C    -2.504176  0.044644  5.243908
C    -3.595064  0.801539  6.040474
C    -3.299216  2.283605  6.287426
N    -4.307105  2.892773  7.253788
H    -3.485455  0.116619  3.287578
H    -2.246988  1.344282  3.503020
H    -1.514760  0.278265  5.667684
H    -2.665407  -1.025123  5.441380
H    -3.681424  0.293701  7.013415
H    -4.572385  0.688842  5.544706
H    -3.351030  2.895092  5.378305
H    -2.315543  2.432407  6.750754
H    -5.273457  2.834395  6.898281
H    -4.106901  3.890699  7.424465
H    -4.291317  2.421065  8.171342
N    -2.809003  -2.627058  2.987604
C    -3.100421  -4.069522  3.001104
H    -3.609113  -1.996191  2.984776
H    -2.257219  -4.618459  2.572270
H    -4.008548  -4.241340  2.414479
H    -3.264313  -4.408896  4.032975
Hg    1.242068  -2.049670  2.345810
