35
Energy: -571611.1532977  eV PBE+vdW (tier 2 basis)
C    -3.434727  2.784879  1.391605
C    -2.417788  2.058299  2.213217
O    -1.222782  1.978747  1.944788
H    -2.992169  3.058776  0.429514
H    -3.715572  3.709372  1.926464
H    -4.352403  2.202048  1.237733
N    -2.903526  1.425447  3.380300
C    -2.186627  0.490409  4.177749
C    -1.041751  1.245425  5.056365
O    -1.272494  1.066602  6.284369
H    -3.896343  1.547492  3.588160
H    -2.886708  0.098841  4.926346
C    -1.515383  -0.725503  3.444901
C    -2.597902  -1.635902  2.830676
C    -2.061368  -2.782049  1.936580
C    -1.539720  -4.005025  2.693268
N    -1.251008  -5.156635  1.738340
H    -0.909514  -1.263834  4.187597
H    -0.834031  -0.338686  2.675165
H    -3.250820  -1.023178  2.193189
H    -3.245022  -2.052135  3.618279
H    -1.290307  -2.398299  1.250270
H    -2.910859  -3.092600  1.306411
H    -2.277211  -4.389064  3.409497
H    -0.600483  -3.816519  3.227524
H    -2.097803  -5.450229  1.226975
H    -0.540290  -4.909489  1.033065
H    -0.901997  -5.985481  2.244262
N    -0.084334  1.893648  4.445632
C    1.011973  2.636036  5.079025
H    -0.189477  1.932374  3.413635
H    1.655361  3.017302  4.277914
H    1.622492  1.977118  5.711092
H    0.635011  3.500198  5.643775
Hg    -0.237340  1.875450  8.177401
