35
Energy: -571611.2890321  eV PBE+vdW (tier 2 basis)
C    0.654528  1.613991  3.646407
C    -0.107199  0.511746  2.982403
O    0.399416  0.110818  1.870083
H    1.596004  1.201651  4.042818
H    0.090823  2.100429  4.450698
H    0.937152  2.362094  2.892026
N    -1.209141  0.037186  3.589704
C    -2.396274  -0.770424  3.154261
C    -2.156085  -2.300067  3.158581
O    -1.672835  -2.938751  2.133855
H    -1.360887  0.482383  4.493386
H    -3.106924  -0.587046  3.968436
C    -3.097169  -0.239198  1.875370
C    -4.514745  -0.833917  1.710950
C    -5.527396  0.001123  0.890358
C    -5.345298  -0.042953  -0.628079
N    -6.515513  0.629833  -1.335654
H    -2.490015  -0.406616  0.971199
H    -3.154985  0.852120  2.002790
H    -4.965296  -0.934960  2.710360
H    -4.458376  -1.854974  1.303803
H    -5.517187  1.045005  1.241856
H    -6.524878  -0.396851  1.134036
H    -5.318463  -1.071667  -1.009614
H    -4.446073  0.482234  -0.972987
H    -7.410856  0.164035  -1.120486
H    -6.401660  0.605209  -2.360957
H    -6.616443  1.620133  -1.065385
N    -2.520737  -3.051166  4.177814
C    -3.235994  -2.748255  5.421899
H    -2.302918  -4.046090  4.044251
H    -4.216350  -3.242767  5.406112
H    -3.365222  -1.674254  5.572008
H    -2.653284  -3.159635  6.256987
Hg    -0.111463  -1.839004  1.149596
