35
Energy: -571610.9630426  eV PBE+vdW (tier 2 basis)
C    -1.495523  -2.437820  0.433052
C    -1.666565  -1.235487  1.306419
O    -2.642968  -1.035271  2.030105
H    -2.421553  -3.019415  0.428275
H    -0.686197  -3.061463  0.851747
H    -1.209324  -2.171207  -0.593418
N    -0.624808  -0.295317  1.274972
C    -0.590511  1.004892  1.868329
C    -0.599132  0.957083  3.468703
O    0.415055  1.586022  3.899039
H    0.157326  -0.521451  0.656946
H    0.404472  1.404797  1.631960
C    -1.577603  2.124235  1.315034
C    -3.085146  2.004142  1.540874
C    -3.956664  2.789624  0.522486
C    -3.915720  4.312322  0.675582
N    -4.922528  4.980246  -0.252959
H    -1.346547  2.126976  0.237721
H    -1.175749  3.060598  1.729304
H    -3.350578  2.304206  2.565393
H    -3.404455  0.956694  1.438924
H    -4.991713  2.442635  0.663486
H    -3.667659  2.507225  -0.502271
H    -2.941111  4.746753  0.421191
H    -4.186546  4.631723  1.689926
H    -5.887611  4.672354  -0.057143
H    -4.732787  4.772715  -1.245311
H    -4.905876  6.006870  -0.149749
N    -1.547842  0.339188  4.125230
C    -1.646588  0.183822  5.580187
H    -2.224271  -0.162215  3.518565
H    -2.558844  -0.385197  5.791569
H    -1.734989  1.158861  6.077358
H    -0.799122  -0.393427  5.977862
Hg    1.289168  1.876849  6.005987
