35
Energy: -571611.0952873  eV PBE+vdW (tier 2 basis)
C    1.021123  0.010772  0.489784
C    0.628313  0.057355  1.933265
O    1.527918  0.497930  2.727696
H    1.485765  0.965053  0.206005
H    0.173604  -0.200959  -0.172623
H    1.793222  -0.763577  0.362005
N    -0.604005  -0.356848  2.282049
C    -1.278791  -0.254315  3.588016
C    -0.835158  -1.374864  4.575344
O    -0.057731  -1.062519  5.563765
H    -1.166758  -0.710832  1.510923
H    -0.924748  0.671256  4.070621
C    -2.820419  -0.133704  3.461750
C    -3.433089  1.268789  3.227425
C    -3.382816  1.828957  1.788647
C    -4.577160  2.694735  1.370524
N    -4.674938  4.046129  2.072763
H    -3.235899  -0.501769  4.411382
H    -3.187149  -0.829866  2.692250
H    -2.999000  1.981482  3.946321
H    -4.487961  1.156923  3.523255
H    -3.411944  0.997345  1.066595
H    -2.440876  2.363483  1.588795
H    -5.531097  2.188461  1.566805
H    -4.530369  2.926335  0.299648
H    -5.492575  4.571532  1.723275
H    -3.847359  4.635429  1.899571
H    -4.793256  3.959421  3.092131
N    -1.233404  -2.630689  4.522780
C    -2.218961  -3.298455  3.668025
H    -0.833058  -3.213077  5.266927
H    -3.221959  -3.238369  4.112942
H    -1.934567  -4.354805  3.602776
H    -2.224134  -2.873797  2.660820
Hg    1.559478  0.253857  4.916229
