35
Energy: -571610.9129544  eV PBE+vdW (tier 2 basis)
C    -2.915274  -3.121885  -1.116664
C    -1.611526  -2.573979  -0.655325
O    -0.482760  -3.018022  -1.047806
H    -3.778630  -2.737436  -0.566860
H    -3.040927  -2.915869  -2.190597
H    -2.901754  -4.216537  -1.000059
N    -1.513954  -1.516173  0.188133
C    -2.472928  -0.441449  0.380057
C    -1.819482  0.863166  -0.193363
O    -0.616497  1.026163  0.003312
H    -0.544268  -1.268302  0.422141
H    -3.392379  -0.691580  -0.157104
C    -2.816139  -0.166099  1.890800
C    -1.622885  0.102590  2.816643
C    -1.938689  0.869158  4.122297
C    -2.685756  0.051470  5.178717
N    -2.798890  0.823594  6.487387
H    -3.397305  -1.040761  2.220719
H    -3.504584  0.692872  1.888300
H    -0.881956  0.723517  2.281270
H    -1.100940  -0.837343  3.054592
H    -2.503794  1.784974  3.886356
H    -0.974599  1.195846  4.541717
H    -2.159983  -0.879592  5.425572
H    -3.713855  -0.195629  4.886492
H    -3.313368  1.709695  6.371516
H    -3.295857  0.275472  7.206417
H    -1.871478  1.059116  6.873040
N    -2.578116  1.774791  -0.849187
C    -3.954409  1.694729  -1.304391
H    -2.021076  2.551118  -1.222115
H    -4.372420  2.711950  -1.297921
H    -4.561987  1.056785  -0.656509
H    -4.010148  1.336449  -2.346474
Hg    0.049877  -5.140901  -1.714698
