35
Energy: -571610.8654211  eV PBE+vdW (tier 2 basis)
 C    0.96233   -2.19944    0.93104
 C    0.53777   -1.82573    2.31732
 O    1.01608   -2.24983    3.34738
 H    1.99358   -2.56668    0.94742
 H    0.85547   -1.37818    0.21199
 H    0.31580   -3.03255    0.60360
 N   -0.53812   -0.86602    2.41291
 C   -0.99223   -0.35959    3.66046
 C   -2.57341   -0.67324    3.80697
 O   -3.09388   -0.15292    4.82783
 H   -0.65438   -0.26325    1.59264
 H   -0.54707   -0.97954    4.45410
 C   -0.71926    1.14531    3.89940
 C    0.77420    1.52415    4.02193
 C    1.46301    1.07982    5.32600
 C    2.94802    1.43277    5.45186
 N    3.22105    2.90656    5.74273
 H   -1.26280    1.42882    4.81296
 H   -1.16903    1.72692    3.08021
 H    0.79893    2.62138    3.92518
 H    1.33904    1.14526    3.15543
 H    1.43741   -0.01719    5.41693
 H    0.91447    1.45880    6.20387
 H    3.51390    1.19643    4.54181
 H    3.40342    0.88597    6.28589
 H    4.23430    3.07124    5.85128
 H    2.77341    3.21294    6.61939
 H    2.89688    3.53152    4.99157
 N   -3.13384   -1.45741    2.91023
 C   -4.51967   -1.92555    2.89076
 H   -2.49928   -1.80425    2.18896
 H   -4.62054   -2.65503    2.07815
 H   -5.21370   -1.09806    2.69419
 H   -4.77204   -2.45904    3.82238
Hg   -5.20532   -0.37557    5.75121
