35
Energy: -571611.0137392  eV PBE+vdW (tier 2 basis)
C    -0.732940  0.968637  0.011038
C    -1.299880  -0.220233  0.709315
O    -1.850591  -1.208253  0.102475
H    -0.418761  1.759149  0.701690
H    -1.474226  1.375799  -0.690424
H    0.153081  0.654200  -0.565827
N    -1.286709  -0.258555  2.055941
C    -1.839425  -1.323977  2.887406
C    -3.401406  -1.304414  2.625705
O    -3.753533  -1.724518  1.516362
H    -1.047085  0.617852  2.523524
H    -1.522549  -2.283936  2.454762
C    -1.366440  -1.154460  4.342440
C    -1.604531  -2.337346  5.311621
C    -0.674629  -3.554445  5.093253
C    -0.244815  -4.313858  6.351540
N    -1.340011  -5.154499  7.002993
H    -1.804326  -0.238581  4.774358
H    -0.283887  -0.954954  4.303145
H    -2.661441  -2.647270  5.297670
H    -1.426554  -1.922460  6.315666
H    0.279129  -3.209640  4.663711
H    -1.089658  -4.257377  4.354151
H    0.119009  -3.636984  7.135186
H    0.558749  -5.021483  6.114702
H    -0.965708  -5.656892  7.823755
H    -2.132592  -4.589235  7.337606
H    -1.711171  -5.869186  6.359754
N    -4.237177  -0.805655  3.538677
C    -5.691312  -0.778482  3.362056
H    -3.863640  -0.543221  4.447821
H    -6.090589  0.069689  3.929315
H    -6.152880  -1.704091  3.736016
H    -5.919598  -0.681433  2.294295
Hg    -1.323130  -1.728873  -2.105121
