35
Energy: -571611.2625099  eV PBE+vdW (tier 2 basis)
C    0.056452  0.919560  0.363717
C    -0.233655  0.295947  1.679185
O    0.653269  -0.251472  2.408887
H    0.544427  0.182846  -0.290564
H    0.773592  1.742487  0.515330
H    -0.821003  1.325318  -0.146231
N    -1.483758  0.195962  2.210340
C    -2.782703  0.230443  1.556622
C    -3.611264  1.292418  2.434681
O    -4.238991  0.894570  3.398472
H    -1.482862  -0.199267  3.158852
H    -2.665971  0.621709  0.538173
C    -3.486815  -1.141602  1.557004
C    -4.857860  -1.152129  0.855864
C    -5.520884  -2.545395  0.927348
C    -6.888087  -2.549403  0.241334
N    -7.560968  -3.912664  0.327626
H    -3.595797  -1.471593  2.601114
H    -2.804534  -1.846280  1.056787
H    -4.740964  -0.854313  -0.197914
H    -5.525804  -0.416338  1.328039
H    -5.635724  -2.838717  1.983079
H    -4.865142  -3.292686  0.452719
H    -6.817360  -2.315697  -0.828340
H    -7.585948  -1.840670  0.704616
H    -8.480336  -3.903241  -0.140461
H    -7.720928  -4.202420  1.304074
H    -6.998957  -4.649928  -0.123393
N    -3.521778  2.584106  2.038679
C    -4.336340  3.632838  2.638781
H    -3.061228  2.793614  1.155034
H    -5.325343  3.706318  2.155381
H    -3.821516  4.591545  2.496478
H    -4.488338  3.403430  3.700786
Hg    2.859597  0.347714  2.701081
