35
Energy: -571610.4895997  eV PBE+vdW (tier 2 basis)
C    -0.387703  0.027289  -0.141324
C    -0.295760  0.342320  1.306456
O    0.776028  0.931957  1.695996
H    0.184914  0.787862  -0.692955
H    -1.416810  0.005148  -0.507018
H    0.116114  -0.932288  -0.344351
N    -1.271777  0.124244  2.225252
C    -2.039958  -1.102780  2.516370
C    -1.053551  -2.010542  3.310068
O    0.207200  -1.920087  3.088648
H    -1.122310  0.687182  3.066318
H    -2.837141  -0.777207  3.202559
C    -2.681295  -1.827211  1.309107
C    -3.772533  -1.004061  0.576948
C    -5.206442  -1.109245  1.151295
C    -6.100102  -2.218532  0.583037
N    -6.781266  -1.825743  -0.725385
H    -3.105154  -2.770696  1.684025
H    -1.893765  -2.133414  0.609157
H    -3.761735  -1.313706  -0.479464
H    -3.484318  0.056363  0.566173
H    -5.721888  -0.142492  1.043446
H    -5.174098  -1.271995  2.239307
H    -6.921064  -2.453510  1.270543
H    -5.554917  -3.147584  0.372743
H    -7.381429  -2.590973  -1.071946
H    -6.113142  -1.604792  -1.477489
H    -7.389599  -1.001636  -0.602007
N    -1.474088  -2.913145  4.184916
C    -2.827442  -3.339783  4.522615
H    -0.714466  -3.417045  4.655863
H    -2.888654  -3.467681  5.611360
H    -3.042347  -4.313333  4.056050
H    -3.566548  -2.601162  4.200861
Hg    1.696446  -0.173053  3.407911
