35
Energy: -571611.0431163  eV PBE+vdW (tier 2 basis)
C    -0.080171  1.142254  -0.365035
C    0.027347  0.388432  0.909279
O    1.057331  -0.242297  1.297296
H    -0.268914  0.436379  -1.191094
H    0.878331  1.628998  -0.587830
H    -0.869930  1.901264  -0.355867
N    -1.033307  0.242865  1.759678
C    -2.429798  0.391260  1.429234
C    -2.956273  1.813222  2.015269
O    -3.403703  2.533072  1.133377
H    -0.788917  -0.224780  2.638155
H    -2.515702  0.545175  0.350055
C    -3.337281  -0.787006  1.852636
C    -4.801421  -0.607892  1.406216
C    -5.652179  -1.873960  1.649681
C    -7.089780  -1.669159  1.165091
N    -7.945928  -2.910661  1.372726
H    -3.278140  -0.957904  2.936972
H    -2.907316  -1.678753  1.367191
H    -4.827402  -0.352739  0.335443
H    -5.256573  0.242548  1.937091
H    -5.651810  -2.123507  2.722739
H    -5.200852  -2.727870  1.119600
H    -7.135474  -1.449072  0.091095
H    -7.598159  -0.859466  1.703481
H    -7.574901  -3.726320  0.862647
H    -8.908896  -2.755865  1.035391
H    -8.012857  -3.174401  2.367195
N    -2.888032  2.132988  3.314126
C    -2.596173  1.318564  4.492115
H    -3.311732  3.044247  3.510458
H    -1.842722  0.552501  4.293251
H    -3.506278  0.849775  4.890352
H    -2.191239  1.985523  5.263610
Hg    3.292658  0.305965  0.971163
