35
Energy: -571610.9188682  eV PBE+vdW (tier 2 basis)
C    -2.231344  -1.343090  -0.684532
C    -1.785870  -1.140502  0.723448
O    -0.927232  -1.788604  1.303289
H    -2.126789  -0.396901  -1.241488
H    -3.291243  -1.635489  -0.727107
H    -1.620836  -2.117415  -1.157745
N    -2.415190  -0.103747  1.467478
C    -2.101068  0.088268  2.821809
C    -2.961520  -0.942060  3.806325
O    -4.196528  -0.749458  3.747117
H    -3.236997  0.355568  1.067295
H    -1.086796  -0.345044  2.949637
C    -2.305390  1.517428  3.343428
C    -1.402727  2.596938  2.686604
C    0.016545  2.765812  3.267774
C    0.672309  4.015629  2.668470
N    2.040500  4.312420  3.265910
H    -2.167496  1.515573  4.434736
H    -3.352744  1.803754  3.172023
H    -1.945686  3.544818  2.817496
H    -1.349739  2.428323  1.600358
H    0.639748  1.880842  3.061975
H    -0.049492  2.875032  4.362456
H    0.829494  3.922332  1.586624
H    0.067965  4.913615  2.849436
H    1.992068  4.476508  4.282696
H    2.447178  5.162326  2.843878
H    2.712379  3.547138  3.107199
N    -2.300909  -1.818564  4.524157
C    -0.846736  -2.054983  4.638925
H    -2.889503  -2.430177  5.097921
H    -0.703925  -2.808453  5.419660
H    -0.330991  -1.141021  4.954568
H    -0.441279  -2.437824  3.696113
Hg    -5.968347  -1.878212  4.832444
