35
Energy: -571611.1235793  eV PBE+vdW (tier 2 basis)
C    0.319382  0.193574  0.124844
C    0.070242  0.042173  1.579558
O    1.006543  -0.175477  2.421909
H    0.861829  -0.686072  -0.246700
H    0.969201  1.076661  -0.012638
H    -0.579761  0.336104  -0.473172
N    -1.151114  0.101780  2.180500
C    -2.474364  -0.248628  1.678396
C    -2.488778  -1.766059  1.209336
O    -1.675135  -2.108151  0.359374
H    -1.067382  0.079873  3.201119
H    -3.120226  -0.164168  2.563891
C    -3.036125  0.666005  0.550016
C    -4.576748  0.644916  0.494574
C    -5.128733  1.627683  -0.561633
C    -6.659120  1.617255  -0.585239
N    -7.219163  2.591284  -1.612704
H    -2.626009  0.362414  -0.421690
H    -2.683564  1.686572  0.758045
H    -4.984330  0.911019  1.483079
H    -4.931076  -0.372551  0.266398
H    -4.739007  1.356945  -1.555792
H    -4.769409  2.645102  -0.338587
H    -7.089993  1.916678  0.378402
H    -7.062848  0.632907  -0.853316
H    -6.908957  2.365420  -2.569644
H    -6.935626  3.563370  -1.418692
H    -8.250912  2.572473  -1.616753
N    -3.408253  -2.572474  1.770191
C    -3.471453  -4.006227  1.499439
H    -3.967914  -2.213048  2.541300
H    -2.841782  -4.569564  2.207260
H    -3.113119  -4.198791  0.482089
H    -4.508715  -4.338272  1.628822
Hg    3.156225  0.523678  2.253059
