35
Energy: -571610.6089077  eV PBE+vdW (tier 2 basis)
C    -0.653680  0.831240  0.087841
C    -0.200758  0.093535  1.292705
O    1.065219  0.060951  1.506949
H    -0.493475  0.221692  -0.815060
H    0.000881  1.710170  -0.028449
H    -1.691447  1.164479  0.164775
N    -1.014953  -0.461389  2.226698
C    -2.123114  -1.430665  2.094930
C    -1.406464  -2.804499  2.210463
O    -0.308823  -2.983588  1.560061
H    -0.529687  -0.566971  3.121871
H    -2.756790  -1.273456  2.980090
C    -3.007916  -1.286266  0.832670
C    -4.273323  -2.169994  0.878145
C    -5.406095  -1.779760  -0.102157
C    -5.173907  -2.158227  -1.566238
N    -6.429815  -1.915965  -2.395049
H    -2.412542  -1.492333  -0.068118
H    -3.317564  -0.232009  0.795907
H    -4.719389  -2.094946  1.880120
H    -4.012335  -3.229845  0.732457
H    -5.609219  -0.700283  -0.018653
H    -6.314587  -2.291765  0.251562
H    -4.939120  -3.223669  -1.685320
H    -4.381171  -1.572089  -2.046853
H    -6.283901  -2.169858  -3.384423
H    -6.724222  -0.927703  -2.375122
H    -7.226444  -2.476016  -2.053996
N    -1.881183  -3.802746  2.939471
C    -3.117800  -3.930629  3.707215
H    -1.274641  -4.630441  2.941025
H    -3.829067  -4.574593  3.169637
H    -3.575726  -2.956080  3.893928
H    -2.879048  -4.415364  4.662760
Hg    1.738694  -2.021218  1.968569
