35
Energy: -571611.3286654  eV PBE+vdW (tier 2 basis)
C    0.156731  0.633739  0.117661
C    -0.076689  0.048568  1.474403
O    0.767724  -0.858282  1.813524
H    1.064354  1.256690  0.155042
H    -0.690999  1.226125  -0.244867
H    0.367299  -0.178551  -0.592907
N    -1.104738  0.512840  2.206559
C    -1.857580  -0.000364  3.399454
C    -1.180893  0.374550  4.747479
O    -0.244319  -0.320494  5.298874
H    -1.583019  1.284478  1.744752
H    -2.783111  0.590595  3.362102
C    -2.256531  -1.492248  3.283930
C    -3.458955  -1.935090  4.155637
C    -4.837587  -1.633158  3.532623
C    -6.060098  -2.062847  4.352809
N    -6.383903  -3.551476  4.262041
H    -1.401089  -2.141399  3.532114
H    -2.469081  -1.690398  2.223416
H    -3.393004  -1.490246  5.161637
H    -3.342851  -3.018260  4.309441
H    -4.901812  -2.062488  2.519342
H    -4.965798  -0.548954  3.390259
H    -6.960988  -1.552733  3.992057
H    -5.950883  -1.842054  5.422147
H    -7.234306  -3.768839  4.806022
H    -5.633953  -4.152480  4.631157
H    -6.569826  -3.844222  3.290793
N    -1.628701  1.432783  5.393341
C    -1.094883  1.950102  6.661598
H    -2.436680  1.921099  5.008347
H    -1.181220  3.041863  6.649474
H    -0.050345  1.647095  6.773659
H    -1.679748  1.552561  7.502510
Hg    1.065479  -1.319508  3.891569
