35
Energy: -571610.6797178  eV PBE+vdW (tier 2 basis)
C    0.435889  -0.343208  0.686982
C    -0.219669  -0.445628  2.013345
O    0.412181  -0.694027  3.093800
H    -0.215312  0.046194  -0.099130
H    0.747019  -1.359748  0.388618
H    1.346095  0.264511  0.763271
N    -1.553174  -0.299632  2.228737
C    -2.626055  0.415800  1.513196
C    -2.869311  -0.283655  0.117727
O    -2.433887  0.196651  -0.918924
H    -1.809184  -0.588325  3.179321
H    -3.512054  0.205655  2.128922
C    -2.564220  1.962515  1.432929
C    -1.457322  2.679347  0.649854
C    -1.543032  4.220796  0.803500
C    -2.617001  4.970364  0.006024
N    -2.136395  5.421964  -1.371103
H    -2.548426  2.302211  2.481512
H    -3.555844  2.252479  1.050657
H    -1.477376  2.383774  -0.410570
H    -0.471036  2.384232  1.035280
H    -0.556102  4.656431  0.582662
H    -1.717556  4.463446  1.861994
H    -2.910932  5.892963  0.519895
H    -3.526128  4.382444  -0.170277
H    -1.848363  4.637135  -1.971759
H    -1.332576  6.063799  -1.294720
H    -2.879843  5.932662  -1.872555
N    -3.607997  -1.424291  0.170296
C    -4.098340  -2.093462  -1.021621
H    -4.030914  -1.689630  1.059693
H    -4.252151  -3.154811  -0.784779
H    -3.383965  -1.948780  -1.840936
H    -5.074434  -1.684254  -1.340304
Hg    2.259509  -2.033155  3.428035
