35
Energy: -571611.4382590  eV PBE+vdW (tier 2 basis)
C    0.695732  1.757428  1.159212
C    -0.108460  0.997516  2.163161
O    -0.087386  1.479919  3.351793
H    0.452227  2.827298  1.239858
H    0.519815  1.420236  0.131392
H    1.762458  1.661984  1.413835
N    -0.772723  -0.104956  1.767627
C    -1.902253  -0.830808  2.404287
C    -1.393046  -2.000139  3.292726
O    -1.163522  -1.827486  4.552118
H    -0.605853  -0.353506  0.792588
H    -2.403680  -0.131834  3.094023
C    -2.904133  -1.225277  1.290268
C    -4.273488  -1.804192  1.725842
C    -5.333850  -0.740029  2.074573
C    -6.722136  -1.269106  2.454404
N    -7.580243  -1.687231  1.263350
H    -2.411172  -1.934748  0.604336
H    -3.068884  -0.320062  0.686184
H    -4.155347  -2.502585  2.569462
H    -4.620630  -2.420089  0.882545
H    -5.428248  -0.009864  1.254106
H    -5.010573  -0.151260  2.946531
H    -7.302160  -0.490828  2.963975
H    -6.675184  -2.143795  3.115416
H    -8.511340  -1.999725  1.582258
H    -7.174873  -2.465389  0.724690
H    -7.737136  -0.904317  0.610633
N    -1.204593  -3.196131  2.780623
C    -0.670254  -4.361341  3.503409
H    -1.491402  -3.348117  1.814482
H    -1.496246  -4.958316  3.913241
H    -0.028761  -4.024183  4.322289
H    -0.100933  -4.971726  2.794886
Hg    -0.580207  0.212033  5.032426
