35
Energy: -571610.8816737  eV PBE+vdW (tier 2 basis)
C    0.026251  -0.998638  4.502013
C    0.201988  -0.908845  3.030918
O    1.304610  -0.674565  2.446404
H    -0.921929  -1.454360  4.804136
H    0.105398  0.008589  4.942477
H    0.848512  -1.590266  4.929638
N    -0.846183  -1.003536  2.160439
C    -2.242580  -0.773152  2.454134
C    -3.001477  -2.201276  2.561515
O    -3.555956  -2.347916  3.642765
H    -0.556357  -1.019369  1.177406
H    -2.322499  -0.393484  3.476412
C    -2.955468  0.194793  1.483024
C    -4.432888  0.465903  1.836829
C    -5.048130  1.511621  0.882703
C    -6.563111  1.711382  0.963695
N    -7.024177  2.576633  2.134109
H    -2.878743  -0.170115  0.448423
H    -2.384773  1.137084  1.526743
H    -4.498840  0.796710  2.885758
H    -5.012401  -0.468039  1.768089
H    -4.865385  1.198537  -0.156807
H    -4.534703  2.481892  0.981456
H    -7.110607  0.764636  1.053525
H    -6.925702  2.228396  0.067358
H    -8.047933  2.705313  2.106435
H    -6.603784  3.517327  2.099660
H    -6.799172  2.165813  3.050439
N    -3.002400  -3.102338  1.569165
C    -2.606571  -2.992710  0.166485
H    -3.572160  -3.922917  1.794590
H    -2.297411  -3.990549  -0.170274
H    -1.758123  -2.319445  0.023615
H    -3.447710  -2.667271  -0.460933
Hg    3.435287  -1.323902  3.085940
