35
Energy: -571610.9689898  eV PBE+vdW (tier 2 basis)
C    -1.139528  0.174672  -1.797172
C    -1.092710  0.899313  -0.503254
O    -0.958744  2.175103  -0.535455
H    -1.033641  -0.908160  -1.675889
H    -0.315360  0.548102  -2.427803
H    -2.061877  0.427008  -2.343183
N    -1.142961  0.273990  0.698453
C    -2.133173  -0.726810  1.114747
C    -3.362397  0.076847  1.620549
O    -3.236936  1.277170  2.079878
H    -0.822637  0.857478  1.474838
H    -2.425631  -1.307265  0.228257
C    -1.568853  -1.677413  2.203083
C    -0.438709  -2.579206  1.667287
C    -0.008471  -3.750980  2.581545
C    0.864397  -3.359090  3.775490
N    1.404836  -4.594720  4.485218
H    -2.398529  -2.299510  2.569550
H    -1.241568  -1.071494  3.063248
H    0.441347  -1.972019  1.406155
H    -0.776812  -3.037305  0.725569
H    0.558170  -4.450187  1.946990
H    -0.897831  -4.300381  2.929083
H    1.746562  -2.783226  3.467912
H    0.324271  -2.787724  4.540347
H    1.997215  -4.338562  5.290211
H    1.982879  -5.173566  3.856482
H    0.649456  -5.198137  4.844039
N    -4.570256  -0.461094  1.672518
C    -5.000193  -1.835725  1.428121
H    -5.296498  0.180027  2.011616
H    -4.244147  -2.401364  0.878021
H    -5.929239  -1.803153  0.842718
H    -5.221299  -2.334275  2.383577
Hg    -2.279474  3.061248  1.036269
