35
Energy: -571610.7891415  eV PBE+vdW (tier 2 basis)
C    -0.320597  -0.148457  -0.527311
C    -0.284385  -0.361121  0.950054
O    0.547868  -0.997765  1.569732
H    -1.188994  -0.692997  -0.935427
H    0.590936  -0.546396  -0.981915
H    -0.440791  0.911388  -0.792019
N    -1.323937  0.268219  1.708849
C    -1.436010  0.066697  3.100023
C    -2.936283  -0.394453  3.441109
O    -2.931202  -1.606750  3.776157
H    -1.873695  0.989225  1.237711
H    -0.794179  -0.796425  3.339039
C    -1.054405  1.243727  4.073795
C    0.459321  1.413139  4.326900
C    1.289600  2.096536  3.224004
C    2.540389  2.841049  3.705550
N    3.674782  1.938148  4.182994
H    -1.531314  1.025202  5.038859
H    -1.496937  2.180752  3.698963
H    0.890580  0.440079  4.610243
H    0.498586  2.032986  5.240271
H    0.687199  2.881313  2.739920
H    1.565542  1.389472  2.427620
H    2.321650  3.516329  4.542626
H    2.967574  3.437995  2.890970
H    3.990109  1.290296  3.445788
H    3.419043  1.375350  5.006426
H    4.494201  2.505173  4.453571
N    -3.939245  0.451580  3.355901
C    -5.355338  0.162803  3.642977
H    -3.716383  1.416325  3.119867
H    -5.921400  1.087427  3.490729
H    -5.486388  -0.144728  4.689101
H    -5.743988  -0.592973  2.949370
Hg    -4.575849  -3.144311  4.447417
