35
Energy: -571610.9938552  eV PBE+vdW (tier 2 basis)
C    0.114706  0.029341  -0.085371
C    0.111773  -0.186505  1.383615
O    1.097111  -0.666726  2.026775
H    0.268749  -0.934098  -0.594193
H    0.970558  0.670800  -0.348094
H    -0.793738  0.495750  -0.475314
N    -0.972621  0.048805  2.178280
C    -2.384011  0.091813  1.820346
C    -2.930192  1.404600  2.555260
O    -3.529541  1.294478  3.609489
H    -0.774306  -0.104506  3.174303
H    -2.473118  0.229857  0.734877
C    -3.159924  -1.163267  2.274963
C    -4.624771  -1.208531  1.797310
C    -5.303733  -2.574084  2.062130
C    -5.896367  -2.814299  3.454790
N    -7.348264  -2.354354  3.565245
H    -3.095404  -1.234182  3.371202
H    -2.620129  -2.027318  1.857232
H    -4.654048  -1.033880  0.711667
H    -5.200029  -0.388892  2.254852
H    -4.579595  -3.382331  1.884956
H    -6.083449  -2.740834  1.302630
H    -5.354022  -2.298265  4.256734
H    -5.918914  -3.883583  3.694781
H    -7.463204  -1.348851  3.376971
H    -7.951793  -2.862524  2.900883
H    -7.723609  -2.532907  4.509543
N    -2.655312  2.583260  1.941962
C    -3.204853  3.847010  2.408859
H    -2.255573  2.563139  1.005283
H    -2.549018  4.657124  2.065161
H    -3.287252  3.820944  3.502561
H    -4.210227  4.031503  1.991236
Hg    3.358041  -0.406269  1.630439
