35
Energy: -571610.8399128  eV PBE+vdW (tier 2 basis)
C    -3.505406  -1.724166  0.158649
C    -2.553378  -1.555427  1.293480
O    -1.737198  -2.383480  1.671227
H    -4.548531  -1.681499  0.505772
H    -3.324507  -2.682299  -0.336834
H    -3.361824  -0.901964  -0.562407
N    -2.592641  -0.326946  2.008137
C    -1.779458  -0.143314  3.139071
C    -2.458038  -0.790748  4.506086
O    -3.542131  -0.245182  4.815918
H    -3.357753  0.325136  1.819925
H    -0.938092  -0.856080  3.004355
C    -1.394268  1.313580  3.437034
C    -0.467469  1.970272  2.376923
C    1.014841  1.563152  2.449512
C    1.933410  2.197273  1.398876
N    2.277784  3.659850  1.666301
H    -2.312675  1.912702  3.515120
H    -0.919738  1.354175  4.428788
H    -0.575766  3.053969  2.539566
H    -0.862709  1.774610  1.368167
H    1.123024  0.479466  2.287280
H    1.419322  1.750431  3.457975
H    1.499100  2.169327  0.391518
H    2.897509  1.676305  1.367249
H    1.453276  4.276426  1.656793
H    2.923626  4.015384  0.943542
H    2.749949  3.783112  2.574552
N    -1.827235  -1.766027  5.115352
C    -0.538131  -2.414486  4.795401
H    -2.305106  -2.132788  5.944028
H    -0.299472  -3.084340  5.627273
H    0.262524  -1.669705  4.723998
H    -0.618570  -3.002821  3.874843
Hg    -5.027859  -0.722515  6.588134
