35
Energy: -571611.1617068  eV PBE+vdW (tier 2 basis)
C    0.305755  -1.599059  0.963434
C    -0.211344  -0.342196  1.577176
O    0.450748  0.749395  1.619841
H    0.449403  -1.436347  -0.118283
H    -0.371315  -2.450652  1.089574
H    1.280481  -1.850907  1.404711
N    -1.428873  -0.353750  2.153807
C    -2.018722  0.747483  2.896623
C    -2.045000  0.331986  4.415272
O    -2.480919  -0.784973  4.682625
H    -1.854891  -1.272881  2.293133
H    -1.362378  1.619073  2.764660
C    -3.471770  1.094339  2.455376
C    -4.464825  -0.071605  2.370760
C    -5.892844  0.294787  1.898509
C    -6.771562  0.961820  2.958693
N    -8.203247  1.115777  2.461289
H    -3.826055  1.882832  3.136399
H    -3.367578  1.571038  1.465821
H    -4.519854  -0.596789  3.341272
H    -4.092369  -0.819044  1.654272
H    -6.372676  -0.645001  1.585030
H    -5.835551  0.930998  1.000911
H    -6.836677  0.360963  3.874650
H    -6.439116  1.972046  3.226735
H    -8.626947  0.203915  2.230705
H    -8.804147  1.556963  3.174382
H    -8.258560  1.700003  1.613426
N    -1.617440  1.230085  5.325323
C    -1.489810  0.915350  6.741752
H    -1.206025  2.101491  4.993679
H    -1.633909  1.839081  7.316833
H    -0.483905  0.526534  6.975843
H    -2.224379  0.146086  7.008382
Hg    2.187180  1.222199  0.175622
