35
Energy: -571611.5226945  eV PBE+vdW (tier 2 basis)
C    -1.998273  -3.590160  1.340295
C    -1.076679  -2.431125  1.548836
O    -0.225166  -2.239544  0.611913
H    -2.408837  -3.546851  0.321310
H    -2.817058  -3.619038  2.067974
H    -1.411854  -4.520072  1.398999
N    -1.199515  -1.697531  2.671067
C    -0.639108  -0.368686  3.005826
C    0.746753  -0.484933  3.704395
O    1.841637  -0.452401  3.018983
H    -1.889531  -2.055817  3.329621
H    -0.439815  0.158027  2.057468
C    -1.658081  0.482801  3.799291
C    -2.871496  1.006718  2.996690
C    -3.662165  2.040137  3.832202
C    -4.707646  2.888875  3.099513
N    -6.087687  2.246330  2.985169
H    -1.104624  1.351954  4.186233
H    -2.009581  -0.081010  4.681237
H    -3.514206  0.169898  2.681158
H    -2.508738  1.492777  2.077199
H    -2.948388  2.773837  4.236824
H    -4.113177  1.567039  4.719794
H    -4.405201  3.145521  2.076507
H    -4.879431  3.825283  3.643228
H    -6.747194  2.890791  2.520495
H    -6.484951  2.033028  3.912566
H    -6.085382  1.375270  2.437657
N    0.836882  -0.581166  5.012184
C    2.091924  -0.705048  5.771853
H    -0.018321  -0.483317  5.557776
H    1.883281  -1.266789  6.687712
H    2.466849  0.293718  6.034743
H    2.840346  -1.223193  5.165494
Hg    1.617433  -1.135319  0.971784
