35
Energy: -571611.1543752  eV PBE+vdW (tier 2 basis)
C    0.833023  1.562499  0.009673
C    0.416693  1.679083  1.440478
O    0.865662  2.492135  2.243225
H    1.737574  2.155740  -0.153499
H    0.025526  1.975187  -0.620930
H    0.994870  0.523067  -0.305299
N    -0.577166  0.769159  1.870312
C    -0.973361  0.543262  3.215266
C    -1.861836  1.793499  3.778670
O    -2.999882  1.370532  4.120825
H    -0.961419  0.140392  1.162350
H    -1.674431  -0.300155  3.211340
C    0.145576  0.240333  4.275293
C    0.790120  -1.128820  3.981143
C    1.701023  -1.687956  5.101895
C    3.078224  -1.029133  5.206508
N    3.977029  -1.794797  6.169531
H    -0.340923  0.225922  5.261410
H    0.871190  1.063904  4.269912
H    1.347237  -1.084384  3.032395
H    -0.002810  -1.876706  3.832904
H    1.833915  -2.758376  4.876932
H    1.180520  -1.639199  6.071388
H    3.040323  -0.000594  5.585307
H    3.606751  -1.026249  4.244758
H    4.905986  -1.352471  6.248682
H    4.130586  -2.766454  5.857900
H    3.579766  -1.840385  7.120239
N    -1.335721  2.989032  3.817463
C    -1.993849  4.218597  4.276832
H    -0.383738  3.047704  3.407844
H    -1.268188  5.033852  4.180258
H    -2.275567  4.144507  5.335800
H    -2.859477  4.466265  3.646905
Hg    -4.866829  2.440240  4.938799
