35
Energy: -571610.6077385  eV PBE+vdW (tier 2 basis)
C    0.463619  1.248798  0.995806
C    0.126510  0.511403  2.238258
O    0.964246  0.207619  3.143266
H    1.533818  1.477774  0.971214
H    -0.122230  2.176774  0.926471
H    0.235160  0.641106  0.106280
N    -1.130145  0.022582  2.515993
C    -2.206872  -0.372891  1.631019
C    -1.710281  -1.644000  0.756732
O    -1.087182  -1.372569  -0.263671
H    -1.167524  -0.381739  3.456501
H    -2.976055  -0.771824  2.307252
C    -2.771552  0.736388  0.720835
C    -4.081052  0.411110  -0.034534
C    -5.362376  0.318416  0.824275
C    -6.644557  0.835679  0.166342
N    -7.157138  -0.015784  -0.992494
H    -2.022513  1.006993  -0.030568
H    -2.928408  1.619500  1.359011
H    -3.945326  -0.491053  -0.651066
H    -4.188937  1.240734  -0.751364
H    -5.256917  0.953349  1.718240
H    -5.527277  -0.701391  1.206926
H    -6.512545  1.845629  -0.242426
H    -7.466946  0.866405  0.891083
H    -7.379814  -0.977354  -0.696455
H    -8.026573  0.386916  -1.376859
H    -6.486061  -0.073279  -1.771412
N    -1.992061  -2.868327  1.206160
C    -2.702257  -3.267343  2.425009
H    -1.647728  -3.618203  0.602716
H    -2.763988  -4.360735  2.425891
H    -3.729625  -2.880479  2.446980
H    -2.159779  -2.966616  3.330632
Hg    2.746134  1.470251  3.867803
