35
Energy: -571610.8997762  eV PBE+vdW (tier 2 basis)
C    0.681206  1.248651  1.090727
C    0.546934  -0.227088  1.173454
O    1.422551  -1.058767  0.787263
H    1.706402  1.537003  1.362107
H    -0.016759  1.788713  1.738522
H    0.533501  1.571949  0.047134
N    -0.596688  -0.834781  1.617516
C    -1.917820  -0.269621  1.648785
C    -2.378303  0.028918  3.191049
O    -2.848079  1.155795  3.287697
H    -0.506236  -1.851692  1.710745
H    -1.881133  0.735091  1.219365
C    -3.000217  -1.117431  0.932683
C    -4.412348  -0.498696  0.932072
C    -5.388372  -1.357641  0.098372
C    -6.876567  -1.027184  0.227816
N    -7.323633  0.197698  -0.566258
H    -3.035922  -2.129718  1.361982
H    -2.641796  -1.229089  -0.104517
H    -4.358449  0.531456  0.545275
H    -4.790246  -0.427060  1.963212
H    -5.310228  -2.405984  0.425609
H    -5.094898  -1.367716  -0.963842
H    -7.179009  -0.841505  1.266151
H    -7.483024  -1.854780  -0.158931
H    -8.341454  0.339175  -0.468981
H    -7.132125  0.088540  -1.573325
H    -6.869961  1.066686  -0.252908
N    -2.284537  -0.880625  4.155554
C    -1.730965  -2.237002  4.134673
H    -2.615926  -0.540721  5.061083
H    -2.127660  -2.767325  5.007372
H    -0.636429  -2.228621  4.218272
H    -2.055898  -2.797242  3.250364
Hg    3.740566  -0.854923  0.859033
