35
Energy: -571610.8612102  eV PBE+vdW (tier 2 basis)
C    -1.147398  -0.297929  0.607881
C    -1.234509  -0.288967  2.088401
O    -0.375124  -0.850680  2.846013
H    -0.124693  -0.060387  0.289619
H    -1.860392  0.368355  0.117129
H    -1.363849  -1.325883  0.267668
N    -2.231298  0.298160  2.802176
C    -3.161831  1.407477  2.527626
C    -4.152137  0.969915  1.374023
O    -3.991183  1.348175  0.223124
H    -2.191087  0.023562  3.789708
H    -3.757760  1.464123  3.449273
C    -2.590535  2.835640  2.334696
C    -1.638371  3.136937  1.172860
C    -1.145445  4.606774  1.128045
C    -2.185646  5.611712  0.627946
N    -1.580469  7.002628  0.486344
H    -2.102355  3.084590  3.291083
H    -3.484748  3.476386  2.284319
H    -2.105355  2.880038  0.209897
H    -0.735026  2.516664  1.262472
H    -0.275486  4.633206  0.454107
H    -0.781316  4.905596  2.124121
H    -3.038207  5.728690  1.307842
H    -2.568097  5.347691  -0.366164
H    -2.277502  7.681942  0.144026
H    -0.794970  7.012369  -0.182075
H    -1.221370  7.362161  1.383697
N    -5.181913  0.176421  1.772070
C    -6.290466  -0.158259  0.894985
H    -5.309428  0.006454  2.769496
H    -7.083729  0.610030  0.936724
H    -6.731634  -1.102964  1.239531
H    -5.930445  -0.218895  -0.139230
Hg    0.829198  -2.788117  2.485026
