35
Energy: -571610.9293555  eV PBE+vdW (tier 2 basis)
C    -1.580487  0.866663  -0.359165
C    -1.029598  0.383778  0.931825
O    0.044719  -0.315968  0.900106
H    -1.571547  0.025632  -1.071880
H    -0.914547  1.627110  -0.796205
H    -2.602666  1.246181  -0.263517
N    -1.628591  0.617433  2.125073
C    -2.095425  1.918364  2.621520
C    -0.838941  2.631370  3.194853
O    0.163873  1.957556  3.649871
H    -1.297645  0.005720  2.875187
H    -2.486441  2.494198  1.771244
C    -3.174909  1.749083  3.719733
C    -4.506677  1.132141  3.243632
C    -5.444415  0.873465  4.443115
C    -6.729421  0.086280  4.171620
N    -7.879229  0.924846  3.618223
H    -3.362128  2.734808  4.169799
H    -2.744864  1.134519  4.528090
H    -4.312216  0.179992  2.725902
H    -4.975190  1.803753  2.505709
H    -5.683962  1.815283  4.963579
H    -4.901882  0.271083  5.187830
H    -7.115742  -0.341192  5.104457
H    -6.581954  -0.735205  3.459297
H    -8.722818  0.343447  3.491251
H    -7.666775  1.347627  2.704482
H    -8.137247  1.686727  4.263349
N    -0.781746  3.947216  3.323240
C    -1.818942  4.956185  3.124083
H    0.106666  4.290073  3.706571
H    -2.658381  4.559229  2.548191
H    -1.373282  5.803240  2.584828
H    -2.172995  5.324431  4.098507
Hg    1.359262  0.338167  2.589944
