35
Energy: -571611.0757685  eV PBE+vdW (tier 2 basis)
C    0.160781  -1.383733  1.415329
C    -0.137367  -0.317388  2.403950
O    0.326695  -0.270992  3.582519
H    -0.092413  -1.110417  0.386379
H    -0.388413  -2.298822  1.692226
H    1.229728  -1.635017  1.458153
N    -1.022076  0.693829  2.141333
C    -2.113777  0.670340  1.189148
C    -1.756823  1.568324  -0.104377
O    -2.450247  1.330029  -1.083037
H    -1.088018  1.376732  2.905667
H    -2.198832  -0.338656  0.768090
C    -3.458076  1.118566  1.813957
C    -4.713275  0.781821  0.983303
C    -6.000066  1.146944  1.755213
C    -7.315041  0.633214  1.167902
N    -7.821629  1.429187  -0.032758
H    -3.419463  2.196036  2.041203
H    -3.531538  0.596975  2.782270
H    -4.718072  -0.296778  0.760722
H    -4.671794  1.302940  0.015519
H    -6.061719  2.234347  1.924606
H    -5.955208  0.702712  2.761620
H    -8.116450  0.700003  1.913458
H    -7.248125  -0.409756  0.833132
H    -7.175441  1.401157  -0.833329
H    -8.724060  1.051754  -0.361883
H    -7.980695  2.418734  0.208471
N    -0.773280  2.469409  -0.034349
C    -0.467307  3.398384  -1.128795
H    -0.331455  2.631834  0.867115
H    -1.091566  4.301516  -1.067866
H    -0.649194  2.899009  -2.086897
H    0.584478  3.693271  -1.039508
Hg    2.369021  -1.050803  4.386058
