35
Energy: -571610.6915263  eV PBE+vdW (tier 2 basis)
C    1.032623  0.849108  0.784781
C    0.211582  -0.192758  1.457290
O    0.679304  -1.352240  1.767564
H    1.609894  0.395376  -0.031370
H    1.750197  1.257362  1.517530
H    0.455423  1.687641  0.386364
N    -1.086399  -0.039765  1.757067
C    -2.005113  1.009081  1.339680
C    -3.100183  1.018012  2.448083
O    -3.404298  -0.051187  2.975357
H    -1.526129  -0.791557  2.305933
H    -1.452199  1.955066  1.308920
C    -2.692050  0.817703  -0.059155
C    -3.855484  -0.174861  -0.241388
C    -3.525311  -1.678646  -0.170639
C    -4.464745  -2.594944  -0.960409
N    -5.880191  -2.690378  -0.396524
H    -1.879457  0.590533  -0.768147
H    -3.059109  1.814426  -0.342569
H    -4.248926  0.055118  -1.245573
H    -4.670272  0.077921  0.455940
H    -3.453885  -2.026275  0.871879
H    -2.537234  -1.862512  -0.621248
H    -4.086560  -3.623995  -0.971766
H    -4.580290  -2.262801  -2.000130
H    -6.446957  -3.346295  -0.957087
H    -6.374012  -1.787043  -0.408337
H    -5.887752  -3.040330  0.572846
N    -3.702339  2.187308  2.787433
C    -3.405423  3.546190  2.380011
H    -4.334504  2.081957  3.588418
H    -4.345807  4.117420  2.378499
H    -2.951602  3.586355  1.385704
H    -2.739730  4.041165  3.110228
Hg    2.775251  -1.778172  2.453533
