35
Energy: -571611.0897844  eV PBE+vdW (tier 2 basis)
C    0.085336  -2.298791  0.072523
C    -0.598826  -2.211026  1.398579
O    -1.069084  -3.149009  2.021003
H    1.161064  -2.099680  0.207232
H    -0.308537  -1.556955  -0.637614
H    -0.035614  -3.307281  -0.334850
N    -0.707739  -0.917526  1.991763
C    -1.136575  -0.740382  3.325864
C    -2.781225  -0.638020  3.412465
O    -3.200030  -0.555894  4.590617
H    -0.392361  -0.107906  1.453068
H    -0.982492  -1.691787  3.861852
C    -0.496590  0.459335  4.044839
C    1.010157  0.251260  4.318770
C    1.617862  1.411754  5.136875
C    3.103310  1.166624  5.416432
N    3.727584  2.295684  6.224867
H    -1.038292  0.589379  4.992924
H    -0.663054  1.381927  3.464595
H    1.558534  0.150474  3.369823
H    1.150906  -0.694688  4.864550
H    1.074568  1.515615  6.089695
H    1.492317  2.358596  4.587847
H    3.692446  1.097434  4.493365
H    3.268325  0.252034  5.999820
H    3.674415  3.200489  5.733121
H    4.725962  2.109554  6.408614
H    3.269335  2.415916  7.140698
N    -3.462771  -0.688372  2.290017
C    -4.922447  -0.695575  2.153854
H    -2.910627  -0.780549  1.438961
H    -5.157929  -0.675713  1.083269
H    -5.363565  0.199489  2.610503
H    -5.354159  -1.621356  2.563366
Hg    -5.320769  -0.843708  5.513410
