35
Energy: -571611.1441420  eV PBE+vdW (tier 2 basis)
C    -0.080718  -1.745438  1.618739
C    0.350322  -0.362343  1.943295
O    1.435944  -0.087794  2.548283
H    -0.176667  -2.325122  2.548751
H    0.705308  -2.229322  1.018065
H    -1.019019  -1.806502  1.061768
N    -0.400313  0.743777  1.684088
C    -1.831934  0.862847  1.460520
C    -1.937289  1.750085  0.125308
O    -1.933932  2.963454  0.226681
H    0.085415  1.619779  1.911970
H    -2.248599  -0.132837  1.263089
C    -2.583223  1.552658  2.619607
C    -4.105481  1.602578  2.391095
C    -4.940622  2.139995  3.576790
C    -4.886622  3.658602  3.753414
N    -5.895592  4.123552  4.796429
H    -2.161515  2.560156  2.750071
H    -2.360509  0.974416  3.529821
H    -4.469212  0.583456  2.192426
H    -4.337307  2.194020  1.492382
H    -4.637685  1.638301  4.509441
H    -5.983955  1.842574  3.388445
H    -5.146493  4.189547  2.828826
H    -3.911113  4.021887  4.098846
H    -5.867751  5.147586  4.917082
H    -5.718587  3.702795  5.720876
H    -6.860604  3.875661  4.529367
N    -2.006252  1.062153  -1.038431
C    -2.277945  1.720452  -2.309524
H    -2.104939  0.049288  -1.002802
H    -3.361382  1.839824  -2.482027
H    -1.878836  1.090670  -3.114817
H    -1.818677  2.716790  -2.301500
Hg    3.474455  -1.151998  2.404894
