35
Energy: -571611.0102509  eV PBE+vdW (tier 2 basis)
C    -0.470143  0.603900  0.027475
C    -0.217375  0.622733  1.497381
O    0.825708  0.968182  2.037509
H    -1.061663  1.497448  -0.239522
H    -1.041662  -0.273312  -0.302989
H    0.484794  0.661599  -0.504065
N    -1.309687  0.211168  2.316450
C    -1.272894  -0.022462  3.708569
C    -1.131302  1.407382  4.547469
O    -2.117315  1.529618  5.317733
H    -2.206245  0.070310  1.846060
H    -2.254443  -0.401619  4.014018
C    -0.153886  -0.951320  4.300198
C    -0.401420  -2.458541  4.066271
C    -0.040443  -3.001305  2.675733
C    -0.266284  -4.505370  2.471554
N    0.778858  -5.393773  3.140189
H    -0.148391  -0.774617  5.383831
H    0.823882  -0.635103  3.915319
H    -1.439927  -2.723023  4.322790
H    0.217661  -2.944836  4.840986
H    0.995726  -2.736114  2.409437
H    -0.670508  -2.525892  1.906694
H    -0.219635  -4.759337  1.406195
H    -1.237733  -4.838310  2.858509
H    0.591380  -6.387580  2.931329
H    0.788639  -5.304289  4.165939
H    1.731050  -5.192349  2.799310
N    -0.081947  2.150860  4.333350
C    0.228733  3.431404  4.987210
H    0.544650  1.802681  3.580492
H    1.189676  3.774025  4.587860
H    0.342475  3.302229  6.071704
H    -0.526699  4.192261  4.749774
Hg    -2.712593  3.178293  6.820589
