35
Energy: -571611.0415412  eV PBE+vdW (tier 2 basis)
C    0.014992  -0.252305  0.366845
C    -0.143139  0.571397  1.592456
O    0.780519  0.690352  2.479408
H    0.812263  0.188596  -0.253971
H    -0.887369  -0.316493  -0.246388
H    0.337315  -1.265600  0.643870
N    -1.269678  1.226516  1.921106
C    -2.632055  1.064702  1.433484
C    -3.220190  2.529357  1.517854
O    -3.016551  3.151284  2.555418
H    -1.199076  1.822613  2.757828
H    -2.611522  0.689356  0.405188
C    -3.472341  0.134968  2.362611
C    -4.963022  0.009370  2.001492
C    -5.705877  -0.914682  2.992987
C    -7.197077  -1.010869  2.664380
N    -7.937817  -1.908754  3.646032
H    -3.366042  0.515918  3.389704
H    -2.990703  -0.854575  2.327161
H    -5.073584  -0.387124  0.980008
H    -5.439564  1.001989  2.014448
H    -5.577150  -0.526637  4.016012
H    -5.254437  -1.919330  2.969161
H    -7.377495  -1.438940  1.670348
H    -7.695774  -0.034879  2.716507
H    -7.867439  -1.562744  4.614798
H    -7.575093  -2.873791  3.637297
H    -8.942253  -1.960917  3.415562
N    -3.910192  3.046652  0.474445
C    -4.116143  2.511541  -0.861064
H    -4.146070  4.034260  0.613276
H    -5.010195  2.988256  -1.282815
H    -4.264332  1.427104  -0.841122
H    -3.273081  2.757652  -1.528787
Hg    3.001118  0.753340  2.155172
