35
Energy: -571610.7946151  eV PBE+vdW (tier 2 basis)
C    -0.473030  -0.120023  -1.341559
C    0.031127  -0.032915  0.053982
O    1.183208  -0.481861  0.407626
H    -1.521809  0.165051  -1.458182
H    -0.335070  -1.141728  -1.720148
H    0.129001  0.553099  -1.975147
N    -0.677121  0.473207  1.076438
C    -2.090722  0.804733  1.152035
C    -2.156112  1.937772  2.232604
O    -1.403904  1.855692  3.200397
H    -0.176778  0.560619  1.971986
H    -2.425055  1.165276  0.173364
C    -3.033437  -0.362824  1.598463
C    -2.686466  -1.085353  2.908450
C    -3.614663  -2.297866  3.185383
C    -4.925256  -2.038732  3.936835
N    -4.775863  -2.166381  5.451287
H    -3.023696  -1.081709  0.762311
H    -4.055134  0.047412  1.624532
H    -2.693635  -0.382008  3.757926
H    -1.656162  -1.464457  2.854184
H    -3.040708  -3.072735  3.716795
H    -3.889016  -2.771868  2.232106
H    -5.688693  -2.776613  3.664345
H    -5.342917  -1.040418  3.756263
H    -4.084769  -1.511195  5.842912
H    -4.481371  -3.118350  5.717859
H    -5.672527  -1.986327  5.929347
N    -3.043702  2.952016  2.079952
C    -3.884315  3.291235  0.944398
H    -2.924197  3.682679  2.789230
H    -4.241676  2.398175  0.422392
H    -3.351929  3.947754  0.234508
H    -4.746216  3.860527  1.318739
Hg    3.068717  -0.470452  -0.817739
