35
Energy: -571610.8098884  eV PBE+vdW (tier 2 basis)
C    0.381490  0.248610  0.060933
C    0.245491  0.187849  1.548600
O    1.192020  0.124509  2.334372
H    1.413192  0.023263  -0.223392
H    0.150128  1.277730  -0.266320
H    -0.315924  -0.421860  -0.458757
N    -1.066611  0.212556  2.047610
C    -1.486836  0.046596  3.398453
C    -0.996577  1.238730  4.364712
O    -2.019158  1.736524  4.924817
H    -1.810974  0.290644  1.351365
H    -2.576768  0.175544  3.389183
C    -1.284244  -1.347475  4.139542
C    0.049501  -2.108977  4.109585
C    0.152718  -3.152998  2.980934
C    1.433309  -3.995185  2.948865
N    1.433460  -5.161805  3.933310
H    -2.081864  -1.970067  3.704366
H    -1.591305  -1.150153  5.175312
H    0.136167  -2.597660  5.094722
H    0.912543  -1.425727  4.059626
H    0.112945  -2.655201  2.000604
H    -0.727401  -3.816741  2.994046
H    2.332718  -3.407589  3.172193
H    1.565502  -4.456063  1.963043
H    2.305825  -5.707436  3.847850
H    0.655515  -5.814278  3.751796
H    1.364728  -4.862428  4.915903
N    0.268335  1.546523  4.481864
C    0.834319  2.615800  5.313299
H    0.891122  1.016775  3.844746
H    0.642772  2.430994  6.378794
H    0.458589  3.600991  5.003339
H    1.919371  2.612467  5.162649
Hg    -2.313154  3.441388  6.427924
