35
Energy: -571610.6690092  eV PBE+vdW (tier 2 basis)
C    0.231021  0.306600  0.006830
C    0.384031  0.138378  1.472788
O    1.477513  -0.126663  2.059844
H    1.197714  0.184130  -0.491573
H    -0.191019  1.294695  -0.225198
H    -0.450999  -0.456736  -0.398476
N    -0.672969  0.196110  2.350626
C    -2.077855  -0.089059  2.158344
C    -2.251540  -1.663210  1.828009
O    -2.055646  -1.980511  0.659017
H    -0.349818  0.145002  3.321738
H    -2.515875  0.043539  3.158649
C    -2.844081  0.774661  1.134202
C    -4.371012  0.696241  1.352369
C    -5.156645  1.768191  0.556021
C    -5.568420  1.428898  -0.882582
N    -6.972489  0.835158  -0.969945
H    -2.580758  0.484696  0.109871
H    -2.511317  1.812518  1.286433
H    -4.586258  0.860196  2.418629
H    -4.737877  -0.316641  1.118497
H    -4.563999  2.692947  0.509619
H    -6.050548  2.054165  1.131957
H    -4.902963  0.704540  -1.368385
H    -5.603400  2.328527  -1.507537
H    -7.226013  0.620403  -1.946884
H    -7.072588  -0.036390  -0.431026
H    -7.679816  1.497388  -0.615867
N    -2.575256  -2.487366  2.826148
C    -2.847957  -2.180043  4.234157
H    -2.693111  -3.460054  2.534053
H    -2.990880  -3.133067  4.754758
H    -3.769501  -1.594369  4.353463
H    -2.002335  -1.669184  4.710752
Hg    3.583960  0.655954  1.548132
