35
Energy: -571611.0733311  eV PBE+vdW (tier 2 basis)
C    -1.259159  -1.198405  0.587530
C    -0.331803  -0.315236  1.338434
O    0.694874  -0.737002  1.958364
H    -2.096249  -0.676337  0.116890
H    -1.651599  -1.973498  1.261660
H    -0.691258  -1.715907  -0.202087
N    -0.520329  1.026642  1.487327
C    -1.739372  1.817149  1.397421
C    -1.325655  3.024991  0.420250
O    -0.929580  4.067674  0.906458
H    0.258752  1.483553  1.977406
H    -2.525392  1.220623  0.917231
C    -2.186551  2.356836  2.771354
C    -3.482540  3.193402  2.772380
C    -3.700939  3.832386  4.161323
C    -4.817635  4.870518  4.280738
N    -6.214664  4.274802  4.439039
H    -1.363661  2.965181  3.176815
H    -2.303538  1.484542  3.432641
H    -4.334143  2.555894  2.484525
H    -3.411237  3.997703  2.025164
H    -2.785850  4.376809  4.440057
H    -3.820404  3.058769  4.937512
H    -4.868767  5.539722  3.412651
H    -4.669407  5.487425  5.174944
H    -6.917058  5.022309  4.552184
H    -6.277065  3.676119  5.275856
H    -6.503616  3.710651  3.628679
N    -1.420970  2.772584  -0.907618
C    -1.214936  3.812870  -1.906558
H    -1.873406  1.912043  -1.210416
H    -2.137903  4.388934  -2.090510
H    -0.926076  3.332552  -2.849853
H    -0.444609  4.506403  -1.546663
Hg    2.127407  -2.462532  1.407204
