35
Energy: -571610.7765185  eV PBE+vdW (tier 2 basis)
C    0.947434  0.484472  1.328301
C    0.505092  0.590639  2.741639
O    1.407487  0.655414  3.648424
H    1.756383  -0.262165  1.275103
H    1.404568  1.432310  1.002649
H    0.137385  0.190138  0.653479
N    -0.801843  0.584427  3.108954
C    -1.855758  1.432554  2.534560
C    -1.710189  2.815866  3.229342
O    -1.215598  2.914422  4.417847
H    -0.939808  0.417508  4.108656
H    -1.660901  1.545310  1.459131
C    -3.277146  0.861361  2.768499
C    -3.680172  -0.383044  1.936455
C    -3.376495  -1.746677  2.585117
C    -3.825046  -2.976632  1.787920
N    -5.326356  -3.246658  1.847269
H    -3.984322  1.668510  2.534682
H    -3.408572  0.672178  3.846287
H    -3.218907  -0.333566  0.937423
H    -4.762710  -0.286499  1.762528
H    -3.798725  -1.792120  3.602622
H    -2.291177  -1.874155  2.712967
H    -3.355001  -3.885068  2.182344
H    -3.575604  -2.899901  0.721960
H    -5.561033  -4.099606  1.315035
H    -5.889152  -2.482949  1.447120
H    -5.650570  -3.399817  2.814061
N    -2.164957  3.928179  2.674293
C    -2.972534  4.118769  1.472760
H    -1.991905  4.772224  3.232680
H    -2.561604  4.972529  0.916134
H    -4.006536  4.369438  1.755548
H    -2.966304  3.229930  0.837325
Hg    0.815982  2.205996  5.161136
