35
Energy: -571610.8566811  eV PBE+vdW (tier 2 basis)
C    0.572232  1.936054  0.142370
C    0.413352  1.589701  1.575608
O    1.464861  1.589914  2.313769
H    1.401013  1.328948  -0.260984
H    0.894698  2.982390  0.030607
H    -0.330573  1.729146  -0.441512
N    -0.769178  1.229251  2.128691
C    -2.050454  1.941636  2.017504
C    -1.942155  3.118459  3.024876
O    -1.287968  2.971227  4.130196
H    -0.668716  0.736676  3.019216
H    -2.146610  2.328523  0.994586
C    -3.203913  0.943667  2.325211
C    -4.629992  1.455612  2.051466
C    -5.720304  0.360051  1.957765
C    -6.122534  -0.285092  3.285461
N    -7.317476  -1.212116  3.098138
H    -3.098169  0.605688  3.368689
H    -2.998907  0.071923  1.685103
H    -4.647100  1.965804  1.077726
H    -4.927667  2.204942  2.801191
H    -5.397417  -0.416148  1.245796
H    -6.608234  0.836933  1.514360
H    -6.435304  0.458838  4.029266
H    -5.331065  -0.904797  3.724365
H    -7.596745  -1.652068  3.988618
H    -7.116526  -1.974099  2.432758
H    -8.141748  -0.705796  2.739463
N    -2.539089  4.283359  2.830884
C    -3.447323  4.731786  1.777835
H    -2.352666  4.967329  3.573144
H    -3.109020  5.719593  1.435592
H    -4.463183  4.844962  2.181659
H    -3.459314  4.037201  0.935526
Hg    0.930456  2.454628  4.300100
