35
Energy: -571610.7740035  eV PBE+vdW (tier 2 basis)
C    0.318567  -1.908451  0.251016
C    0.083280  -1.548849  1.678764
O    0.408950  -2.217942  2.648082
H    0.915191  -2.823338  0.194120
H    0.849978  -1.085368  -0.254696
H    -0.633689  -2.060686  -0.279114
N    -0.585946  -0.321421  1.944900
C    -0.932830  0.019040  3.261410
C    -2.357728  -0.696580  3.737662
O    -3.337301  -0.333168  3.048637
H    -1.001892  0.189082  1.162260
H    -0.226982  -0.550236  3.902933
C    -1.049737  1.522904  3.544223
C    0.285662  2.316990  3.519706
C    1.224914  2.088567  4.722152
C    2.107108  3.275462  5.122685
N    3.243688  3.589718  4.153600
H    -1.532219  1.657758  4.523700
H    -1.730523  1.970831  2.805946
H    -0.028576  3.372508  3.502251
H    0.803226  2.133101  2.565682
H    1.844555  1.186883  4.593131
H    0.620400  1.904263  5.624761
H    2.594038  3.082761  6.086108
H    1.527476  4.202965  5.214262
H    2.908714  3.857949  3.217712
H    3.805861  4.380950  4.506033
H    3.888135  2.793043  4.042590
N    -2.328233  -1.529685  4.749943
C    -1.196167  -1.960106  5.597085
H    -3.234852  -1.942269  4.990169
H    -0.708938  -1.094590  6.060351
H    -0.483841  -2.557210  5.017251
H    -1.610724  -2.580306  6.397908
Hg    -5.607522  -0.980153  3.175367
