35
Energy: -571610.4812682  eV PBE+vdW (tier 2 basis)
C    0.975877  -0.796665  1.945691
C    -0.334393  -1.407586  2.275550
O    -0.527589  -2.667255  2.301437
H    0.975384  0.292680  1.956814
H    1.302743  -1.148044  0.957382
H    1.711879  -1.151871  2.688111
N    -1.473042  -0.709657  2.560498
C    -1.917180  0.608309  2.135293
C    -2.049772  0.629429  0.551961
O    -1.026506  0.402116  -0.089288
H    -2.226550  -1.333367  2.865298
H    -2.938911  0.660193  2.529407
C    -1.090935  1.824711  2.696485
C    -0.291992  2.735119  1.744204
C    -1.076349  3.891392  1.081878
C    -1.227902  5.179068  1.902050
N    -0.009609  6.093851  1.810643
H    -0.426744  1.422238  3.471269
H    -1.835449  2.422705  3.246245
H    0.161433  2.129343  0.942863
H    0.564906  3.129119  2.312926
H    -2.099108  3.569246  0.835857
H    -0.625080  4.134614  0.107501
H    -1.387535  4.994295  2.972058
H    -2.065474  5.782820  1.533692
H    -0.150789  6.950478  2.369115
H    0.164604  6.394983  0.839533
H    0.853726  5.650133  2.154584
N    -3.250772  0.882016  0.008028
C    -4.555696  1.019703  0.657687
H    -3.260022  0.773456  -1.009608
H    -5.253505  1.419268  -0.087751
H    -4.519309  1.722091  1.497316
H    -4.952530  0.047344  0.986756
Hg    0.958881  -4.285151  2.914958
