35
Energy: -571610.6071005  eV PBE+vdW (tier 2 basis)
C    0.842921  0.679513  1.464805
C    -0.086619  0.566252  2.615646
O    0.279435  0.493284  3.829785
H    0.711551  -0.163678  0.768906
H    1.880191  0.659505  1.814176
H    0.651486  1.607405  0.906130
N    -1.453256  0.468750  2.483498
C    -2.263966  -0.030139  1.391167
C    -1.949792  -1.608310  1.200854
O    -0.992555  -1.874352  0.482293
H    -1.912770  0.479860  3.398954
H    -3.291696  0.013386  1.778572
C    -2.130411  0.728809  0.055831
C    -3.142662  0.365100  -1.054604
C    -4.606699  0.798079  -0.818606
C    -5.379923  1.233416  -2.066346
N    -5.678794  0.109705  -3.055828
H    -1.128505  0.570278  -0.356097
H    -2.219108  1.799982  0.294118
H    -3.075075  -0.709080  -1.286742
H    -2.755234  0.881452  -1.947459
H    -4.631851  1.691193  -0.174200
H    -5.179709  0.028861  -0.276753
H    -4.833630  1.995046  -2.637318
H    -6.357405  1.648414  -1.792707
H    -6.205963  0.474144  -3.865105
H    -4.825252  -0.328829  -3.429445
H    -6.255621  -0.632814  -2.634157
N    -2.725291  -2.487063  1.838666
C    -3.864295  -2.242426  2.728534
H    -2.468290  -3.462000  1.669946
H    -4.254932  -3.217735  3.037558
H    -4.677601  -1.709825  2.218151
H    -3.564476  -1.704891  3.637293
Hg    2.046728  1.587751  4.815039
