35
Energy: -571610.8581825  eV PBE+vdW (tier 2 basis)
C    -0.880762  -1.345347  -1.381745
C    -0.468269  -1.476214  0.036309
O    0.745134  -1.462320  0.429378
H    -0.323593  -2.085329  -1.977715
H    -0.590796  -0.354562  -1.763111
H    -1.949846  -1.510179  -1.542194
N    -1.338885  -1.590369  1.076356
C    -2.734005  -1.158174  1.212827
C    -3.624290  -2.322673  0.574457
O    -4.036465  -2.168271  -0.565975
H    -0.862732  -1.828420  1.952551
H    -2.922797  -1.146717  2.294265
C    -3.089600  0.217602  0.619267
C    -4.473290  0.743466  1.056558
C    -4.801965  2.071680  0.342378
C    -6.224646  2.610704  0.503364
N    -6.473586  3.347120  1.817764
H    -3.057306  0.168165  -0.476654
H    -2.306425  0.918354  0.947245
H    -4.487985  0.866049  2.152038
H    -5.249889  0.005856  0.802416
H    -4.683217  1.924288  -0.741912
H    -4.070629  2.852656  0.607690
H    -6.984678  1.821135  0.448548
H    -6.443967  3.346097  -0.279704
H    -6.354382  2.745341  2.643791
H    -7.437465  3.714695  1.849892
H    -5.841775  4.154581  1.925165
N    -3.870147  -3.434410  1.309775
C    -3.669877  -3.694175  2.728314
H    -4.511089  -4.078055  0.833843
H    -3.481375  -4.771265  2.846832
H    -4.575256  -3.456452  3.308638
H    -2.813944  -3.148150  3.133188
Hg    2.612641  -2.281527  -0.638684
