35
Energy: -571610.9577343  eV PBE+vdW (tier 2 basis)
C    -1.058235  -0.823551  -0.114970
C    -0.822396  -1.538894  1.176808
O    -0.053550  -2.467411  1.350291
H    -0.989989  0.267219  -0.002297
H    -2.078679  -1.064866  -0.458398
H    -0.339574  -1.168206  -0.863743
N    -1.558237  -1.074391  2.308903
C    -1.410496  -1.701401  3.568908
C    -2.853451  -1.996232  4.176359
O    -3.085372  -3.233620  4.117687
H    -2.012442  -0.162854  2.226952
H    -0.958802  -2.686695  3.361133
C    -0.516773  -0.990557  4.648853
C    0.971813  -0.985157  4.253980
C    1.825329  -0.342020  5.374446
C    3.290159  -0.055846  5.033120
N    4.206017  -1.274619  5.102000
H    -0.660058  -1.526426  5.598367
H    -0.876551  0.040401  4.796366
H    1.109190  -0.417213  3.321816
H    1.300709  -2.016242  4.048416
H    1.761024  -0.932110  6.302677
H    1.401170  0.641399  5.627769
H    3.708980  0.658151  5.752846
H    3.417142  0.364162  4.027460
H    3.954960  -2.006140  4.422788
H    4.200859  -1.702141  6.040233
H    5.182137  -1.003498  4.902980
N    -3.606252  -1.024578  4.644238
C    -4.954684  -1.158416  5.221576
H    -3.206877  -0.088395  4.646965
H    -5.282420  -0.163689  5.540205
H    -4.936044  -1.808542  6.106340
H    -5.663561  -1.525325  4.468652
Hg    -4.910862  -4.604890  4.664462
