35
Energy: -571611.0968890  eV PBE+vdW (tier 2 basis)
C    0.075446  -1.427119  1.838712
C    -0.018471  0.031675  2.109335
O    0.876041  0.677913  2.764662
H    0.887298  -1.595779  1.110884
H    -0.835790  -1.867202  1.425133
H    0.343484  -1.957541  2.761825
N    -1.058730  0.796532  1.733539
C    -2.367367  0.410405  1.243173
C    -2.804255  1.615674  0.327505
O    -2.480282  2.750302  0.652886
H    -0.949515  1.808659  1.888154
H    -2.275216  -0.513202  0.658334
C    -3.468141  0.193860  2.338049
C    -3.686891  1.353691  3.317265
C    -4.715398  1.080407  4.443834
C    -6.179724  1.160138  4.007602
N    -7.115020  1.066722  5.206705
H    -3.164819  -0.718081  2.879421
H    -4.392701  -0.070719  1.802057
H    -3.971773  2.273316  2.780844
H    -2.736807  1.589742  3.817848
H    -4.537520  1.838969  5.221710
H    -4.512464  0.102209  4.907900
H    -6.477498  0.346725  3.334692
H    -6.411458  2.116893  3.522602
H    -8.103748  1.123624  4.917649
H    -6.951555  1.832302  5.878533
H    -6.999362  0.180428  5.720893
N    -3.535516  1.304601  -0.769599
C    -3.832421  2.276626  -1.809870
H    -3.711362  0.322693  -0.981407
H    -4.782431  1.996706  -2.284988
H    -3.056741  2.271821  -2.596312
H    -3.869369  3.279195  -1.368627
Hg    3.107816  0.323659  2.730609
