35
Energy: -571610.5220405  eV PBE+vdW (tier 2 basis)
C    0.427667  -0.711976  1.854358
C    -0.930131  -0.610923  1.263538
O    -1.139943  -1.251295  0.174103
H    0.546932  -0.079334  2.737336
H    1.206951  -0.548358  1.101013
H    0.536509  -1.760984  2.190347
N    -1.985047  -0.001967  1.873419
C    -2.243548  1.351308  2.402511
C    -3.195377  2.032374  1.379940
O    -3.120020  1.837657  0.102181
H    -2.856932  -0.507541  1.694556
H    -2.806133  1.203129  3.335663
C    -1.034328  2.257328  2.763918
C    -0.157014  2.819077  1.628505
C    0.732305  4.023124  2.031194
C    1.910098  3.691915  2.951753
N    2.800538  4.909773  3.164990
H    -0.443169  1.712948  3.514370
H    -1.478201  3.099760  3.316316
H    -0.796464  3.182439  0.811004
H    0.476738  2.036352  1.186038
H    0.104279  4.800113  2.495946
H    1.122773  4.457214  1.097871
H    2.561943  2.918554  2.525691
H    1.600059  3.372506  3.954370
H    3.193823  5.259202  2.277371
H    2.290214  5.693280  3.600445
H    3.597748  4.688771  3.782250
N    -4.100898  2.907713  1.781168
C    -4.357775  3.473012  3.107249
H    -4.672238  3.289729  1.019491
H    -5.445586  3.537505  3.238902
H    -3.945758  4.489854  3.171686
H    -3.937018  2.848646  3.899882
Hg    -2.739223  -0.121607  -0.888450
