35
Energy: -571610.9863051  eV PBE+vdW (tier 2 basis)
C    -0.050616  0.259538  -0.525066
C    -0.736443  -0.933080  0.049871
O    -1.051946  -1.967405  -0.633197
H    0.956845  -0.038291  -0.864273
H    0.066581  1.078527  0.192698
H    -0.612429  0.625906  -1.395861
N    -1.082263  -0.918763  1.350876
C    -1.814186  -1.954244  2.059707
C    -3.315813  -1.477465  2.196876
O    -3.521847  -0.407457  2.756740
H    -0.981426  -0.023988  1.836608
H    -1.787197  -2.862956  1.438737
C    -1.189992  -2.180589  3.461317
C    -1.953716  -3.166618  4.365351
C    -1.134505  -3.613691  5.599591
C    -1.061834  -2.658387  6.798816
N    -2.132053  -2.942265  7.850511
H    -1.076697  -1.203442  3.955480
H    -0.173143  -2.559968  3.274708
H    -2.193713  -4.074462  3.792214
H    -2.920476  -2.735102  4.671486
H    -0.098593  -3.813515  5.289936
H    -1.506777  -4.593790  5.937014
H    -1.179738  -1.602075  6.526938
H    -0.109276  -2.764047  7.330565
H    -2.053847  -2.287990  8.644666
H    -2.033611  -3.894192  8.235590
H    -3.089051  -2.858485  7.480413
N    -4.275583  -2.278481  1.685509
C    -5.673736  -1.878980  1.611917
H    -3.992948  -3.120155  1.186277
H    -5.899050  -1.378268  0.654526
H    -5.890304  -1.174080  2.423613
H    -6.297250  -2.780454  1.672126
Hg    0.052008  -2.527332  -2.574564
