35
Energy: -571611.2130886  eV PBE+vdW (tier 2 basis)
C    1.123391  0.273152  0.730260
C    0.473655  0.254254  2.065941
O    0.663916  1.189235  2.928695
H    0.860562  -0.580317  0.096446
H    0.832633  1.205876  0.221079
H    2.216694  0.315887  0.842961
N    -0.388754  -0.729828  2.375041
C    -1.199130  -0.865965  3.584714
C    -0.443981  -0.476440  4.863830
O    0.800922  -0.772405  4.996927
H    -0.596575  -1.395755  1.629754
H    -2.032207  -0.144687  3.491032
C    -1.859256  -2.272163  3.670001
C    -0.938737  -3.494508  3.853951
C    -1.762349  -4.802869  3.870102
C    -0.879466  -6.039234  4.053711
N    -1.699939  -7.322190  4.071868
H    -2.468354  -2.384432  2.758119
H    -2.587615  -2.226957  4.492575
H    -0.372059  -3.404168  4.793296
H    -0.193262  -3.543114  3.044497
H    -2.328134  -4.890369  2.928586
H    -2.503407  -4.755264  4.684228
H    -0.329825  -6.020447  5.003082
H    -0.155366  -6.157718  3.237933
H    -2.224116  -7.459792  3.194461
H    -2.384967  -7.333440  4.842588
H    -1.093921  -8.148485  4.194388
N    -1.109447  0.095936  5.856500
C    -2.514621  0.502540  5.927174
H    -0.547827  0.267762  6.694926
H    -2.620861  1.234536  6.733197
H    -3.164424  -0.356896  6.143848
H    -2.833980  0.967152  4.983365
Hg    2.241024  0.886832  4.470038
