35
Energy: -571610.7966568  eV PBE+vdW (tier 2 basis)
C    0.025218  0.878469  -0.201223
C    -0.105899  0.383041  1.190573
O    0.927802  -0.147155  1.738946
H    0.477474  0.071716  -0.803722
H    0.738672  1.714894  -0.248797
H    -0.939839  1.146641  -0.643120
N    -1.265977  0.416866  1.888243
C    -2.162996  1.567453  2.076578
C    -1.468789  2.446406  3.151601
O    -0.795701  1.901267  4.110314
H    -1.284414  -0.229738  2.680728
H    -2.238809  2.113077  1.127199
C    -3.547428  1.021375  2.524710
C    -4.748561  1.985734  2.556005
C    -6.003284  1.235357  3.059172
C    -7.284589  2.055067  3.247957
N    -8.151283  2.161211  1.995309
H    -3.424180  0.565904  3.521369
H    -3.768454  0.195819  1.831033
H    -4.913096  2.405831  1.550454
H    -4.553001  2.831951  3.232392
H    -5.781057  0.816303  4.051946
H    -6.209764  0.358396  2.423737
H    -7.090215  3.084864  3.572722
H    -7.931481  1.583797  3.997097
H    -9.008768  2.701454  2.192062
H    -8.454448  1.232102  1.666083
H    -7.675453  2.628243  1.211509
N    -1.576227  3.764940  3.170949
C    -2.370229  4.667510  2.341112
H    -1.039884  4.211224  3.923720
H    -1.700603  5.433907  1.925475
H    -3.119453  5.176228  2.962936
H    -2.864580  4.132626  1.527936
Hg    0.988574  0.502732  3.871528
