35
Energy: -571611.3510621  eV PBE+vdW (tier 2 basis)
C    0.591048  -2.442109  -1.179229
C    0.652552  -2.111919  0.277806
O    1.801651  -1.734150  0.701763
H    -0.435068  -2.540988  -1.551012
H    1.141723  -3.381272  -1.347158
H    1.121128  -1.667420  -1.750897
N    -0.464300  -2.236787  1.018212
C    -0.784155  -1.736812  2.376543
C    -0.401208  -2.768732  3.478587
O    0.753580  -2.727019  4.059388
H    -1.258450  -2.620992  0.507096
H    -0.151218  -0.855363  2.572095
C    -2.270943  -1.307004  2.441645
C    -2.695864  -0.029122  1.677029
C    -2.311261  1.308039  2.359830
C    -3.383593  2.402824  2.367421
N    -3.636564  3.069233  1.017706
H    -2.532344  -1.179032  3.502633
H    -2.889378  -2.142553  2.070788
H    -3.791984  -0.098117  1.604616
H    -2.329520  -0.062321  0.639732
H    -1.368969  1.712938  1.959478
H    -2.119171  1.133298  3.430167
H    -3.092112  3.217888  3.040752
H    -4.357358  2.020588  2.699497
H    -3.981818  2.412512  0.303721
H    -2.788977  3.522952  0.645887
H    -4.352131  3.807977  1.112295
N    -1.259747  -3.682448  3.873019
C    -1.001883  -4.713349  4.891218
H    -2.210364  -3.634049  3.507336
H    0.064363  -4.955483  4.910441
H    -1.594786  -5.598441  4.639146
H    -1.307165  -4.342304  5.879551
Hg    2.323287  -1.919462  2.804902
