35
Energy: -571611.0375834  eV PBE+vdW (tier 2 basis)
C    -0.162518  -0.527417  -0.124357
C    -0.217387  -0.125997  1.306497
O    0.782263  -0.252190  2.102770
H    -1.132525  -0.532635  -0.628395
H    0.290099  -1.524120  -0.209988
H    0.489149  0.181956  -0.662556
N    -1.319406  0.359706  1.903663
C    -2.687823  0.394779  1.424315
C    -3.323845  1.635557  2.149157
O    -2.972410  1.897641  3.292692
H    -1.201286  0.689628  2.871437
H    -2.679878  0.538764  0.336458
C    -3.558031  -0.867985  1.735115
C    -3.739049  -1.281045  3.203653
C    -4.598734  -2.563392  3.294687
C    -4.733039  -3.212726  4.673561
N    -5.781818  -2.564252  5.573829
H    -3.093464  -1.688968  1.163489
H    -4.537236  -0.698900  1.260839
H    -4.199712  -0.457785  3.774299
H    -2.759025  -1.469715  3.668998
H    -4.143460  -3.339933  2.661384
H    -5.597531  -2.394668  2.859784
H    -3.794945  -3.200225  5.242527
H    -5.053152  -4.256523  4.571505
H    -5.568807  -1.582192  5.795450
H    -6.718798  -2.592963  5.144553
H    -5.849476  -3.067450  6.472477
N    -4.248773  2.331991  1.444483
C    -4.768708  3.614732  1.887359
H    -4.446053  2.053004  0.483361
H    -4.178117  4.450994  1.471517
H    -4.720119  3.668396  2.980644
H    -5.795064  3.722559  1.509779
Hg    2.960992  0.011208  1.569505
