35
Energy: -571610.7127101  eV PBE+vdW (tier 2 basis)
C    1.002345  -1.029149  1.387377
C    0.285089  -0.644483  2.629467
O    0.966228  -0.662016  3.718047
H    0.988654  -2.126033  1.276634
H    2.060311  -0.750406  1.500300
H    0.585714  -0.551102  0.497396
N    -1.000255  -0.217894  2.681900
C    -2.201825  -0.843521  2.099639
C    -2.449621  -2.129553  2.960509
O    -1.476032  -2.686992  3.567634
H    -1.203998  0.257268  3.564637
H    -3.016066  -0.135645  2.318166
C    -2.211595  -1.121654  0.579222
C    -2.301730  0.144860  -0.301089
C    -2.480504  -0.223230  -1.790889
C    -3.016366  0.865721  -2.724515
N    -1.978609  1.886256  -3.185829
H    -3.102025  -1.738827  0.381536
H    -1.361218  -1.755673  0.294139
H    -1.412113  0.776524  -0.147199
H    -3.164870  0.743746  0.031218
H    -3.227497  -1.028809  -1.866187
H    -1.557035  -0.658548  -2.205850
H    -3.829368  1.446046  -2.270212
H    -3.398727  0.414847  -3.647988
H    -2.404972  2.561432  -3.840256
H    -1.199564  1.435954  -3.688858
H    -1.579352  2.433383  -2.411253
N    -3.672512  -2.642754  3.009995
C    -4.096118  -3.790678  3.806755
H    -4.391676  -2.221586  2.418544
H    -3.287449  -4.109746  4.466505
H    -4.365116  -4.618343  3.130676
H    -4.993936  -3.517830  4.378875
Hg    -0.049404  -1.932233  5.254405
