35
Energy: -571610.8567865  eV PBE+vdW (tier 2 basis)
C    0.634750  0.541904  0.997525
C    -0.055328  0.044198  2.211800
O    0.483547  -0.007601  3.366873
H    1.593147  0.008687  0.896091
H    0.880845  1.607276  1.121905
H    0.061075  0.395769  0.078221
N    -1.348768  -0.376779  2.234030
C    -2.482692  -0.038341  1.365662
C    -2.384908  -1.007257  0.101873
O    -1.937377  -0.549933  -0.940179
H    -1.592908  -0.823945  3.123785
H    -3.373410  -0.326919  1.939362
C    -2.610923  1.439798  0.952801
C    -3.982306  1.797531  0.341863
C    -4.104049  3.321325  0.127775
C    -5.479976  3.854497  -0.275861
N    -5.806176  3.690606  -1.758495
H    -1.812038  1.706567  0.249278
H    -2.463137  2.031702  1.869533
H    -4.785027  1.467408  1.020629
H    -4.115449  1.254473  -0.606987
H    -3.339527  3.679183  -0.581093
H    -3.876140  3.831134  1.076332
H    -5.540116  4.933239  -0.089281
H    -6.298922  3.370343  0.270925
H    -6.730143  4.097020  -1.973336
H    -5.834352  2.706142  -2.056120
H    -5.119217  4.177411  -2.353254
N    -2.782161  -2.297113  0.234569
C    -3.553827  -2.947018  1.284817
H    -2.740146  -2.806799  -0.654107
H    -3.220175  -3.993591  1.346803
H    -4.626909  -2.961111  1.037219
H    -3.404409  -2.478237  2.260621
Hg    2.673947  -0.437161  3.916861
