35
Energy: -571610.7247708  eV PBE+vdW (tier 2 basis)
C    0.206275  0.079713  0.662587
C    -0.184110  -0.174187  2.070039
O    0.323311  0.436574  3.068746
H    -0.017445  1.123506  0.396447
H    -0.264050  -0.601573  -0.051777
H    1.298645  -0.037932  0.579158
N    -1.144535  -1.060337  2.449473
C    -2.296386  -1.605295  1.725009
C    -1.735102  -2.829832  0.858993
O    -1.449068  -2.618554  -0.310171
H    -1.151119  -1.209401  3.463727
H    -2.950275  -2.019238  2.503408
C    -3.105232  -0.626035  0.851730
C    -4.424810  -1.238923  0.335799
C    -5.151695  -0.344482  -0.699437
C    -6.151002  0.691488  -0.173521
N    -7.570643  0.138969  -0.063152
H    -2.501252  -0.310583  -0.008470
H    -3.302664  0.264436  1.468629
H    -5.085048  -1.479968  1.185228
H    -4.206377  -2.194241  -0.160886
H    -5.654647  -0.986256  -1.439368
H    -4.406535  0.207442  -1.289690
H    -6.232660  1.544223  -0.857335
H    -5.898097  1.078445  0.821524
H    -7.922759  -0.169704  -0.982400
H    -8.224387  0.858829  0.281802
H    -7.638218  -0.665318  0.576073
N    -1.587938  -4.036368  1.457733
C    -2.066167  -4.517048  2.746270
H    -1.310283  -4.766113  0.792931
H    -3.067562  -4.967752  2.659646
H    -1.381276  -5.310415  3.078970
H    -2.073741  -3.729518  3.504387
Hg    2.485639  1.173163  3.350918
