35
Energy: -571610.6701245  eV PBE+vdW (tier 2 basis)
C    -0.297304  0.470021  -0.702931
C    -0.002735  0.772236  0.719478
O    1.157354  1.130664  1.120711
H    0.413382  -0.280041  -1.074275
H    -1.312258  0.123502  -0.892840
H    -0.142556  1.402851  -1.276611
N    -0.897770  0.712271  1.747531
C    -2.047413  -0.165456  1.943938
C    -1.561181  -1.676754  1.871740
O    -0.934813  -2.005152  0.869064
H    -0.495674  1.082621  2.613504
H    -2.358774  0.046919  2.974057
C    -3.231413  0.047674  0.954875
C    -4.614694  -0.430175  1.460683
C    -5.335856  0.541530  2.413486
C    -6.727721  0.107544  2.885259
N    -7.818993  0.267429  1.830140
H    -3.014916  -0.481033  0.019529
H    -3.271834  1.121131  0.719522
H    -4.536220  -1.428291  1.920121
H    -5.215673  -0.581611  0.550356
H    -5.394902  1.546475  1.964054
H    -4.757253  0.679575  3.340281
H    -7.056399  0.719565  3.733384
H    -6.759686  -0.945578  3.192334
H    -8.736872  -0.007219  2.214499
H    -7.659890  -0.314516  0.995790
H    -7.907384  1.245711  1.516735
N    -1.850708  -2.527985  2.875488
C    -2.390794  -2.265687  4.203841
H    -1.443888  -3.457006  2.731471
H    -1.595283  -1.986318  4.912714
H    -2.845298  -3.195059  4.570386
H    -3.161070  -1.489120  4.183291
Hg    2.699161  2.242355  -0.104254
