35
Energy: -571610.9970718  eV PBE+vdW (tier 2 basis)
C    0.253167  -0.115061  0.188009
C    0.077389  -0.007071  1.656673
O    1.114881  -0.160671  2.398901
H    0.901400  0.692338  -0.184467
H    -0.701267  -0.145022  -0.347489
H    0.802008  -1.050675  -0.016596
N    -1.122359  0.195494  2.251070
C    -2.116784  1.227868  1.923178
C    -1.572384  2.532508  2.563592
O    -0.922450  2.495778  3.680462
H    -1.139415  -0.069391  3.238923
H    -2.165661  1.333135  0.831602
C    -3.488033  0.773593  2.496512
C    -4.734392  1.580775  2.092356
C    -6.021296  0.906099  2.621828
C    -7.282551  1.664955  2.203514
N    -8.547002  0.975775  2.697865
H    -3.407041  0.739427  3.595350
H    -3.606386  -0.266759  2.157258
H    -4.793052  1.653385  0.995131
H    -4.676489  2.608158  2.483640
H    -5.975599  0.839974  3.720543
H    -6.069335  -0.126007  2.239208
H    -7.384127  1.730844  1.112903
H    -7.313556  2.681239  2.615955
H    -9.390372  1.496986  2.411228
H    -8.572279  0.902610  3.726159
H    -8.639886  0.020726  2.320016
N    -1.789060  3.727152  2.037789
C    -2.594027  4.131030  0.887437
H    -1.344222  4.492168  2.557723
H    -3.441943  4.742446  1.225187
H    -2.959961  3.266499  0.330493
H    -1.968855  4.754003  0.232250
Hg    0.982705  1.310009  4.070537
