35
Energy: -571610.6440867  eV PBE+vdW (tier 2 basis)
C    0.374619  -0.310778  -0.176492
C    0.189830  -0.066242  1.283059
O    1.065165  0.264734  2.075785
H    0.089200  -1.350011  -0.410336
H    1.420522  -0.151915  -0.453032
H    -0.267524  0.348511  -0.780419
N    -1.128665  -0.202453  1.785470
C    -1.417311  -0.030964  3.159314
C    -2.493830  -1.105087  3.618068
O    -1.929529  -2.003334  4.302545
H    -1.882820  -0.237549  1.097017
H    -0.489794  -0.259562  3.705851
C    -1.906022  1.405340  3.622743
C    -0.835342  2.505465  3.492116
C    0.106621  2.772035  4.680708
C    1.417096  1.998691  4.840152
N    2.447191  2.309078  3.763247
H    -2.255367  1.320833  4.661488
H    -2.773661  1.676224  3.002302
H    -1.444165  3.422908  3.375295
H    -0.298912  2.438514  2.534336
H    -0.441721  2.633449  5.625116
H    0.348896  3.848577  4.673344
H    1.296191  0.909433  4.824784
H    1.884839  2.274085  5.793020
H    2.190006  1.870046  2.864330
H    2.562708  3.323670  3.620761
H    3.372618  1.937113  4.025589
N    -3.756960  -0.977186  3.278066
C    -4.861309  -1.894271  3.611220
H    -4.015635  -0.132600  2.770612
H    -5.024579  -1.929281  4.696614
H    -4.674039  -2.893251  3.196359
H    -5.771562  -1.502663  3.144689
Hg    -2.689546  -3.958696  5.345634
