35
Energy: -571610.7672741  eV PBE+vdW (tier 2 basis)
 C    0.65203   -1.61221   -0.12746
 C    0.38804   -1.28963    1.30520
 O    1.20833   -1.57229    2.26173
 H    0.79780   -2.69777   -0.23512
 H    1.56996   -1.09961   -0.45642
 H   -0.16656   -1.30779   -0.78802
 N   -0.75449   -0.70230    1.64992
 C   -1.19660   -0.46296    3.03418
 C   -2.68743   -0.86186    3.05085
 O   -3.32541   -0.68910    2.00300
 H   -1.48901   -0.60814    0.94056
 H   -0.59924   -1.12019    3.67994
 C   -1.02110    1.00789    3.52310
 C   -2.00057    2.11413    3.07456
 C   -1.92078    2.56651    1.60261
 C   -2.36279    4.00673    1.32820
 N   -3.85977    4.25425    1.49635
 H    0.01091    1.29834    3.27487
 H   -1.06082    0.96144    4.62121
 H   -1.75919    2.97274    3.72136
 H   -3.03123    1.82726    3.33841
 H   -2.46589    1.87718    0.93850
 H   -0.87185    2.54414    1.26769
 H   -2.13576    4.29368    0.29458
 H   -1.86582    4.72086    1.99728
 H   -4.09060    5.23383    1.26673
 H   -4.42239    3.65930    0.87059
 H   -4.18281    4.09104    2.46012
 N   -3.28701   -1.33329    4.16908
 C   -2.71628   -1.69354    5.44958
 H   -4.27946   -1.55311    4.03170
 H   -3.33669   -1.26104    6.25207
 H   -1.68676   -1.34424    5.55411
 H   -2.75450   -2.78941    5.58546
Hg    3.28256   -2.36794    1.92197
