35
Energy: -571610.9786737  eV PBE+vdW (tier 2 basis)
C    -0.052695  -0.516324  -0.669947
C    -0.439430  -0.157940  0.726608
O    0.414097  0.144171  1.645777
H    0.637788  -1.372614  -0.650988
H    0.459215  0.341406  -1.136506
H    -0.912947  -0.777781  -1.295385
N    -1.724654  -0.172667  1.069132
C    -2.280014  0.050534  2.413416
C    -3.184918  -1.189366  2.666108
O    -3.867030  -1.564815  1.706277
H    -2.395484  -0.546916  0.389562
H    -1.441913  0.103903  3.120410
C    -3.140098  1.347100  2.431432
C    -3.817125  1.644601  3.780904
C    -4.553181  3.003418  3.863952
C    -5.890749  3.048995  3.122030
N    -6.636112  4.345811  3.412215
H    -3.882576  1.263668  1.623067
H    -2.463399  2.171329  2.159462
H    -3.054115  1.656939  4.573089
H    -4.521838  0.840373  4.046280
H    -3.893038  3.807893  3.502688
H    -4.733168  3.204449  4.931482
H    -6.563935  2.241707  3.437484
H    -5.784133  3.004484  2.031401
H    -7.539722  4.379047  2.915467
H    -6.098099  5.175762  3.121101
H    -6.839252  4.452495  4.417866
N    -3.249182  -1.819852  3.862125
C    -2.480458  -1.619341  5.072410
H    -3.892913  -2.618722  3.855589
H    -3.167572  -1.585481  5.932978
H    -1.893580  -0.699221  5.036316
H    -1.810553  -2.480934  5.239697
Hg    2.584713  0.537042  1.187609
