35
Energy: -571611.1163830  eV PBE+vdW (tier 2 basis)
C    -0.133404  0.581963  -0.014800
C    -0.147291  0.381869  1.456162
O    0.877522  0.030729  2.125968
H    0.272831  -0.314824  -0.503138
H    0.548097  1.416521  -0.247637
H    -1.109418  0.814839  -0.448039
N    -1.261472  0.501506  2.226974
C    -2.666704  0.447916  1.862653
C    -3.270868  1.800145  2.498282
O    -3.587310  1.798220  3.673422
H    -1.064868  0.411939  3.231518
H    -2.760558  0.493182  0.770573
C    -3.408463  -0.775697  2.441517
C    -4.888987  -0.822920  2.015129
C    -5.785103  -1.804982  2.804078
C    -5.572986  -3.282572  2.473316
N    -6.626936  -4.147265  3.154310
H    -3.329301  -0.735151  3.538435
H    -2.866917  -1.670269  2.098442
H    -4.964958  -1.034434  0.937181
H    -5.340064  0.168679  2.163906
H    -6.827383  -1.537690  2.569825
H    -5.655102  -1.635647  3.884810
H    -4.604315  -3.669107  2.813066
H    -5.671061  -3.482613  1.398653
H    -7.580033  -3.893016  2.852541
H    -6.598777  -4.054032  4.180862
H    -6.495877  -5.146561  2.934918
N    -3.362305  2.859418  1.661874
C    -4.043284  4.089206  2.049583
H    -3.169394  2.720090  0.671777
H    -3.643884  4.909117  1.439144
H    -3.885770  4.261280  3.121658
H    -5.129292  4.029039  1.864645
Hg    3.080246  0.610502  1.789695
