35
Energy: -571610.8074716  eV PBE+vdW (tier 2 basis)
C    0.368144  0.403762  -0.222099
C    0.264488  0.560622  1.273052
O    1.195276  0.871060  1.995367
H    1.374137  0.686013  -0.543209
H    -0.375799  1.059065  -0.704059
H    0.159852  -0.631233  -0.529557
N    -1.019400  0.275792  1.805531
C    -1.401236  0.065305  3.163286
C    -2.308132  1.347311  3.685047
O    -3.442074  0.914607  4.025780
H    -1.665823  -0.109695  1.114490
H    -2.147270  -0.738138  3.175597
C    -0.324248  -0.255639  4.233209
C    0.189546  -1.701668  4.041641
C    1.147161  -2.211433  5.145989
C    2.587059  -1.706972  5.029918
N    3.501687  -2.436694  6.006278
H    -0.803053  -0.172794  5.220261
H    0.479404  0.487626  4.191625
H    0.671538  -1.806710  3.058331
H    -0.672462  -2.384043  4.034960
H    1.147719  -3.310120  5.063398
H    0.738780  -1.976966  6.141453
H    2.694248  -0.639829  5.258741
H    3.007044  -1.890990  4.033055
H    3.209990  -2.303254  6.986293
H    4.474930  -2.102692  5.930598
H    3.516379  -3.453162  5.829596
N    -1.883870  2.585652  3.719486
C    -0.601769  3.189350  3.331023
H    -2.577610  3.258303  4.061467
H    -0.282085  3.861250  4.135806
H    -0.738551  3.770946  2.410732
H    0.163673  2.426208  3.176647
Hg    -5.339958  2.022707  4.820886
