35
Energy: -571611.4189246  eV PBE+vdW (tier 2 basis)
C    0.213236  1.891128  0.311539
C    0.097738  1.274328  1.669309
O    1.106473  1.455609  2.434725
H    -0.723006  1.838651  -0.256590
H    1.016459  1.381084  -0.241582
H    0.521809  2.941168  0.416134
N    -1.020108  0.590130  1.979493
C    -1.469623  0.109126  3.298360
C    -0.855439  -1.269534  3.671935
O    0.086525  -1.308557  4.559311
H    -1.700479  0.532796  1.223686
H    -1.045559  0.791604  4.053856
C    -3.010247  0.210239  3.455610
C    -3.483750  1.665984  3.653025
C    -5.015175  1.887892  3.683752
C    -5.694226  1.502195  5.000797
N    -7.149325  1.953191  5.022433
H    -3.288193  -0.413129  4.318790
H    -3.505865  -0.235338  2.580326
H    -3.099560  2.284024  2.828375
H    -3.035432  2.078576  4.570792
H    -5.490852  1.358606  2.842870
H    -5.179998  2.961760  3.505256
H    -5.219848  1.987718  5.863159
H    -5.714619  0.420274  5.179991
H    -7.234057  2.976589  4.921940
H    -7.608126  1.698541  5.911036
H    -7.701525  1.526689  4.263052
N    -1.247798  -2.428558  3.182194
C    -2.348893  -2.768019  2.275902
H    -0.718745  -3.225977  3.551464
H    -2.509480  -1.980277  1.535282
H    -3.271441  -2.959082  2.839979
H    -2.069639  -3.687973  1.750218
Hg    1.501766  0.337547  4.276582
