35
Energy: -571611.2449497  eV PBE+vdW (tier 2 basis)
C    -0.187566  -0.551896  0.086123
C    -0.100391  -0.483727  1.578121
O    1.009990  -0.909140  2.064617
H    -1.212911  -0.452264  -0.287803
H    0.239644  -1.504573  -0.257452
H    0.446366  0.243409  -0.337944
N    -1.146922  0.015309  2.259824
C    -1.592622  -0.040008  3.691482
C    -0.932750  1.047919  4.583716
O    0.217625  0.910884  5.153454
H    -1.877741  0.355906  1.637371
H    -2.650253  0.249854  3.617095
C    -1.553150  -1.462192  4.303698
C    -2.403610  -1.624429  5.588665
C    -3.908502  -1.913994  5.365296
C    -4.315659  -3.385746  5.214906
N    -4.523888  -4.091923  6.551966
H    -0.516635  -1.759339  4.530766
H    -1.885640  -2.159940  3.521103
H    -2.302798  -0.727707  6.217811
H    -1.944418  -2.425822  6.186226
H    -4.268691  -1.409473  4.455853
H    -4.497170  -1.458801  6.176542
H    -3.576688  -3.984896  4.667804
H    -5.275969  -3.475245  4.693754
H    -4.798936  -5.076611  6.407521
H    -5.278005  -3.649684  7.099894
H    -3.679502  -4.099675  7.141748
N    -1.616790  2.147691  4.827246
C    -1.151553  3.285492  5.632692
H    -2.568159  2.208998  4.465130
H    -1.530988  3.193399  6.659878
H    -1.546407  4.204940  5.187040
H    -0.058663  3.303467  5.651443
Hg    1.628785  -0.275256  4.022574
