35
Energy: -571611.2194668  eV PBE+vdW (tier 2 basis)
 C   -1.49726   -1.68270    2.65860
 C   -0.26775   -0.87258    2.44942
 O    0.83778   -1.11999    3.05190
 H   -2.40473   -1.24196    2.23757
 H   -1.64766   -1.85227    3.73269
 H   -1.35245   -2.66747    2.18243
 N   -0.21200    0.20778    1.65022
 C   -1.28534    0.94749    1.01775
 C   -0.64503    1.50624   -0.30919
 O    0.52912    1.85246   -0.29708
 H    0.72264    0.61660    1.51471
 H   -2.11045    0.26029    0.79370
 C   -1.86359    2.15550    1.82719
 C   -0.87569    3.24101    2.27307
 C   -1.60701    4.46126    2.87923
 C   -0.62134    5.54250    3.32691
 N   -1.33618    6.76454    3.88784
 H   -2.37522    1.71031    2.69683
 H   -2.66182    2.59161    1.20638
 H   -0.26432    3.57755    1.41934
 H   -0.16948    2.82823    3.01025
 H   -2.21941    4.13778    3.73600
 H   -2.29877    4.87897    2.13020
 H   -0.00387    5.90992    2.49760
 H    0.04586    5.19189    4.12419
 H   -1.91965    6.53124    4.70534
 H   -1.95125    7.20747    3.18879
 H   -0.66003    7.48179    4.19311
 N   -1.46387    1.58150   -1.38542
 C   -0.97304    1.87434   -2.72197
 H   -2.41958    1.23520   -1.30216
 H   -0.72576    0.94743   -3.26997
 H   -0.06607    2.48511   -2.64932
 H   -1.77194    2.38067   -3.28109
Hg    1.65705   -3.16505    3.57473
