35
Energy: -571611.1789406  eV PBE+vdW (tier 2 basis)
C    -1.500407  -0.059609  -0.047007
C    -1.562424  0.657833  1.265397
O    -1.437784  1.935694  1.173498
H    -0.725037  0.398211  -0.676030
H    -2.457530  0.093196  -0.572036
H    -1.303813  -1.132668  0.059104
N    -1.764823  -0.072899  2.375248
C    -1.627477  0.081157  3.868117
C    -2.688995  0.931430  4.599333
O    -2.683129  2.233931  4.653236
H    -1.892578  -1.054886  2.135004
H    -1.856819  -0.940489  4.191112
C    -0.175420  0.279245  4.397464
C    0.644472  1.561563  4.162990
C    2.052268  1.396088  4.791143
C    2.941146  2.627782  4.604235
N    4.311292  2.433394  5.239876
H    0.386317  -0.578186  3.995889
H    -0.245558  0.096598  5.482340
H    0.151881  2.430147  4.629499
H    0.754635  1.763453  3.085513
H    2.541552  0.517317  4.341506
H    1.939023  1.183939  5.866251
H    3.130453  2.848937  3.546286
H    2.517365  3.523177  5.076154
H    4.903944  3.268193  5.107553
H    4.820332  1.635140  4.830367
H    4.248289  2.267267  6.256002
N    -3.600950  0.345366  5.350123
C    -3.821438  -1.063792  5.703513
H    -4.216374  1.012316  5.830343
H    -3.531026  -1.734940  4.889844
H    -4.893459  -1.191275  5.892559
H    -3.273167  -1.315929  6.621747
Hg    -2.164618  3.118738  2.787656
