35
Energy: -571611.0160584  eV PBE+vdW (tier 2 basis)
C    -0.114858  -1.554637  0.804022
C    -1.428766  -1.507050  1.495399
O    -2.301870  -2.425371  1.399715
H    0.406160  -2.479056  1.098898
H    0.545072  -0.710878  1.020147
H    -0.278129  -1.610340  -0.282659
N    -1.850259  -0.448494  2.245755
C    -1.365443  0.918625  2.247444
C    -1.099242  1.251001  3.799246
O    -2.033607  1.615097  4.495605
H    -2.751653  -0.615360  2.705406
H    -0.397265  0.942171  1.734187
C    -2.272844  1.980651  1.589165
C    -3.730440  2.138310  2.048307
C    -4.416570  3.280151  1.264834
C    -5.901101  3.518231  1.547174
N    -6.168397  4.375354  2.781903
H    -2.245670  1.756113  0.508850
H    -1.738856  2.937379  1.701026
H    -3.750313  2.332770  3.133730
H    -4.294225  1.205574  1.884199
H    -4.360646  3.053776  0.189044
H    -3.856964  4.222577  1.384003
H    -6.461944  2.586944  1.695476
H    -6.365163  4.063627  0.716862
H    -5.740930  5.309308  2.692141
H    -5.811703  3.951462  3.649188
H    -7.181792  4.521347  2.911249
N    0.172028  1.091549  4.217680
C    0.615656  1.532591  5.538338
H    0.892133  0.886955  3.527999
H    -0.198207  1.381427  6.257583
H    0.889639  2.600046  5.535482
H    1.506735  0.952809  5.808925
Hg    -1.957253  -4.710582  1.182993
