35
Energy: -571611.0611908  eV PBE+vdW (tier 2 basis)
C    -0.076419  -0.095042  0.653719
C    0.137241  0.413707  2.031772
O    0.958689  -0.070784  2.866230
H    0.887394  -0.395720  0.220854
H    -0.549214  0.633906  -0.012698
H    -0.697107  -1.005663  0.691848
N    -0.612865  1.431566  2.558671
C    -1.909059  1.859964  2.113400
C    -1.804790  3.323206  1.382352
O    -2.396431  3.310211  0.310951
H    -0.291426  1.738754  3.482184
H    -2.229083  1.213718  1.291692
C    -3.007159  1.898212  3.208477
C    -4.403436  2.252317  2.664330
C    -5.508717  2.099679  3.733292
C    -6.879360  2.454001  3.150949
N    -7.992811  2.310331  4.179052
H    -2.720560  2.581786  4.020882
H    -3.020465  0.882391  3.638228
H    -4.635838  1.604870  1.804685
H    -4.410360  3.285133  2.285262
H    -5.287999  2.753854  4.591854
H    -5.521154  1.064422  4.109636
H    -7.155026  1.798299  2.315471
H    -6.924763  3.493130  2.801601
H    -8.907877  2.553156  3.768335
H    -7.852681  2.929173  4.991645
H    -8.068499  1.346103  4.536115
N    -1.195082  4.361394  1.945350
C    -0.448959  4.458941  3.202077
H    -1.218323  5.203057  1.365350
H    -0.393859  5.519598  3.470628
H    0.578589  4.088403  3.092081
H    -0.966005  3.951115  4.024382
Hg    3.051489  -1.013923  2.451066
