35
Energy: -571610.7403251  eV PBE+vdW (tier 2 basis)
C    0.882356  0.133188  2.542275
C    -0.362151  -0.528660  3.006630
O    -0.360536  -1.468304  3.873376
H    0.734186  0.879138  1.762546
H    1.589581  -0.625473  2.181929
H    1.335745  0.635855  3.416273
N    -1.623457  -0.229448  2.583509
C    -2.093106  0.244166  1.283605
C    -1.623098  -0.768668  0.153935
O    -0.426025  -1.017566  0.072700
H    -2.328136  -0.736042  3.127429
H    -3.187684  0.182737  1.362149
C    -1.668438  1.694059  0.897935
C    -2.588731  2.352687  -0.159286
C    -3.871413  3.029737  0.379657
C    -3.747929  4.504436  0.777355
N    -3.830444  5.451320  -0.417378
H    -0.645210  1.675734  0.505170
H    -1.650151  2.288983  1.822903
H    -2.863895  1.614958  -0.926298
H    -1.968891  3.082468  -0.703088
H    -4.238656  2.507560  1.276133
H    -4.688500  2.923502  -0.350553
H    -2.801386  4.736080  1.282059
H    -4.569037  4.805501  1.438389
H    -3.742732  6.434350  -0.115628
H    -4.736405  5.367175  -0.903288
H    -3.091113  5.283444  -1.114616
N    -2.570408  -1.281654  -0.654534
C    -2.277025  -2.275035  -1.683126
H    -3.549063  -1.101827  -0.438275
H    -1.252588  -2.132027  -2.044400
H    -2.368698  -3.297553  -1.280001
H    -3.008092  -2.163902  -2.493405
Hg    1.171405  -1.774295  5.514473
