35
Energy: -571611.0006645  eV PBE+vdW (tier 2 basis)
C    1.576152  -1.732346  1.286785
C    0.777353  -1.670934  2.545899
O    1.052396  -2.356398  3.593009
H    1.167668  -1.102520  0.489433
H    1.614913  -2.771748  0.929137
H    2.605847  -1.397467  1.494329
N    -0.309866  -0.887148  2.585082
C    -1.287685  -0.838707  3.670511
C    -2.647782  -1.276777  3.045086
O    -2.862012  -0.913178  1.885567
H    -0.637879  -0.514937  1.688917
H    -0.959469  -1.544080  4.443707
C    -1.478150  0.584568  4.284028
C    -1.812738  1.712581  3.293905
C    -2.453123  2.981936  3.899317
C    -1.488702  3.884005  4.672649
N    -2.165345  5.189379  5.072310
H    -0.546946  0.799809  4.832414
H    -2.269785  0.491254  5.043570
H    -2.538240  1.336417  2.551489
H    -0.920207  1.990356  2.711550
H    -3.301265  2.698841  4.542897
H    -2.876281  3.555879  3.060105
H    -0.619557  4.171225  4.067223
H    -1.130058  3.433405  5.606449
H    -2.985224  5.031475  5.677499
H    -2.493131  5.716667  4.248310
H    -1.519821  5.805913  5.589532
N    -3.564626  -1.971217  3.757591
C    -3.436864  -2.633054  5.042280
H    -4.402180  -2.198044  3.210524
H    -2.641590  -2.193611  5.649558
H    -3.258060  -3.713853  4.911021
H    -4.395744  -2.534291  5.574379
Hg    3.066661  -3.390148  3.914334
