35
Energy: -571610.9785710  eV PBE+vdW (tier 2 basis)
C    1.662280  1.192970  1.933118
C    1.001648  1.322373  3.255292
O    1.732067  1.641743  4.261043
H    2.577286  0.591663  2.066178
H    2.008644  2.177146  1.580964
H    1.021296  0.708251  1.189629
N    -0.317027  1.079755  3.451997
C    -1.431247  1.628366  2.669073
C    -1.713748  3.035287  3.262575
O    -1.427250  3.316419  4.489472
H    -0.562557  0.926716  4.433015
H    -1.099182  1.735136  1.626836
C    -2.677726  0.706424  2.748111
C    -2.438757  -0.661550  2.079329
C    -3.513781  -1.744797  2.332248
C    -4.807571  -1.570896  1.533694
N    -5.709470  -2.790436  1.680154
H    -3.523334  1.234877  2.285189
H    -2.945037  0.579179  3.810230
H    -1.492447  -1.076188  2.455541
H    -2.297994  -0.526707  0.995074
H    -3.739890  -1.804752  3.408797
H    -3.058180  -2.708906  2.057249
H    -4.615078  -1.470811  0.457804
H    -5.408704  -0.714039  1.861874
H    -6.582565  -2.680453  1.141460
H    -5.977247  -2.960208  2.661481
H    -5.249051  -3.648014  1.337765
N    -2.328980  3.974097  2.561886
C    -2.956743  3.905094  1.244851
H    -2.442362  4.861748  3.064373
H    -2.661672  4.798838  0.678035
H    -4.051269  3.919489  1.351946
H    -2.646420  3.010894  0.698903
Hg    0.584240  3.077781  5.530600
