35
Energy: -571610.8471592  eV PBE+vdW (tier 2 basis)
C    -0.114101  1.611655  -0.049407
C    -0.200013  0.629753  1.070931
O    0.817802  -0.006352  1.538999
H    0.531996  2.452136  0.252383
H    -1.090326  2.018479  -0.333778
H    0.331196  1.125046  -0.929828
N    -1.387581  0.358054  1.611399
C    -1.659177  -0.678078  2.616392
C    -2.888107  -1.452012  2.073702
O    -3.720635  -0.798779  1.435189
H    -2.222108  0.719497  1.136951
H    -0.774762  -1.324178  2.678719
C    -1.985102  -0.104596  4.030100
C    -3.107623  0.944119  4.126924
C    -3.246562  1.542898  5.551535
C    -4.223362  0.864350  6.517611
N    -5.638541  1.431439  6.423831
H    -1.044282  0.338112  4.393985
H    -2.186790  -0.964936  4.687151
H    -4.065857  0.520066  3.782717
H    -2.889895  1.772873  3.439066
H    -3.501548  2.611014  5.473844
H    -2.265140  1.536808  6.047246
H    -3.923338  1.023527  7.559887
H    -4.317814  -0.216571  6.354895
H    -6.047541  1.334783  5.483828
H    -5.654143  2.434750  6.663045
H    -6.273814  0.956685  7.083993
N    -3.063127  -2.771257  2.324930
C    -2.135980  -3.738104  2.880287
H    -3.912680  -3.149971  1.892871
H    -2.706615  -4.455224  3.490075
H    -1.371419  -3.262179  3.499558
H    -1.654846  -4.322724  2.076212
Hg    2.947109  0.525682  1.012661
