35
Energy: -571611.0621369  eV PBE+vdW (tier 2 basis)
C    0.106551  0.183234  0.067906
C    -0.181385  0.088049  1.521085
O    0.657946  -0.352359  2.373837
H    0.846771  0.985785  -0.089688
H    -0.768433  0.404342  -0.548892
H    0.559779  -0.755028  -0.278678
N    -1.376925  0.410155  2.081818
C    -2.698283  0.508435  1.482705
C    -3.278655  1.883694  2.083757
O    -3.813245  1.828842  3.179558
H    -1.369112  0.337085  3.106759
H    -2.603307  0.601386  0.395257
C    -3.618440  -0.668326  1.872650
C    -5.037798  -0.593585  1.280840
C    -5.910677  -1.778548  1.750738
C    -7.326426  -1.691018  1.178524
N    -8.203545  -2.839654  1.657872
H    -3.671069  -0.717392  2.970251
H    -3.114830  -1.583637  1.523819
H    -4.985849  -0.588336  0.180809
H    -5.522483  0.345745  1.586756
H    -5.955951  -1.780384  2.851520
H    -5.443522  -2.727883  1.443809
H    -7.336076  -1.741864  0.082559
H    -7.841046  -0.772223  1.486607
H    -9.154122  -2.770686  1.262711
H    -8.302134  -2.847117  2.684153
H    -7.825472  -3.757275  1.378860
N    -3.144243  3.020075  1.362288
C    -2.706501  3.209853  -0.014441
H    -3.641215  3.809825  1.785553
H    -2.449170  4.270229  -0.133637
H    -3.508004  2.984261  -0.735326
H    -1.817563  2.613478  -0.239408
Hg    2.935093  -0.123907  2.396485
