35
Energy: -571610.9792048  eV PBE+vdW (tier 2 basis)
C    0.027908  1.326279  -1.314134
C    -0.288829  0.850107  0.064808
O    0.391549  -0.059225  0.677201
H    0.015718  0.472894  -2.008324
H    1.035063  1.774429  -1.321194
H    -0.679835  2.079267  -1.677005
N    -1.340907  1.356762  0.701823
C    -1.860082  0.939305  2.013748
C    -3.365605  0.644562  1.755424
O    -3.952927  1.442997  1.016965
H    -1.968004  1.972473  0.173052
H    -1.308889  0.042371  2.325060
C    -1.715600  2.097627  3.042598
C    -2.279223  1.783492  4.439432
C    -2.020075  2.867407  5.513205
C    -2.909901  4.106472  5.392687
N    -2.723338  5.034843  6.586317
H    -2.196468  2.988046  2.609430
H    -0.639533  2.318078  3.111597
H    -1.818160  0.858167  4.814886
H    -3.361835  1.586465  4.385268
H    -0.958511  3.161194  5.498293
H    -2.199008  2.397141  6.492559
H    -3.976182  3.847182  5.380966
H    -2.691579  4.713680  4.505836
H    -2.963345  4.567934  7.474272
H    -1.750921  5.366997  6.670855
H    -3.324734  5.869722  6.510890
N    -4.014326  -0.405164  2.311279
C    -3.513808  -1.499908  3.115863
H    -5.001012  -0.453922  2.034312
H    -3.566997  -2.442382  2.543113
H    -4.167233  -1.629277  3.993445
H    -2.487255  -1.328289  3.446205
Hg    2.374076  -0.799986  -0.094566
