35
Energy: -571611.2773642  eV PBE+vdW (tier 2 basis)
C    0.622659  -0.366442  0.269095
C    0.353495  -0.080713  1.712779
O    1.282405  0.553724  2.323435
H    1.399986  -1.144773  0.208482
H    1.044246  0.528704  -0.208634
H    -0.270767  -0.694517  -0.274157
N    -0.806900  -0.501335  2.249340
C    -1.433264  -0.171852  3.549612
C    -0.955037  -1.133898  4.678466
O    0.042301  -0.823692  5.439622
H    -1.381965  -1.056617  1.618012
H    -1.075955  0.826529  3.851862
C    -2.976274  -0.105243  3.441102
C    -3.631866  1.137990  2.787162
C    -3.693759  1.185718  1.244103
C    -4.940011  1.854491  0.651295
N    -5.032880  3.362000  0.869911
H    -3.350638  -0.141044  4.474347
H    -3.354180  -1.017641  2.946815
H    -3.164785  2.048756  3.193424
H    -4.661687  1.135648  3.176746
H    -3.746428  0.160951  0.842665
H    -2.784678  1.630723  0.810382
H    -5.862319  1.435655  1.074017
H    -4.972428  1.715844  -0.436040
H    -5.889777  3.733978  0.429287
H    -4.239435  3.866441  0.447867
H    -5.077155  3.620158  1.865899
N    -1.582780  -2.265496  4.910676
C    -1.217371  -3.248395  5.943538
H    -2.447015  -2.445178  4.400440
H    -1.762399  -3.028980  6.872344
H    -0.141987  -3.199904  6.136189
H    -1.501240  -4.242940  5.584665
Hg    1.507519  0.466116  4.494667
