35
Energy: -571610.7115914  eV PBE+vdW (tier 2 basis)
C    0.605591  -1.017665  0.475638
C    0.104956  0.021051  1.425093
O    0.678525  1.135345  1.612480
H    0.714953  -0.576183  -0.525141
H    -0.040484  -1.899423  0.409602
H    1.601671  -1.350541  0.813110
N    -1.055035  -0.224269  2.091369
C    -1.743175  0.696180  2.994573
C    -2.397869  -0.166976  4.121079
O    -3.613159  -0.188418  4.280603
H    -1.575878  -1.035083  1.755117
H    -0.969836  1.332061  3.450205
C    -2.773569  1.636930  2.324932
C    -3.949866  0.985464  1.589901
C    -4.948588  2.009263  0.997002
C    -5.965981  2.651785  1.945021
N    -7.242252  1.828432  2.098981
H    -3.127727  2.312909  3.117504
H    -2.195765  2.267132  1.628622
H    -4.474478  0.289411  2.272185
H    -3.580663  0.364177  0.759587
H    -5.480593  1.543715  0.152851
H    -4.382184  2.837431  0.545077
H    -5.581178  2.806053  2.960739
H    -6.298335  3.622941  1.560160
H    -7.909630  2.297162  2.731231
H    -7.721842  1.707664  1.193819
H    -7.068656  0.889389  2.483644
N    -1.602727  -0.911981  4.957175
C    -0.210927  -0.728196  5.312864
H    -2.162865  -1.435770  5.640422
H    0.239959  -1.723755  5.461014
H    -0.125624  -0.200031  6.278572
H    0.339793  -0.185991  4.541685
Hg    2.923055  1.578988  1.107677
