35
Energy: -571610.9784303  eV PBE+vdW (tier 2 basis)
C    0.261218  0.833856  0.406223
C    0.180676  0.315316  1.795656
O    1.208656  -0.051639  2.453872
H    0.779384  1.809859  0.454211
H    -0.704292  0.986474  -0.075698
H    0.862899  0.155215  -0.210478
N    -0.966137  0.208777  2.534394
C    -2.300495  -0.189377  2.112186
C    -2.224323  -1.513310  1.232816
O    -1.328026  -1.618912  0.407562
H    -0.753027  -0.023481  3.508825
H    -2.816283  -0.437966  3.049919
C    -3.153132  0.862581  1.341153
C    -3.435804  2.116392  2.192790
C    -4.308025  3.196929  1.509397
C    -5.809050  2.897891  1.512890
N    -6.610812  4.087438  0.999834
H    -4.087658  0.352609  1.064155
H    -2.666962  1.133541  0.395104
H    -2.477709  2.589648  2.450989
H    -3.894568  1.827932  3.151891
H    -3.958314  3.371397  0.479521
H    -4.134487  4.134715  2.060855
H    -6.183701  2.700926  2.525417
H    -6.084882  2.053543  0.869399
H    -6.360005  4.337074  0.031366
H    -6.461282  4.927380  1.579757
H    -7.623481  3.889832  1.010090
N    -3.186599  -2.433940  1.448035
C    -3.193733  -3.732394  0.785444
H    -3.821877  -2.304721  2.234074
H    -2.622726  -4.477608  1.365231
H    -2.735486  -3.636693  -0.205454
H    -4.232024  -4.081910  0.720797
Hg    3.343491  0.699460  2.180224
