35
Energy: -571610.9257686  eV PBE+vdW (tier 2 basis)
C    1.483432  -0.981838  1.139343
C    0.758811  -0.553379  2.364959
O    1.360565  -0.000087  3.356309
H    2.242853  -1.735771  1.396495
H    2.033829  -0.116161  0.740194
H    0.833243  -1.393069  0.360044
N    -0.575126  -0.705359  2.435846
C    -1.460568  -0.345521  3.543329
C    -0.862490  -0.729734  4.915820
O    -0.102396  -1.758241  5.028309
H    -1.023348  -1.118541  1.619355
H    -1.564072  0.753922  3.544836
C    -2.869306  -0.995285  3.378827
C    -3.935571  -0.207828  2.581508
C    -3.816757  -0.224681  1.046224
C    -4.913916  0.535369  0.289867
N    -6.265643  -0.171911  0.263601
H    -2.739247  -2.015751  2.984591
H    -3.272940  -1.141321  4.390175
H    -3.962959  0.834697  2.936932
H    -4.898300  -0.648421  2.884783
H    -3.758059  -1.260187  0.670729
H    -2.884677  0.268427  0.726779
H    -5.101428  1.528439  0.717674
H    -4.636822  0.666615  -0.762702
H    -6.946431  0.376161  -0.286294
H    -6.206424  -1.101963  -0.177690
H    -6.673906  -0.296360  1.200657
N    -1.215472  -0.045069  5.994856
C    -2.121481  1.092684  6.134848
H    -0.816132  -0.406993  6.866165
H    -2.126120  1.707409  5.227165
H    -1.787001  1.702223  6.981020
H    -3.144510  0.743257  6.341534
Hg    2.117119  -1.406189  4.920547
