35
Energy: -571611.4216956  eV PBE+vdW (tier 2 basis)
C    -0.200963  1.653224  2.637804
C    -0.515535  0.402016  1.881746
O    0.106069  0.287005  0.762007
H    0.826197  1.578882  3.028918
H    -0.902402  1.846303  3.457420
H    -0.206139  2.504631  1.941882
N    -1.378638  -0.476777  2.421099
C    -2.202672  -1.610870  1.880400
C    -1.436371  -2.960603  1.839505
O    -0.662016  -3.320360  0.869675
H    -1.679167  -0.190966  3.351586
H    -2.966113  -1.732442  2.661564
C    -2.959850  -1.263199  0.575254
C    -4.205620  -2.138180  0.314714
C    -4.896093  -1.743825  -1.009008
C    -6.078034  -2.608597  -1.462533
N    -7.421712  -2.212126  -0.855994
H    -2.294596  -1.319825  -0.303712
H    -3.256385  -0.207012  0.652372
H    -4.895994  -2.031518  1.167724
H    -3.921997  -3.201640  0.267853
H    -4.162310  -1.819882  -1.825662
H    -5.191792  -0.682008  -0.991975
H    -5.940619  -3.672043  -1.229868
H    -6.220760  -2.517347  -2.545642
H    -8.175441  -2.813486  -1.225487
H    -7.674023  -1.240723  -1.093223
H    -7.446172  -2.299113  0.169167
N    -1.635692  -3.816284  2.821095
C    -0.984029  -5.126294  2.959728
H    -2.328140  -3.576696  3.530391
H    -0.839242  -5.324967  4.027040
H    -0.024623  -5.119219  2.435291
H    -1.625544  -5.909491  2.532585
Hg    0.348653  -1.667190  -0.083461
