35
Energy: -571610.8645118  eV PBE+vdW (tier 2 basis)
C    0.006629  -1.080517  0.182627
C    -0.274404  -0.505510  1.536272
O    0.465014  -0.550057  2.495816
H    1.088247  -1.165333  0.035491
H    -0.451372  -0.508032  -0.633005
H    -0.413076  -2.101797  0.167682
N    -1.546057  0.163853  1.689068
C    -1.913898  0.824074  2.891911
C    -3.292872  0.177139  3.444107
O    -3.747499  0.767226  4.458396
H    -1.959072  0.511830  0.818424
H    -1.185360  0.538418  3.666208
C    -2.051911  2.362152  2.783497
C    -0.732878  3.115117  2.497025
C    0.261178  3.175748  3.672124
C    1.581023  3.901480  3.394609
N    1.462355  5.422898  3.346711
H    -2.495693  2.712451  3.727166
H    -2.778992  2.602991  1.992875
H    -1.042820  4.129658  2.199367
H    -0.234619  2.693535  1.609629
H    0.567336  2.159948  3.966718
H    -0.219687  3.606552  4.565704
H    2.030233  3.604681  2.438369
H    2.307669  3.694848  4.189115
H    2.387901  5.852497  3.190630
H    1.101231  5.805968  4.233009
H    0.848602  5.754971  2.589810
N    -3.762719  -0.892152  2.837555
C    -4.948350  -1.666078  3.207895
H    -3.193220  -1.228733  2.059506
H    -5.021673  -2.520847  2.524662
H    -5.861533  -1.067099  3.094758
H    -4.851311  -2.081155  4.224202
Hg    -5.515287  0.259726  5.865893
