35
Energy: -571610.6615051  eV PBE+vdW (tier 2 basis)
C    0.302387  -0.806627  0.148545
C    -0.096702  -0.418964  1.523156
O    0.659002  -0.610681  2.536147
H    0.623569  -1.855863  0.137622
H    1.170153  -0.178895  -0.126263
H    -0.476876  -0.668671  -0.598012
N    -1.262056  0.194800  1.880317
C    -2.635658  0.070594  1.390789
C    -3.017225  -1.428354  1.126804
O    -2.194861  -2.162952  0.587103
H    -1.216464  0.500405  2.856452
H    -3.229703  0.414884  2.246197
C    -3.086254  0.970076  0.185471
C    -2.609077  0.664027  -1.241055
C    -3.502283  1.251334  -2.363081
C    -3.436970  2.773538  -2.506145
N    -4.218582  3.243473  -3.726843
H    -2.823643  1.995961  0.483716
H    -4.185949  0.912246  0.215609
H    -2.600416  -0.424234  -1.408480
H    -1.576686  1.014347  -1.385928
H    -4.545238  0.933255  -2.205257
H    -3.174929  0.789588  -3.307383
H    -2.409600  3.130197  -2.653718
H    -3.870109  3.307500  -1.651365
H    -3.848198  2.835736  -4.599065
H    -4.174723  4.269276  -3.829262
H    -5.215790  2.986697  -3.671115
N    -4.249747  -1.858637  1.486507
C    -5.251863  -1.217973  2.326149
H    -4.377095  -2.861252  1.317903
H    -6.217299  -1.700046  2.122669
H    -5.341528  -0.147960  2.114448
H    -5.035626  -1.370301  3.397632
Hg    2.923962  -0.747359  2.546318
