35
Energy: -571611.0272671  eV PBE+vdW (tier 2 basis)
C    1.276099  0.096401  1.013376
C    0.492777  -0.274216  2.216531
O    1.007954  -0.721621  3.292053
H    0.656895  0.370152  0.154906
H    1.902617  -0.763461  0.727307
H    1.964961  0.918476  1.258613
N    -0.859809  -0.141859  2.315120
C    -1.788039  0.761692  1.622238
C    -2.126074  0.068752  0.224557
O    -1.574871  0.459181  -0.791150
H    -1.228635  -0.585633  3.162571
H    -2.700604  0.743866  2.234947
C    -1.323851  2.220585  1.452927
C    -2.457995  3.194099  1.069930
C    -1.959161  4.654743  1.107303
C    -3.019282  5.750680  0.981938
N    -3.473780  6.024146  -0.449805
H    -0.900369  2.528727  2.421386
H    -0.521821  2.271687  0.704791
H    -3.291986  3.084085  1.781621
H    -2.846238  2.934690  0.072321
H    -1.161094  4.815469  0.364167
H    -1.483463  4.840170  2.082513
H    -3.929491  5.525957  1.552132
H    -2.622571  6.707435  1.341573
H    -4.163872  6.791259  -0.470561
H    -2.685883  6.313542  -1.048257
H    -3.918116  5.208124  -0.891605
N    -3.014924  -0.953475  0.277899
C    -3.526720  -1.607557  -0.916623
H    -3.507426  -1.126799  1.153570
H    -4.423216  -1.094762  -1.306300
H    -3.822090  -2.630818  -0.649558
H    -2.755445  -1.592458  -1.695878
Hg    2.850603  -2.084048  3.561300
