35
Energy: -571610.9976659  eV PBE+vdW (tier 2 basis)
C    0.733731  0.532013  0.125827
C    0.337346  0.244501  1.525752
O    1.270993  0.032897  2.382842
H    1.296151  1.476096  0.068271
H    -0.119486  0.528606  -0.560317
H    1.443090  -0.252830  -0.189809
N    -0.951053  0.145585  1.930477
C    -2.040900  1.100450  1.680682
C    -1.808454  2.253895  2.692827
O    -1.323878  2.012118  3.866552
H    -1.065019  -0.361221  2.811665
H    -1.950683  1.474497  0.652605
C    -3.389249  0.353368  1.881221
C    -4.679413  1.079686  1.461121
C    -5.902736  0.140868  1.581424
C    -7.196045  0.823328  1.130553
N    -8.393423  -0.112717  1.223146
H    -3.460185  0.050862  2.938978
H    -3.289607  -0.573010  1.295158
H    -4.592606  1.423547  0.418566
H    -4.844647  1.971752  2.084727
H    -6.005346  -0.197336  2.624835
H    -5.727884  -0.757379  0.967818
H    -7.149709  1.147313  0.083235
H    -7.446232  1.693017  1.750871
H    -9.257720  0.359277  0.914148
H    -8.556505  -0.439925  2.187372
H    -8.278281  -0.948902  0.630626
N    -2.138930  3.507839  2.430272
C    -2.829343  4.092185  1.283150
H    -1.900967  4.162211  3.184263
H    -2.233427  4.941377  0.920118
H    -3.809092  4.477709  1.596830
H    -2.957972  3.365047  0.479171
Hg    0.671863  1.002768  4.299328
