35
Energy: -571610.8315092  eV PBE+vdW (tier 2 basis)
C    -2.122600  -1.486503  -0.311173
C    -1.905795  -1.436452  1.161494
O    -2.122201  -2.348108  1.947917
H    -2.586123  -2.438152  -0.587980
H    -1.137290  -1.412739  -0.805531
H    -2.738872  -0.648642  -0.665931
N    -1.393001  -0.234108  1.715835
C    -1.151230  -0.134382  3.098858
C    -2.545446  0.187741  3.919380
O    -3.006905  1.326373  3.665321
H    -1.354385  0.601573  1.127688
H    -0.993934  -1.184117  3.432278
C    -0.004271  0.823280  3.458960
C    0.349536  0.868882  4.959355
C    1.810767  1.267447  5.279119
C    2.163533  2.732536  5.016191
N    3.575323  3.046218  5.496284
H    -0.213140  1.827989  3.062177
H    0.854210  0.435543  2.886351
H    0.218498  -0.132676  5.395050
H    -0.342695  1.531976  5.500090
H    2.496770  0.610717  4.720432
H    1.972004  1.048659  6.346298
H    1.502906  3.420925  5.558433
H    2.145037  2.997997  3.951940
H    3.822112  4.032889  5.322412
H    4.284218  2.467926  5.019888
H    3.680831  2.881930  6.509365
N    -3.055117  -0.734815  4.702261
C    -2.572073  -2.071877  5.100091
H    -3.971893  -0.491094  5.092131
H    -2.907133  -2.244555  6.129015
H    -1.480010  -2.120721  5.087894
H    -2.993170  -2.838505  4.439831
Hg    -5.128610  2.232456  4.229627
