35
Energy: -571611.4219389  eV PBE+vdW (tier 2 basis)
C    0.472448  0.270623  0.222433
C    0.181396  0.033747  1.670088
O    1.083008  -0.641944  2.289755
H    1.284986  1.010385  0.143493
H    -0.403516  0.613414  -0.339793
H    0.855510  -0.658348  -0.223762
N    -0.949091  0.542402  2.191482
C    -1.764726  0.256069  3.420405
C    -1.285659  1.034001  4.675751
O    -0.335613  0.630871  5.453542
H    -1.460216  1.104413  1.512742
H    -2.736600  0.696983  3.158091
C    -2.018190  -1.252630  3.661427
C    -3.254290  -1.552997  4.537592
C    -3.443731  -3.072912  4.733756
C    -4.561428  -3.517687  5.684246
N    -5.943042  -3.602021  5.040429
H    -1.136221  -1.743667  4.107897
H    -2.141998  -1.714410  2.671013
H    -4.141193  -1.102799  4.061805
H    -3.147074  -1.075200  5.524389
H    -2.522825  -3.490809  5.167881
H    -3.553878  -3.579837  3.761082
H    -4.669737  -2.855728  6.552583
H    -4.362165  -4.529640  6.055915
H    -5.956109  -4.269923  4.254768
H    -6.282086  -2.697226  4.686276
H    -6.640078  -3.935561  5.725394
N    -1.930668  2.134763  5.003952
C    -1.616652  3.005620  6.144968
H    -2.744359  2.394993  4.446873
H    -2.276984  2.763628  6.989126
H    -1.791102  4.043849  5.842088
H    -0.575860  2.861124  6.445959
Hg    1.203614  -0.476881  4.422385
