35
Energy: -571610.8069481  eV PBE+vdW (tier 2 basis)
C    0.984356  -1.608594  1.183899
C    0.640201  -0.903507  2.453344
O    1.344836  -0.987540  3.524088
H    1.048135  -2.690238  1.374641
H    1.966817  -1.259466  0.827113
H    0.250376  -1.438876  0.389191
N    -0.475090  -0.167691  2.511186
C    -1.031669  0.432045  3.728924
C    -2.511385  -0.024570  3.768940
O    -3.075019  -0.183713  2.679671
H    -1.145817  -0.262983  1.740933
H    -0.463853  0.036543  4.580171
C    -0.976923  1.993385  3.769268
C    -1.836811  2.808992  2.771862
C    -1.082265  3.338452  1.539023
C    -1.918049  4.150448  0.544646
N    -2.244577  5.564246  1.018750
H    0.085963  2.264029  3.678597
H    -1.265484  2.263511  4.794411
H    -2.262670  3.649084  3.341432
H    -2.706517  2.217837  2.438734
H    -0.677541  2.499180  0.952635
H    -0.200822  3.924257  1.847839
H    -2.882916  3.677410  0.321670
H    -1.377308  4.282210  -0.399866
H    -1.391225  6.113250  1.201717
H    -2.813363  5.577774  1.876785
H    -2.779809  6.073466  0.297909
N    -3.177665  -0.187299  4.936724
C    -2.677456  -0.215671  6.295269
H    -4.151255  -0.481852  4.801983
H    -3.388855  0.325838  6.940154
H    -1.688285  0.240602  6.378111
H    -2.644219  -1.253211  6.672971
Hg    3.435024  -1.871284  3.590597
