35
Energy: -571611.1716645  eV PBE+vdW (tier 2 basis)
C    1.717756  -2.803075  1.706350
C    0.551179  -2.502453  2.585581
O    0.245717  -3.189287  3.613408
H    1.659739  -3.845707  1.362883
H    2.645550  -2.686693  2.291794
H    1.782820  -2.144814  0.833464
N    -0.255036  -1.466308  2.260742
C    -1.492614  -1.132495  2.935904
C    -2.695653  -1.642889  2.049979
O    -2.680836  -1.349551  0.857329
H    -0.116638  -1.068528  1.329422
H    -1.496108  -1.676347  3.891716
C    -1.695616  0.392749  3.175204
C    -1.583729  1.306289  1.946899
C    -2.233590  2.701685  2.076178
C    -1.465307  3.687890  2.959948
N    -2.079426  5.080076  2.885665
H    -0.955651  0.667478  3.945744
H    -2.684714  0.500709  3.645914
H    -2.093068  0.813608  1.096785
H    -0.532681  1.415953  1.633616
H    -3.267274  2.595334  2.441694
H    -2.302203  3.117369  1.058790
H    -0.422575  3.803466  2.637968
H    -1.474003  3.412032  4.021742
H    -2.064112  5.453340  1.923942
H    -3.061883  5.087852  3.199015
H    -1.565907  5.750173  3.478777
N    -3.676175  -2.336846  2.659984
C    -4.782570  -2.941534  1.930120
H    -3.559495  -2.588183  3.640672
H    -5.654907  -2.979831  2.595313
H    -4.545065  -3.974723  1.624733
H    -4.981410  -2.353607  1.025899
Hg    1.784927  -4.513938  4.759471
