35
Energy: -571611.2038807  eV PBE+vdW (tier 2 basis)
C    0.603492  -0.361479  0.708846
C    0.048141  0.305138  1.911068
O    0.698109  1.129598  2.632311
H    0.838611  0.392662  -0.057076
H    1.558241  -0.837053  0.982614
H    -0.056174  -1.127858  0.292564
N    -1.229812  0.138506  2.353403
C    -2.451465  -0.256446  1.645048
C    -2.449606  -1.857394  1.616947
O    -2.001571  -2.436790  0.641841
H    -1.375103  0.560802  3.276071
H    -3.270474  0.065121  2.303740
C    -2.673303  0.338869  0.242371
C    -4.116410  0.133521  -0.257895
C    -4.359568  0.790244  -1.634122
C    -5.804846  0.586471  -2.093289
N    -6.071171  1.231327  -3.446560
H    -1.964579  -0.104402  -0.469134
H    -2.453990  1.415339  0.314380
H    -4.821897  0.557326  0.474528
H    -4.336304  -0.942773  -0.330295
H    -3.668981  0.358202  -2.375728
H    -4.138288  1.867829  -1.572554
H    -6.526321  1.036040  -1.399581
H    -6.055410  -0.475101  -2.212278
H    -7.049793  1.086126  -3.739480
H    -5.472244  0.837344  -4.187336
H    -5.908744  2.249198  -3.428446
N    -2.945412  -2.462408  2.721493
C    -3.152279  -3.901743  2.794729
H    -3.389506  -1.887246  3.436124
H    -3.113999  -4.201258  3.850092
H    -2.384834  -4.406839  2.195822
H    -4.142543  -4.188872  2.401315
Hg    2.942907  1.126405  3.173520
