35
Energy: -571610.9010439  eV PBE+vdW (tier 2 basis)
C    -0.633182  0.621457  0.032351
C    -0.168005  0.291136  1.405469
O    1.051991  0.447331  1.782511
H    -1.636552  0.256082  -0.201712
H    0.074208  0.218716  -0.704325
H    -0.643574  1.719328  -0.079106
N    -0.956440  -0.234541  2.355777
C    -2.291525  -0.799551  2.241537
C    -2.926109  -0.562150  3.652886
O    -2.197133  -0.654495  4.637935
H    -0.539387  -0.326310  3.292457
H    -2.838480  -0.259403  1.461188
C    -2.356812  -2.327564  1.915720
C    -1.671701  -3.303975  2.884875
C    -1.851528  -4.760714  2.398765
C    -1.077884  -5.843126  3.154618
N    -1.739251  -6.296625  4.453889
H    -1.928229  -2.433404  0.905309
H    -3.423615  -2.579236  1.812113
H    -2.080836  -3.176862  3.901030
H    -0.596441  -3.077219  2.954812
H    -1.496065  -4.834091  1.359623
H    -2.920342  -5.026803  2.351020
H    -0.061979  -5.528873  3.424921
H    -1.000248  -6.750467  2.543929
H    -1.188045  -7.047640  4.898330
H    -2.682032  -6.678229  4.285213
H    -1.826867  -5.539658  5.145423
N    -4.251000  -0.285596  3.751238
C    -5.225752  0.000819  2.714525
H    -4.528887  -0.052894  4.710543
H    -5.287656  1.085071  2.514807
H    -6.214325  -0.309250  3.082429
H    -5.002208  -0.532057  1.785581
Hg    2.452535  2.082730  1.131867
