35
Energy: -571610.8675430  eV PBE+vdW (tier 2 basis)
C    -0.908488  0.338431  -0.988453
C    -0.289683  0.267641  0.360792
O    0.922392  0.576281  0.605099
H    -1.859989  -0.195989  -1.062620
H    -0.218997  -0.080633  -1.734802
H    -1.065570  1.397082  -1.251092
N    -0.998648  -0.069528  1.468730
C    -2.425687  0.094017  1.665836
C    -2.815453  1.639325  1.694370
O    -1.959636  2.450759  2.017491
H    -0.429184  -0.035064  2.320183
H    -2.944489  -0.366425  0.812556
C    -2.867463  -0.526758  3.018267
C    -2.788064  -2.067625  3.040640
C    -3.012338  -2.719630  4.425831
C    -4.464994  -2.734989  4.906029
N    -4.609462  -3.544224  6.188852
H    -3.891042  -0.182484  3.222485
H    -2.241899  -0.089153  3.813397
H    -1.788993  -2.381897  2.705562
H    -3.494582  -2.492557  2.310616
H    -2.372588  -2.229198  5.176732
H    -2.656703  -3.758962  4.343270
H    -5.133691  -3.209426  4.176529
H    -4.854832  -1.736685  5.139693
H    -4.314851  -4.524134  6.057697
H    -5.588654  -3.563584  6.513352
H    -4.042409  -3.156204  6.957856
N    -4.085150  2.000215  1.380793
C    -5.162456  1.224010  0.793317
H    -4.220904  3.015703  1.408503
H    -5.244073  1.418142  -0.288863
H    -6.109876  1.551128  1.248452
H    -5.041757  0.152289  0.970264
Hg    2.720333  0.475378  -0.791888
