35
Energy: -571611.2338494  eV PBE+vdW (tier 2 basis)
C    0.108713  -0.095574  -0.383279
C    -0.010252  -0.021318  1.105287
O    1.100372  -0.105779  1.739323
H    0.490640  -1.089219  -0.661732
H    0.857636  0.635870  -0.721177
H    -0.843655  0.097740  -0.891348
N    -1.230322  0.121392  1.655103
C    -1.596516  0.498125  3.036089
C    -1.633165  -0.726455  3.993015
O    -0.671687  -0.869834  4.850550
H    -1.988929  0.156058  0.974954
H    -0.778099  1.119870  3.434914
C    -2.869335  1.384045  2.995968
C    -3.395492  1.946232  4.338556
C    -2.664283  3.203962  4.849247
C    -3.221688  3.832582  6.132278
N    -4.474266  4.678977  5.921270
H    -3.677782  0.822606  2.510166
H    -2.633389  2.218366  2.317355
H    -3.389186  1.169087  5.119820
H    -4.458054  2.173873  4.163835
H    -2.613836  3.966977  4.055123
H    -1.616366  2.966343  5.087628
H    -2.487667  4.515881  6.575090
H    -3.486742  3.083375  6.889063
H    -4.779023  5.099793  6.813709
H    -5.273008  4.138575  5.560605
H    -4.304574  5.458627  5.267816
N    -2.593464  -1.628691  4.030379
C    -3.857669  -1.730691  3.292036
H    -2.428650  -2.365671  4.724435
H    -4.145464  -2.787698  3.282531
H    -3.741989  -1.395260  2.258016
H    -4.652287  -1.163396  3.794708
Hg    1.254440  -0.478514  3.877223
