35
Energy: -571610.8551761  eV PBE+vdW (tier 2 basis)
C    0.125633  0.278200  0.482753
C    -0.249284  -0.672686  1.572065
O    0.583195  -1.408048  2.178718
H    -0.715941  0.870214  0.107824
H    0.536654  -0.300778  -0.361592
H    0.911059  0.957140  0.843750
N    -1.553041  -0.714620  1.962865
C    -2.107771  -1.507901  3.055056
C    -3.523042  -1.992734  2.587354
O    -4.539889  -1.628206  3.165108
H    -2.132846  0.036964  1.586975
H    -1.459325  -2.387131  3.176451
C    -2.188358  -0.791349  4.425315
C    -2.984486  0.516869  4.460350
C    -3.225241  1.113577  5.867407
C    -4.348156  0.431691  6.653324
N    -4.634777  1.169007  7.954816
H    -1.146196  -0.616154  4.739020
H    -2.598441  -1.531767  5.127295
H    -3.967050  0.370030  3.971186
H    -2.466830  1.285678  3.866295
H    -3.483098  2.174605  5.729116
H    -2.287535  1.087632  6.445913
H    -4.112507  -0.600276  6.939985
H    -5.293200  0.428673  6.095760
H    -3.811756  1.196459  8.575321
H    -5.397747  0.716434  8.481526
H    -4.921661  2.145305  7.785677
N    -3.629518  -2.842701  1.514849
C    -2.654305  -3.763648  0.968364
H    -4.610004  -3.074578  1.315104
H    -2.825037  -4.783195  1.355388
H    -1.630893  -3.449847  1.183866
H    -2.804894  -3.813661  -0.122800
Hg    2.692215  -2.013716  1.330543
