35
Energy: -571611.1146274  eV PBE+vdW (tier 2 basis)
C    -0.606013  -0.089559  -0.383326
C    -0.667102  0.549194  0.966846
O    -0.122425  1.605468  1.271511
H    -1.563996  0.103709  -0.898101
H    -0.469966  -1.177803  -0.340424
H    0.195142  0.374348  -0.966439
N    -1.427829  -0.138505  1.942452
C    -1.475842  0.162327  3.329172
C    -2.326119  1.536192  3.598935
O    -3.308309  1.275578  4.346079
H    -1.915914  -0.980825  1.632947
H    -2.072632  -0.619577  3.814185
C    -0.123174  0.316336  4.107198
C    0.601572  -1.030514  4.305503
C    1.830392  -0.834308  5.225770
C    2.502952  -2.102696  5.760705
N    3.479325  -2.763100  4.791134
H    -0.364499  0.746595  5.090027
H    0.508454  1.042840  3.578906
H    0.891047  -1.440835  3.325085
H    -0.081114  -1.759048  4.770667
H    1.510581  -0.292036  6.128593
H    2.576162  -0.178784  4.748214
H    1.780950  -2.879190  6.042946
H    3.103049  -1.861512  6.646405
H    3.925342  -3.583191  5.232243
H    3.028159  -3.097017  3.928785
H    4.239019  -2.120769  4.519786
N    -1.914351  2.656700  3.068318
C    -2.546210  3.975126  3.207373
H    -1.093512  2.554567  2.440956
H    -1.925911  4.693602  2.659719
H    -2.572431  4.292357  4.258732
H    -3.548481  3.986028  2.757511
Hg    -4.997649  2.598385  5.178917
