35
Energy: -571611.1559918  eV PBE+vdW (tier 2 basis)
C    -3.265658  -0.927107  -0.063199
C    -2.474275  -1.143835  1.187685
O    -1.920667  -2.293854  1.286467
H    -2.673770  -1.251925  -0.930305
H    -3.570700  0.117666  -0.194771
H    -4.155847  -1.574234  -0.031602
N    -2.406323  -0.149759  2.092040
C    -1.545616  -0.026268  3.283793
C    -2.114831  -0.787042  4.517421
O    -1.546757  -1.895547  4.879418
H    -2.941570  0.681070  1.844151
H    -0.601677  -0.552680  3.067485
C    -1.202173  1.458284  3.571840
C    -0.126310  2.126872  2.682513
C    1.341376  1.756185  3.014656
C    2.345757  2.912894  3.038407
N    2.690001  3.494770  1.669988
H    -0.887403  1.529294  4.624066
H    -2.124906  2.051161  3.500085
H    -0.271563  3.207282  2.836220
H    -0.346930  1.949016  1.618843
H    1.716440  0.953354  2.361268
H    1.397480  1.348817  4.036458
H    3.302176  2.581054  3.460096
H    1.984284  3.756793  3.639845
H    3.385368  4.252073  1.767692
H    1.874389  3.901410  1.190706
H    3.104795  2.789466  1.043165
N    -3.111003  -0.370904  5.273519
C    -3.886399  0.874234  5.264533
H    -3.330523  -1.016518  6.040303
H    -4.858099  0.656508  5.721546
H    -4.051990  1.231231  4.244582
H    -3.388303  1.647200  5.865570
Hg    -1.146103  -3.157272  3.144639
