35
Energy: -571610.7320034  eV PBE+vdW (tier 2 basis)
C    0.342242  1.767376  1.324931
C    0.212406  0.491863  2.068330
O    1.082808  0.068746  2.899966
H    0.656320  2.569616  2.004080
H    -0.562811  2.050244  0.781643
H    1.147293  1.638951  0.580174
N    -0.831814  -0.368719  1.947214
C    -2.240408  -0.217332  1.543985
C    -2.284771  0.054036  -0.017306
O    -2.310594  1.195504  -0.455425
H    -0.626781  -1.264366  2.403087
H    -2.645785  -1.226198  1.700170
C    -3.177686  0.701331  2.366981
C    -3.077348  2.234080  2.356641
C    -4.180089  2.816078  3.274361
C    -4.242812  4.339311  3.408554
N    -5.060371  5.021623  2.314442
H    -3.096538  0.333068  3.403308
H    -4.188586  0.409247  2.040127
H    -3.176706  2.609243  1.326506
H    -2.098368  2.569332  2.730484
H    -4.023187  2.437902  4.295668
H    -5.169718  2.427967  2.981217
H    -3.253420  4.812923  3.390252
H    -4.734621  4.621769  4.346881
H    -6.038250  4.694550  2.317187
H    -4.681616  4.860726  1.371272
H    -5.086620  6.042855  2.460722
N    -2.305246  -1.059990  -0.791442
C    -2.547924  -1.009961  -2.224153
H    -2.382982  -1.969465  -0.337303
H    -2.138263  -0.076560  -2.628705
H    -3.628322  -1.040807  -2.451666
H    -2.089962  -1.896837  -2.682076
Hg    3.383029  0.246158  2.830776
