35
Energy: -571610.8875878  eV PBE+vdW (tier 2 basis)
C    0.196948  -0.113931  0.025827
C    -0.019322  -0.098628  1.493122
O    0.980355  -0.372905  2.250984
H    0.697999  -1.063166  -0.230830
H    0.901608  0.678187  -0.269303
H    -0.739723  -0.047856  -0.537043
N    -1.223204  0.141858  2.066101
C    -2.128644  1.266375  1.786163
C    -1.501734  2.479361  2.526933
O    -0.902053  2.311598  3.659599
H    -1.281919  -0.175005  3.036789
H    -2.138758  1.448770  0.703787
C    -3.549148  0.889024  2.294428
C    -4.670339  1.899834  1.998190
C    -6.062187  1.518887  2.561294
C    -6.795926  0.429683  1.774720
N    -8.220941  0.250666  2.282739
H    -3.486936  0.718021  3.381909
H    -3.767475  -0.084902  1.831562
H    -4.753164  2.071805  0.913631
H    -4.420336  2.870716  2.449119
H    -6.672652  2.434880  2.547157
H    -5.968689  1.224641  3.618701
H    -6.325148  -0.557577  1.855974
H    -6.888590  0.683512  0.711025
H    -8.720060  -0.479051  1.750636
H    -8.771118  1.118832  2.193726
H    -8.247988  -0.025885  3.275811
N    -1.590045  3.718649  2.071628
C    -2.309469  4.268533  0.924938
H    -1.099573  4.406105  2.655402
H    -3.116892  4.926829  1.275100
H    -2.723405  3.479860  0.293915
H    -1.606996  4.880110  0.340998
Hg    0.922710  0.992221  4.018116
