35
Energy: -571611.5507208  eV PBE+vdW (tier 2 basis)
C    1.636882  -1.442476  2.913802
C    0.704586  -0.275759  2.980239
O    1.234875  0.860098  2.715034
H    2.231465  -1.377299  1.991154
H    1.116402  -2.406115  2.950166
H    2.351721  -1.369380  3.748100
N    -0.583630  -0.490786  3.308575
C    -1.772579  0.380044  3.148889
C    -2.040350  1.232271  4.422985
O    -1.516479  2.405521  4.563847
H    -0.790663  -1.456745  3.559593
H    -1.548331  1.111247  2.354092
C    -2.992230  -0.455897  2.691898
C    -2.936288  -0.980427  1.239529
C    -4.128374  -1.919598  0.950004
C    -4.160123  -2.597249  -0.426252
N    -4.875627  -1.791891  -1.507604
H    -3.884870  0.176936  2.806406
H    -3.123155  -1.310226  3.379985
H    -1.998770  -1.531355  1.066330
H    -2.927961  -0.121028  0.550132
H    -5.084563  -1.403650  1.136478
H    -4.109105  -2.745326  1.676880
H    -4.709233  -3.544435  -0.372562
H    -3.158330  -2.811979  -0.818549
H    -4.886920  -2.313414  -2.398645
H    -4.431407  -0.883284  -1.697976
H    -5.859678  -1.611917  -1.257036
N    -2.836222  0.795185  5.372885
C    -3.146700  1.518542  6.617779
H    -3.340452  -0.075369  5.211551
H    -2.267261  2.080524  6.946816
H    -3.437662  0.784915  7.375600
H    -3.978030  2.216028  6.445777
Hg    0.315600  2.689323  3.442760
