35
Energy: -571611.0272516  eV PBE+vdW (tier 2 basis)
C    0.300143  -0.466546  0.689684
C    -0.079007  -0.262058  2.108458
O    0.737713  -0.342474  3.082700
H    -0.550747  -0.456230  0.003136
H    0.803769  -1.442407  0.601060
H    1.035918  0.294475  0.389535
N    -1.334171  0.070585  2.521347
C    -2.421731  0.764940  1.819230
C    -3.182310  -0.347387  0.963432
O    -2.965253  -0.440250  -0.233296
H    -1.428643  0.022876  3.541129
H    -3.100424  1.095770  2.618259
C    -2.018053  1.982070  0.966189
C    -3.205879  2.880737  0.563612
C    -2.706077  4.171123  -0.120927
C    -3.742283  5.269369  -0.366473
N    -4.619435  5.041584  -1.595318
H    -1.314271  2.571170  1.574344
H    -1.484790  1.646628  0.066954
H    -3.780862  3.153828  1.463044
H    -3.885051  2.320229  -0.098110
H    -2.175346  3.937148  -1.058240
H    -1.950504  4.643390  0.525506
H    -4.430375  5.398109  0.478547
H    -3.244525  6.229506  -0.546698
H    -4.055894  4.977902  -2.456181
H    -5.186359  4.185552  -1.529406
H    -5.275163  5.828174  -1.723553
N    -4.025051  -1.147826  1.661065
C    -4.889334  -2.123995  1.015377
H    -4.225405  -0.915886  2.633387
H    -5.854589  -1.677269  0.720001
H    -5.103059  -2.924983  1.735307
H    -4.395178  -2.503353  0.112983
Hg    2.559349  -1.734838  3.336558
