35
Energy: -571610.8368728  eV PBE+vdW (tier 2 basis)
C    0.494410  0.320210  0.062544
C    0.185587  -0.051254  1.465614
O    0.932037  -0.755809  2.211413
H    1.555741  0.595578  -0.015679
H    -0.109503  1.152443  -0.312746
H    0.352294  -0.557649  -0.588825
N    -0.996747  0.279329  2.069383
C    -2.242347  0.596722  1.423941
C    -2.593004  2.184458  1.587764
O    -2.947764  2.657719  0.513954
H    -1.024296  0.038681  3.065881
H    -2.110389  0.497875  0.343858
C    -3.438737  -0.256907  1.921114
C    -4.838590  0.105237  1.380227
C    -5.063249  -0.146425  -0.122218
C    -6.440287  0.250145  -0.662079
N    -7.566757  -0.703747  -0.272246
H    -3.474508  -0.225482  3.019424
H    -3.189660  -1.296654  1.649719
H    -5.077078  1.152836  1.621272
H    -5.536082  -0.499044  1.981289
H    -4.848425  -1.196801  -0.379155
H    -4.359873  0.455550  -0.717189
H    -6.435707  0.256872  -1.758302
H    -6.753396  1.244024  -0.317905
H    -7.722441  -0.748214  0.744420
H    -8.457778  -0.401985  -0.697138
H    -7.387813  -1.663499  -0.603443
N    -2.540785  2.815594  2.755535
C    -2.145347  2.335211  4.082598
H    -2.798048  3.802995  2.689869
H    -2.544210  3.041153  4.819272
H    -1.053903  2.314915  4.196269
H    -2.586824  1.358342  4.311293
Hg    3.252283  -0.840269  2.271868
