35
Energy: -571611.3864880  eV PBE+vdW (tier 2 basis)
C    -0.591318  -2.340166  0.569004
C    -0.439996  -1.402921  1.725064
O    0.611953  -0.676678  1.700258
H    -1.560375  -2.852803  0.565800
H    0.223294  -3.079049  0.602487
H    -0.468671  -1.779366  -0.368749
N    -1.388792  -1.391717  2.681313
C    -1.585073  -0.412807  3.764470
C    -0.718505  -0.723206  5.018574
O    0.323193  0.009781  5.248052
H    -2.137625  -2.066680  2.539009
H    -1.177162  0.547273  3.406607
C    -3.083998  -0.135974  4.051418
C    -3.744005  0.724714  2.951202
C    -5.092960  1.388827  3.318409
C    -6.310715  0.462387  3.296844
N    -7.601074  1.254468  3.468893
H    -3.125865  0.400717  5.012002
H    -3.623687  -1.081991  4.201894
H    -3.858822  0.143792  2.023045
H    -3.061675  1.551604  2.703435
H    -5.252723  2.193222  2.583579
H    -5.009305  1.880412  4.300674
H    -6.307043  -0.280830  4.103571
H    -6.410246  -0.063649  2.338781
H    -7.626039  1.768398  4.362720
H    -8.427684  0.637076  3.450404
H    -7.726249  1.948908  2.716040
N    -0.982829  -1.658960  5.908227
C    -2.126487  -2.565602  6.039703
H    -0.292897  -1.706847  6.665798
H    -1.775077  -3.465345  6.557160
H    -2.514250  -2.857618  5.060323
H    -2.917918  -2.105082  6.645934
Hg    1.407401  0.458726  3.400449
