35
Energy: -571610.9199889  eV PBE+vdW (tier 2 basis)
C    -0.168910  -1.399334  -0.300093
C    -0.482211  -1.520576  1.158063
O    -0.425183  -2.547141  1.813713
H    -0.962339  -0.859600  -0.838080
H    -0.038694  -2.397716  -0.728624
H    0.769155  -0.835427  -0.427192
N    -0.875229  -0.329021  1.837488
C    -0.997284  -0.274237  3.245087
C    -2.522825  -0.698646  3.711557
O    -2.647860  -0.758038  4.957412
H    -0.959295  0.532216  1.293081
H    -0.424594  -1.111953  3.673794
C    -0.626417  1.083897  3.864600
C    0.882205  1.415985  3.772700
C    1.178824  2.785033  4.421823
C    2.581202  3.360734  4.208361
N    3.654452  2.766905  5.117441
H    -0.940205  1.055205  4.917763
H    -1.217034  1.885131  3.390249
H    1.200605  1.440931  2.719184
H    1.456732  0.610449  4.257668
H    0.937833  2.769565  5.497172
H    0.501773  3.537636  3.989222
H    2.943313  3.223251  3.181726
H    2.585529  4.435295  4.427070
H    4.564967  3.222418  4.946611
H    3.792870  1.757682  4.971071
H    3.431129  2.911346  6.113512
N    -3.407111  -0.951116  2.773494
C    -4.788271  -1.401749  2.970905
H    -3.073070  -0.859617  1.815126
H    -5.264702  -1.460513  1.985050
H    -5.355495  -0.678899  3.571772
H    -4.817126  -2.411977  3.405921
Hg    -4.332012  -1.618348  6.311853
