35
Energy: -571611.1556469  eV PBE+vdW (tier 2 basis)
C    0.556029  -2.001352  0.256514
C    -0.922553  -2.113949  0.449790
O    -1.403867  -3.285576  0.260231
H    0.792829  -2.199990  -0.799632
H    1.057357  -2.784256  0.844193
H    0.945115  -1.019195  0.550474
N    -1.619298  -1.014871  0.794652
C    -3.003613  -0.908733  1.296255
C    -4.048263  -0.866232  0.144223
O    -4.769907  -1.919695  -0.075361
H    -1.050894  -0.173418  0.881909
H    -3.235455  -1.849123  1.823570
C    -3.096647  0.230740  2.344801
C    -4.484106  0.409864  3.011505
C    -4.728276  -0.419439  4.294887
C    -4.232937  0.186610  5.614429
N    -5.216323  1.180496  6.226804
H    -2.789531  1.175395  1.878485
H    -2.331569  0.008387  3.104657
H    -5.283855  0.180137  2.291864
H    -4.608850  1.482574  3.221810
H    -4.241194  -1.402748  4.213286
H    -5.799999  -0.654192  4.385502
H    -3.282053  0.725274  5.513313
H    -4.101493  -0.589800  6.377098
H    -4.849904  1.558942  7.114785
H    -6.120414  0.733437  6.443684
H    -5.410627  1.986256  5.615454
N    -4.291377  0.180163  -0.619679
C    -3.756664  1.546301  -0.594370
H    -5.011694  0.003616  -1.328288
H    -3.849673  1.951661  -1.608034
H    -2.700136  1.554611  -0.314353
H    -4.341302  2.182103  0.083939
Hg    -3.525468  -3.722177  0.008199
