35
Energy: -571610.8331832  eV PBE+vdW (tier 2 basis)
C    -1.037911  0.868688  0.122032
C    -0.661369  0.961001  1.552629
O    -0.109605  1.989231  2.066821
H    -1.610463  1.757251  -0.173658
H    -1.585014  -0.040610  -0.134576
H    -0.106218  0.876042  -0.469769
N    -0.849128  -0.024650  2.471859
C    -1.772321  -1.164964  2.575812
C    -1.364407  -2.239227  1.478007
O    -1.922356  -2.265016  0.390636
H    -0.345469  0.183107  3.340701
H    -1.518734  -1.601783  3.551131
C    -3.302766  -0.920258  2.635974
C    -4.041991  -0.294952  1.447183
C    -5.569009  -0.550790  1.435306
C    -6.357780  0.154393  2.540920
N    -7.855294  -0.066490  2.366286
H    -3.461645  -0.332921  3.554774
H    -3.720311  -1.918303  2.846346
H    -3.668799  -0.735885  0.511220
H    -3.845513  0.786943  1.390280
H    -5.750870  -1.636535  1.481105
H    -5.944502  -0.212995  0.457130
H    -6.211128  1.241858  2.526135
H    -6.118666  -0.215099  3.545693
H    -8.193725  0.299634  1.463298
H    -8.394972  0.406814  3.107329
H    -8.104557  -1.066605  2.400818
N    -0.388683  -3.102344  1.853213
C    -0.036557  -4.268726  1.057745
H    -0.055136  -3.075949  2.816197
H    0.999620  -4.545433  1.292189
H    -0.173545  -4.036051  -0.005423
H    -0.676911  -5.133635  1.305442
Hg    1.447408  3.420842  1.120768
