35
Energy: -571610.8559443  eV PBE+vdW (tier 2 basis)
C    -0.329687  0.478496  0.281632
C    -0.343445  0.318185  1.757598
O    0.725907  0.651432  2.383830
H    -1.327041  0.641613  -0.133371
H    0.145184  -0.400982  -0.183121
H    0.318035  1.333836  0.038027
N    -1.413148  -0.083391  2.488876
C    -2.281093  -1.262722  2.310116
C    -1.428116  -2.465883  2.809651
O    -0.150053  -2.425215  2.699886
H    -1.305728  0.165088  3.475613
H    -3.105672  -1.111688  3.023836
C    -2.896291  -1.499183  0.911702
C    -3.975286  -0.463326  0.535759
C    -4.648411  -0.769757  -0.820091
C    -5.759360  0.237665  -1.129814
N    -6.460632  -0.067248  -2.446535
H    -3.352089  -2.500302  0.933228
H    -2.106965  -1.561655  0.150485
H    -3.541784  0.548606  0.514517
H    -4.742834  -0.444450  1.325721
H    -5.069510  -1.787755  -0.797543
H    -3.895325  -0.753760  -1.624197
H    -5.377669  1.262127  -1.222672
H    -6.545149  0.232926  -0.363981
H    -7.205833  0.621391  -2.635776
H    -6.904480  -0.997932  -2.443184
H    -5.813164  -0.038867  -3.248428
N    -1.985726  -3.555794  3.317287
C    -3.390216  -3.936126  3.420669
H    -1.308167  -4.252957  3.645352
H    -3.558293  -4.373404  4.413951
H    -3.624865  -4.706953  2.670256
H    -4.048858  -3.074466  3.282800
Hg    1.419410  -1.035613  3.686677
