35
Energy: -571611.2942918  eV PBE+vdW (tier 2 basis)
C    -0.790499  0.423327  -0.720248
C    -0.340915  0.531649  0.702646
O    0.749881  -0.095106  0.962077
H    -1.826635  0.749613  -0.866854
H    -0.683697  -0.618785  -1.053453
H    -0.114350  1.023296  -1.349643
N    -1.082995  1.260219  1.554835
C    -1.165281  1.365372  3.048032
C    -0.088819  2.302847  3.649170
O    1.070739  1.872552  4.040364
H    -1.873224  1.701548  1.088102
H    -2.123024  1.878724  3.194943
C    -1.292339  -0.002977  3.760998
C    -1.866438  0.074733  5.192804
C    -1.961663  -1.330233  5.827133
C    -2.382381  -1.404732  7.299607
N    -3.891795  -1.409492  7.526376
H    -0.327139  -0.535834  3.791650
H    -1.948478  -0.620352  3.130098
H    -2.856415  0.558203  5.152829
H    -1.227541  0.710696  5.825748
H    -0.966506  -1.798942  5.795145
H    -2.603706  -1.988365  5.218996
H    -1.986664  -0.574460  7.897903
H    -2.028190  -2.340362  7.747938
H    -4.105082  -1.490806  8.533375
H    -4.342924  -2.211937  7.061657
H    -4.355112  -0.554074  7.190958
N    -0.329910  3.581372  3.863707
C    -1.538263  4.395346  3.703864
H    0.475670  4.085415  4.252823
H    -1.288214  5.257204  3.070231
H    -1.856079  4.769063  4.685969
H    -2.353089  3.835371  3.240095
Hg    1.923347  0.412573  2.689900
