35
Energy: -571610.5028438  eV PBE+vdW (tier 2 basis)
C    0.111389  0.096434  -0.123902
C    0.222658  -0.273016  1.309926
O    1.404530  -0.295763  1.810034
H    0.183320  -0.811658  -0.746073
H    0.976791  0.719371  -0.391320
H    -0.814330  0.630557  -0.351281
N    -0.826842  -0.519440  2.137557
C    -1.965267  -1.429201  1.913524
C    -1.334204  -2.869676  1.881774
O    -0.101000  -3.012005  1.603008
H    -0.535498  -0.502554  3.118020
H    -2.560534  -1.360117  2.836926
C    -2.907945  -1.159696  0.715005
C    -4.015680  -0.096216  0.907746
C    -3.583287  1.382642  0.935584
C    -4.667617  2.396965  0.554232
N    -5.794106  2.551294  1.572259
H    -3.424242  -2.108116  0.504255
H    -2.327945  -0.961299  -0.195278
H    -4.595413  -0.349599  1.810936
H    -4.702142  -0.246323  0.059611
H    -2.802215  1.552834  0.178674
H    -3.126881  1.660098  1.898949
H    -5.156201  2.132442  -0.392304
H    -4.236343  3.399213  0.445576
H    -6.332990  1.684282  1.706549
H    -6.464297  3.270894  1.256987
H    -5.445723  2.853136  2.494035
N    -2.117185  -3.916544  2.115686
C    -1.690781  -5.309397  2.207813
H    -3.120693  -3.750565  2.214965
H    -2.085316  -5.746781  3.135881
H    -0.601988  -5.373408  2.170407
H    -2.120491  -5.871571  1.362226
Hg    1.878554  -2.313218  2.661861
