35
Energy: -571611.3700004  eV PBE+vdW (tier 2 basis)
C    -0.785244  0.158821  -0.286795
C    -0.465333  0.384872  1.155476
O    0.467727  1.234261  1.379409
H    -0.849533  1.129169  -0.799872
H    -1.717020  -0.398897  -0.434225
H    0.054609  -0.381318  -0.751701
N    -1.152098  -0.300978  2.089418
C    -1.282723  -0.069421  3.547939
C    -0.215725  -0.864995  4.352959
O    0.921522  -0.331935  4.657721
H    -1.801861  -0.985247  1.703369
H    -1.058381  0.993228  3.740228
C    -2.741822  -0.345041  3.992901
C    -3.795588  0.662073  3.462529
C    -4.053802  1.896021  4.359337
C    -5.090371  1.733489  5.478794
N    -6.526206  1.937239  5.002592
H    -2.756361  -0.364307  5.092860
H    -3.022264  -1.359774  3.664442
H    -4.730013  0.105266  3.298352
H    -3.505497  1.009554  2.460505
H    -4.333636  2.756403  3.732161
H    -3.122649  2.212856  4.853169
H    -4.941183  2.484807  6.263038
H    -5.066385  0.742953  5.950731
H    -7.191433  1.824224  5.784075
H    -6.808276  1.270150  4.270210
H    -6.668370  2.886908  4.625433
N    -0.460720  -2.087797  4.768560
C    0.480545  -2.941778  5.511207
H    -1.399717  -2.459155  4.629348
H    0.331465  -2.806991  6.591382
H    1.507772  -2.670519  5.252170
H    0.278564  -3.984425  5.245623
Hg    1.571702  1.185649  3.249743
