35
Energy: -571611.3292098  eV PBE+vdW (tier 2 basis)
C    1.234932  0.146169  1.758746
C    -0.075156  -0.066078  1.068667
O    -0.122714  0.389453  -0.131777
H    1.190470  -0.056802  2.834715
H    1.992045  -0.497126  1.283621
H    1.562459  1.183197  1.594718
N    -1.055968  -0.703927  1.731916
C    -2.543242  -0.809783  1.556157
C    -2.957813  -1.940459  0.573873
O    -3.018338  -1.793893  -0.706581
H    -0.746203  -1.033981  2.644362
H    -2.870509  -1.149258  2.548565
C    -3.233427  0.549228  1.281373
C    -4.739845  0.619601  1.640227
C    -5.021974  0.912578  3.128347
C    -6.498546  0.995989  3.534764
N    -7.171414  2.320302  3.184410
H    -3.124510  0.830535  0.221184
H    -2.678030  1.315789  1.840901
H    -5.254780  -0.304782  1.332397
H    -5.168265  1.413640  1.010710
H    -4.498652  1.830391  3.443001
H    -4.603853  0.115747  3.762760
H    -6.601367  0.903124  4.622373
H    -7.110528  0.213511  3.068437
H    -8.150487  2.324618  3.512745
H    -7.197058  2.506498  2.172200
H    -6.702814  3.119538  3.637566
N    -3.326062  -3.099770  1.081663
C    -3.726109  -4.283397  0.307235
H    -3.375593  -3.183064  2.096606
H    -3.401284  -5.175803  0.852812
H    -3.266089  -4.248675  -0.684036
H    -4.819325  -4.306340  0.198391
Hg    -1.574630  -0.393201  -1.508630
