35
Energy: -571611.3336449  eV PBE+vdW (tier 2 basis)
C    -2.335338  -4.337672  -0.284232
C    -1.463213  -3.574246  0.661867
O    -0.210490  -3.631757  0.411136
H    -2.143862  -5.413137  -0.147977
H    -2.049528  -4.097147  -1.317759
H    -3.401618  -4.129463  -0.137686
N    -2.038496  -2.907157  1.680065
C    -1.431000  -1.936504  2.607260
C    -0.690060  -2.622232  3.792353
O    0.605160  -2.631818  3.792714
H    -3.050464  -3.007752  1.733056
H    -0.622261  -1.424559  2.060067
C    -2.426722  -0.831987  3.042702
C    -2.642450  0.301892  2.014849
C    -3.468299  1.447924  2.642565
C    -3.520136  2.778058  1.882627
N    -4.604268  2.860447  0.810935
H    -2.025255  -0.389598  3.967663
H    -3.390877  -1.283067  3.320462
H    -3.127194  -0.093410  1.108019
H    -1.662209  0.697339  1.704608
H    -3.017823  1.704503  3.613606
H    -4.489223  1.111104  2.885847
H    -2.575015  3.016004  1.378676
H    -3.747435  3.597969  2.574081
H    -4.602663  3.793159  0.368014
H    -5.544645  2.723611  1.211213
H    -4.481818  2.171321  0.056825
N    -1.278067  -3.161485  4.841585
C    -2.686865  -3.200497  5.245138
H    -0.616290  -3.558584  5.517601
H    -2.825320  -4.091951  5.867155
H    -3.345937  -3.275450  4.376347
H    -2.942769  -2.317019  5.845628
Hg    1.393681  -3.078424  1.804090
