35
Energy: -571610.7557799  eV PBE+vdW (tier 2 basis)
C    0.500099  -0.398385  0.266571
C    0.080942  -0.579906  1.679004
O    0.650760  -1.350067  2.506981
H    1.587312  -0.229378  0.238021
H    0.010789  0.439831  -0.238499
H    0.315768  -1.327223  -0.295646
N    -1.023295  0.039265  2.204026
C    -2.140231  0.588680  1.493225
C    -2.035030  2.241454  1.445397
O    -2.198553  2.636891  0.301284
H    -1.114601  -0.083617  3.217959
H    -2.053755  0.333166  0.434175
C    -3.534460  0.213405  2.042971
C    -4.035188  -1.174661  1.549699
C    -5.049341  -1.170677  0.383223
C    -6.479762  -0.858119  0.833398
N    -7.480458  -1.034312  -0.301242
H    -3.511419  0.240826  3.140660
H    -4.232276  1.006238  1.739782
H    -4.473617  -1.697571  2.412801
H    -3.179562  -1.796599  1.251069
H    -5.031690  -2.174125  -0.069590
H    -4.734038  -0.467821  -0.405054
H    -6.608176  0.171995  1.188555
H    -6.809469  -1.538799  1.628553
H    -7.478939  -1.999247  -0.666052
H    -7.286880  -0.406711  -1.095913
H    -8.441875  -0.834077  0.016139
N    -1.848292  2.972377  2.537509
C    -1.651559  2.570977  3.933002
H    -1.832360  3.977217  2.347498
H    -1.845522  3.450310  4.556758
H    -0.618313  2.251318  4.119398
H    -2.367562  1.801014  4.241257
Hg    2.936438  -1.840620  2.694050
