35
Energy: -571610.9504790  eV PBE+vdW (tier 2 basis)
C    -0.344240  -0.134347  -0.369438
C    -0.091943  -0.420505  1.089169
O    0.856700  -1.061117  1.504580
H    0.489435  -0.523146  -0.959957
H    -0.426104  0.955908  -0.510358
H    -1.283180  -0.594474  -0.709185
N    -1.082831  0.088271  1.967793
C    -1.299835  -0.205733  3.346825
C    -0.867151  1.100768  4.261307
O    -1.886452  1.496783  4.890486
H    -1.891896  0.476992  1.479997
H    -2.383690  -0.232299  3.511294
C    -0.674545  -1.475589  3.980514
C    -1.382351  -2.755244  3.482790
C    -0.775001  -4.022680  4.126935
C    -1.492412  -5.282087  3.631282
N    -0.914922  -6.547455  4.249757
H    -0.795169  -1.394938  5.071029
H    0.400808  -1.510951  3.772525
H    -1.297780  -2.826853  2.388388
H    -2.456199  -2.701078  3.718980
H    -0.856039  -3.956067  5.223430
H    0.296977  -4.082577  3.881522
H    -1.400867  -5.409496  2.545421
H    -2.558583  -5.279480  3.890238
H    -1.410315  -7.385207  3.906094
H    -0.996850  -6.549154  5.277597
H    0.082715  -6.671261  4.020252
N    0.338866  1.609521  4.301099
C    1.581107  1.243530  3.605681
H    0.430898  2.422168  4.919012
H    1.495140  0.265100  3.129029
H    1.811263  2.005865  2.850864
H    2.390338  1.212934  4.344320
Hg    -2.172103  3.291908  6.359926
