35
Energy: -571611.0468562  eV PBE+vdW (tier 2 basis)
C    0.123930  -0.935356  -0.169837
C    0.012615  -0.488803  1.254218
O    1.085474  -0.029685  1.769575
H    1.006859  -1.576634  -0.287690
H    0.281550  -0.049137  -0.804234
H    -0.773859  -1.467434  -0.508257
N    -1.176971  -0.592668  1.882793
C    -1.510285  0.015887  3.172997
C    -0.959264  -0.791286  4.382351
O    -0.082655  -0.213747  5.135590
H    -1.933703  -0.966108  1.314902
H    -0.912719  0.941326  3.228466
C    -2.950523  0.594120  3.292076
C    -4.231605  -0.264121  3.277290
C    -5.453293  0.672127  3.457969
C    -6.815924  0.007161  3.711619
N    -7.688144  -0.137680  2.467480
H    -3.011499  1.347270  2.490174
H    -2.937480  1.174055  4.228386
H    -4.223257  -0.982568  4.108293
H    -4.319519  -0.844717  2.344151
H    -5.525724  1.379950  2.616240
H    -5.266471  1.305048  4.337868
H    -7.414955  0.612767  4.401324
H    -6.729300  -0.998527  4.140931
H    -8.596470  -0.565142  2.709675
H    -7.263391  -0.728127  1.739416
H    -7.896168  0.778878  2.042649
N    -1.308916  -2.018655  4.716764
C    -2.274001  -2.946160  4.133345
H    -0.806696  -2.371301  5.539598
H    -1.756943  -3.897623  3.946900
H    -2.675077  -2.564571  3.193911
H    -3.088178  -3.136508  4.844707
Hg    1.476309  0.689646  3.841994
