35
Energy: -571610.8607848  eV PBE+vdW (tier 2 basis)
C    -0.258002  -0.768046  0.026581
C    -0.145779  0.122994  1.221557
O    0.890675  0.672949  1.593122
H    0.736318  -0.942274  -0.393320
H    -0.882618  -0.266653  -0.733100
H    -0.742139  -1.725542  0.264421
N    -1.331767  0.323284  1.951371
C    -1.474548  0.975138  3.208935
C    -1.144867  2.550147  3.138633
O    -2.160517  3.183858  3.554605
H    -2.169291  -0.133060  1.583217
H    -2.549395  0.963234  3.431291
C    -0.823109  0.326919  4.505155
C    0.628943  -0.158185  4.529932
C    0.870090  -0.924711  5.863170
C    2.103134  -1.828433  5.935714
N    3.406496  -1.110264  6.274633
H    -1.487796  -0.532620  4.687961
H    -1.019091  1.041405  5.318455
H    1.334944  0.679246  4.425120
H    0.817438  -0.848270  3.696481
H    0.023215  -1.607754  6.028572
H    0.847976  -0.233579  6.720713
H    2.288382  -2.370028  4.999749
H    1.974078  -2.570126  6.733428
H    4.182329  -1.787653  6.347036
H    3.347997  -0.626940  7.183424
H    3.680377  -0.416332  5.566291
N    0.011035  2.983647  2.709577
C    0.413827  4.386203  2.556461
H    0.628240  2.229900  2.346329
H    1.435793  4.395662  2.162326
H    0.419214  4.903916  3.524571
H    -0.225382  4.907143  1.829258
Hg    -2.666971  5.415446  3.704281
