35
Energy: -571611.1307198  eV PBE+vdW (tier 2 basis)
C    -1.817073  0.962809  -1.507319
C    -1.408036  0.832080  -0.079140
O    -0.345382  0.234784  0.301784
H    -1.831733  -0.029246  -1.980303
H    -1.073589  1.585907  -2.034450
H    -2.798481  1.432009  -1.634704
N    -2.217161  1.334921  0.875277
C    -2.026044  1.226634  2.309670
C    -2.785237  -0.069925  2.810844
O    -3.987125  -0.148537  2.598318
H    -3.145298  1.632832  0.564845
H    -0.948274  1.092376  2.493170
C    -2.608296  2.476707  3.020301
C    -2.471105  2.436014  4.553881
C    -3.257385  3.525885  5.319211
C    -2.662173  4.932370  5.238385
N    -3.402283  5.889459  6.164699
H    -3.670940  2.560150  2.743222
H    -2.090657  3.348924  2.594166
H    -1.408912  2.472222  4.842001
H    -2.855934  1.476341  4.928731
H    -3.282426  3.214284  6.375159
H    -4.303296  3.537882  4.973398
H    -2.728532  5.375482  4.237252
H    -1.613395  4.955028  5.560806
H    -3.005231  6.840406  6.119929
H    -3.349140  5.584599  7.148748
H    -4.402092  5.964998  5.923864
N    -2.055646  -1.022015  3.439957
C    -2.615440  -2.309861  3.814564
H    -1.047604  -0.895286  3.516442
H    -2.498837  -3.054781  3.007483
H    -3.689012  -2.191524  4.009875
H    -2.071669  -2.683746  4.692077
Hg    1.484601  -0.003888  -1.099687
