35
Energy: -571610.8194809  eV PBE+vdW (tier 2 basis)
C    -0.100573  0.057317  2.306565
C    -0.604122  -1.065556  3.135869
O    0.174139  -1.867397  3.756676
H    -0.878163  0.620367  1.791992
H    0.613688  -0.324172  1.565100
H    0.439495  0.748411  2.979398
N    -1.916237  -1.372905  3.339382
C    -3.073321  -1.222396  2.459726
C    -2.783158  -1.955618  1.087403
O    -1.748720  -1.648260  0.500941
H    -2.021180  -2.106701  4.045974
H    -3.865603  -1.769862  2.985846
C    -3.551739  0.237217  2.199487
C    -5.003857  0.269872  1.679683
C    -5.550212  1.668489  1.303522
C    -5.997802  2.521066  2.492290
N    -6.702787  3.787887  2.023253
H    -2.893002  0.726631  1.470406
H    -3.455606  0.776758  3.152627
H    -5.679184  -0.200225  2.412447
H    -5.071510  -0.339034  0.766713
H    -6.417581  1.500338  0.646066
H    -4.805900  2.213431  0.701762
H    -5.167207  2.857381  3.124468
H    -6.723647  1.993448  3.124020
H    -7.016480  4.361664  2.821229
H    -7.539180  3.571908  1.459192
H    -6.090965  4.381045  1.442919
N    -3.652726  -2.867632  0.601291
C    -4.810974  -3.500460  1.214491
H    -3.322069  -3.292945  -0.270803
H    -5.541972  -3.712217  0.421035
H    -5.284062  -2.858359  1.961291
H    -4.535750  -4.466275  1.668807
Hg    2.252705  -1.401878  4.525293
