35
Energy: -571611.3418613  eV PBE+vdW (tier 2 basis)
C    0.193885  -0.416127  -0.337834
C    0.415426  -0.326249  1.138836
O    1.558742  -0.761421  1.532182
H    -0.853328  -0.264747  -0.623848
H    0.533196  -1.398970  -0.694353
H    0.831003  0.332333  -0.834942
N    -0.560754  0.196830  1.901364
C    -0.872357  0.187718  3.367095
C    -0.103024  1.267496  4.168300
O    1.067255  1.053787  4.689306
H    -1.345053  0.524196  1.340036
H    -1.922015  0.504122  3.383951
C    -0.847333  -1.220107  4.016874
C    -1.544011  -1.232210  5.393236
C    -1.607210  -2.598807  6.118793
C    -2.707912  -3.537370  5.615716
N    -2.850461  -4.756309  6.518482
H    0.180254  -1.606649  4.119409
H    -1.350423  -1.891550  3.305916
H    -2.564540  -0.828784  5.291540
H    -1.015192  -0.546334  6.071003
H    -1.789626  -2.382241  7.182549
H    -0.628093  -3.100938  6.069867
H    -2.518625  -3.931242  4.609700
H    -3.691409  -3.050470  5.618065
H    -3.597954  -5.384585  6.184281
H    -3.091165  -4.490011  7.485865
H    -1.984015  -5.313587  6.563095
N    -0.641078  2.440845  4.434752
C    -1.975360  2.993593  4.180673
H    -0.018306  3.059112  4.968421
H    -1.850415  3.978030  3.710424
H    -2.500878  3.129254  5.135289
H    -2.565730  2.355540  3.519615
Hg    2.355202  -0.118271  3.420350
