35
Energy: -571610.9141566  eV PBE+vdW (tier 2 basis)
C    -0.194154  -1.190217  -0.410634
C    -0.032243  -0.195625  0.677003
O    0.592948  0.906151  0.549490
H    -0.649859  -2.128166  -0.082358
H    0.798615  -1.414447  -0.831282
H    -0.788185  -0.751392  -1.226532
N    -0.574739  -0.334265  1.920242
C    -1.755737  -1.087822  2.362993
C    -1.246595  -2.578816  2.624303
O    -1.505717  -3.455324  1.816566
H    -0.239486  0.385212  2.569179
H    -2.018697  -0.645736  3.334662
C    -2.982958  -1.028528  1.426435
C    -4.357698  -1.249613  2.097476
C    -4.752361  -2.705371  2.403713
C    -6.139067  -2.892471  3.027021
N    -7.294029  -2.724090  2.043087
H    -2.848338  -1.735584  0.597109
H    -2.990191  -0.014766  1.000938
H    -5.086062  -0.802696  1.401525
H    -4.425636  -0.640477  3.013738
H    -4.061021  -3.148185  3.136074
H    -4.653473  -3.335326  1.504854
H    -6.332375  -2.181876  3.840826
H    -6.249366  -3.906997  3.427382
H    -8.196767  -2.897382  2.512447
H    -7.230006  -3.392189  1.260636
H    -7.344359  -1.777126  1.642480
N    -0.515184  -2.757802  3.750942
C    -0.070642  -4.070657  4.196067
H    -0.453490  -1.991156  4.419979
H    0.837072  -3.940962  4.799810
H    0.107012  -4.707805  3.321629
H    -0.826768  -4.559522  4.834154
Hg    2.462211  1.377838  -0.719751
