35
Energy: -571611.1222688  eV PBE+vdW (tier 2 basis)
C    0.525459  2.443706  1.724069
C    0.050149  1.324434  2.598693
O    0.781410  1.109292  3.628245
H    1.607973  2.343747  1.563705
H    0.375486  3.394215  2.259381
H    0.011657  2.478796  0.756430
N    -1.071303  0.672689  2.241269
C    -1.728409  -0.586652  2.700835
C    -2.487661  -0.419370  4.041154
O    -1.938854  -0.658832  5.190249
H    -1.505544  1.080320  1.416338
H    -2.505976  -0.751962  1.945417
C    -0.805327  -1.831544  2.702240
C    -0.411972  -2.418060  1.323993
C    -1.525399  -3.227005  0.614436
C    -1.075190  -4.463358  -0.171148
N    -0.356384  -4.170499  -1.485548
H    -1.306222  -2.612579  3.294184
H    0.129433  -1.606658  3.238249
H    0.439160  -3.084805  1.529339
H    -0.016702  -1.623479  0.672469
H    -2.153277  -2.588104  -0.026420
H    -2.210062  -3.642812  1.370585
H    -1.942196  -5.075196  -0.447909
H    -0.389466  -5.091505  0.411755
H    -0.949355  -3.638255  -2.139505
H    -0.107482  -5.052863  -1.961026
H    0.520059  -3.646239  -1.355788
N    -3.770916  -0.113793  4.075036
C    -4.770653  0.042683  3.015960
H    -4.144012  -0.042907  5.029366
H    -5.478013  -0.797049  3.051618
H    -4.312010  0.103993  2.026507
H    -5.325533  0.970485  3.209057
Hg    0.095231  0.052039  5.398979
