35
Energy: -571610.7636571  eV PBE+vdW (tier 2 basis)
C    0.997589  0.125052  0.834268
C    0.459269  -0.476497  2.079340
O    1.059371  -1.344754  2.783034
H    0.482896  1.042603  0.532425
H    0.940686  -0.611904  0.016397
H    2.063990  0.353250  0.973582
N    -0.794854  -0.195054  2.551112
C    -1.916920  0.279903  1.785602
C    -2.350084  1.777322  2.237312
O    -2.575927  2.476821  1.254702
H    -0.984005  -0.617839  3.465650
H    -1.595185  0.423740  0.750429
C    -3.158254  -0.657249  1.821934
C    -4.293947  -0.350703  0.818451
C    -5.405931  0.602101  1.304989
C    -6.768830  0.438260  0.626855
N    -6.832272  0.954227  -0.808806
H    -3.557104  -0.733115  2.844204
H    -2.751323  -1.651194  1.575227
H    -4.749073  -1.330844  0.601231
H    -3.859320  -0.008813  -0.134722
H    -5.089861  1.655492  1.255466
H    -5.614262  0.402548  2.367764
H    -7.536785  1.001796  1.169914
H    -7.085745  -0.611614  0.582632
H    -7.786764  0.847100  -1.187173
H    -6.201965  0.445877  -1.444341
H    -6.597524  1.956122  -0.868230
N    -2.488311  2.134701  3.510455
C    -2.253748  1.374755  4.741270
H    -2.748000  3.116226  3.627635
H    -2.769716  1.897924  5.553924
H    -1.186929  1.335063  4.997388
H    -2.687882  0.369167  4.687506
Hg    3.340573  -1.580054  3.154827
