35
Energy: -571611.1047722  eV PBE+vdW (tier 2 basis)
C    2.310042  -1.063670  2.691537
C    1.264102  -0.225363  3.357689
O    1.544474  0.102933  4.566538
H    3.193927  -0.435988  2.497765
H    2.632947  -1.854299  3.383726
H    1.960848  -1.517553  1.756612
N    0.168131  0.108341  2.654210
C    -1.177034  0.657460  3.018546
C    -1.151375  2.191594  3.241810
O    -0.966521  2.731068  4.401249
H    0.206341  -0.244767  1.700008
H    -1.756224  0.501625  2.099600
C    -1.871187  -0.140953  4.148095
C    -3.404187  0.020992  4.293708
C    -4.248676  -0.701355  3.213178
C    -5.516733  -1.410673  3.700449
N    -6.666783  -0.486391  4.091679
H    -1.418716  0.094224  5.125318
H    -1.633563  -1.200619  3.973238
H    -3.673162  1.086176  4.363368
H    -3.640605  -0.406636  5.279856
H    -3.656746  -1.517109  2.768882
H    -4.496201  -0.033364  2.373436
H    -5.322687  -2.036575  4.580873
H    -5.921043  -2.054418  2.909982
H    -7.485284  -1.041251  4.389810
H    -6.977514  0.099343  3.302493
H    -6.431476  0.139093  4.874950
N    -1.399094  3.014364  2.240544
C    -1.769255  2.717528  0.848480
H    -1.354555  4.006534  2.494533
H    -1.690497  3.650053  0.280900
H    -2.805987  2.362865  0.780434
H    -1.082439  1.988721  0.404217
Hg    0.569041  1.736134  5.579026
