35
Energy: -571610.6029673  eV PBE+vdW (tier 2 basis)
C    1.049851  0.158995  1.404618
C    0.196069  -0.607311  2.346838
O    0.267116  -1.886468  2.270375
H    0.540325  0.248674  0.430934
H    1.958180  -0.431505  1.211398
H    1.325810  1.144945  1.785151
N    -0.586427  -0.068959  3.317812
C    -1.602576  0.998667  3.228715
C    -2.844777  0.318838  2.580322
O    -2.681333  -0.662116  1.769018
H    -0.829657  -0.766012  4.026007
H    -1.850623  1.239019  4.273732
C    -1.195557  2.293316  2.489181
C    -0.098760  3.145470  3.175828
C    -0.610901  4.072592  4.295561
C    0.450898  4.909278  5.018559
N    0.930583  6.126979  4.233178
H    -2.105479  2.899912  2.370893
H    -0.894846  2.044752  1.463853
H    0.371520  3.739066  2.376819
H    0.693255  2.494596  3.577962
H    -1.081222  3.478357  5.094559
H    -1.407343  4.733355  3.915311
H    1.351496  4.329686  5.257808
H    0.050009  5.313289  5.955560
H    1.622981  6.660232  4.783003
H    0.157110  6.774855  4.020418
H    1.384294  5.880455  3.342582
N    -4.078253  0.751507  2.799480
C    -4.550882  1.927617  3.521080
H    -4.801485  0.191842  2.334160
H    -3.775213  2.328606  4.178799
H    -5.426473  1.639192  4.117650
H    -4.870345  2.701983  2.806499
Hg    -1.779299  -2.770651  2.070644
