35
Energy: -571611.3840009  eV PBE+vdW (tier 2 basis)
C    0.455369  0.570790  -0.108626
C    0.560613  0.251229  1.347904
O    1.717321  -0.172244  1.719050
H    0.915410  -0.243508  -0.687694
H    1.051651  1.473148  -0.316704
H    -0.578406  0.716581  -0.441673
N    -0.517726  0.436638  2.129730
C    -0.942388  -0.082157  3.475980
C    -0.436189  0.792922  4.653359
O    0.735677  0.674995  5.186028
H    -1.292510  0.854216  1.616614
H    -2.030342  0.069373  3.444423
C    -0.719440  -1.605937  3.655652
C    -1.721657  -2.285455  4.617454
C    -1.569263  -3.823445  4.576554
C    -2.728354  -4.662865  5.123844
N    -2.742712  -4.832295  6.641051
H    0.310893  -1.832529  3.979787
H    -0.823810  -2.057165  2.658348
H    -2.743060  -2.017875  4.302008
H    -1.591049  -1.898846  5.640713
H    -0.621164  -4.139296  5.040941
H    -1.487217  -4.136185  3.524115
H    -2.670233  -5.683628  4.727492
H    -3.710193  -4.253387  4.854481
H    -1.878135  -5.278112  6.982913
H    -3.524941  -5.443141  6.926294
H    -2.858813  -3.943794  7.146864
N    -1.270025  1.667835  5.177305
C    -0.960802  2.596697  6.273431
H    -2.225840  1.688372  4.822096
H    0.117662  2.769780  6.318425
H    -1.301847  2.173630  7.228189
H    -1.494781  3.534924  6.087758
Hg    2.241303  0.020738  3.784897
