35
Energy: -571610.9728829  eV PBE+vdW (tier 2 basis)
C    -0.807744  0.698086  0.553695
C    -0.069903  0.039645  1.660046
O    1.193506  0.154141  1.812640
H    -1.873001  0.471714  0.527185
H    -0.357879  0.415140  -0.407194
H    -0.688250  1.789670  0.677630
N    -0.629105  -0.749844  2.620094
C    -1.785320  -1.638321  2.560597
C    -1.596209  -2.688123  1.385794
O    -1.392325  -2.255079  0.257462
H    0.052948  -0.996813  3.343237
H    -1.742606  -2.185791  3.512881
C    -3.177877  -0.947376  2.442113
C    -4.305447  -1.895500  2.900116
C    -5.746986  -1.353775  2.751921
C    -6.173617  -0.359741  3.833824
N    -7.665026  -0.060986  3.744065
H    -3.357743  -0.636209  1.404826
H    -3.138621  -0.040920  3.063132
H    -4.136987  -2.203448  3.944628
H    -4.262526  -2.816313  2.300576
H    -6.414249  -2.228974  2.796826
H    -5.882814  -0.911224  1.752522
H    -5.668641  0.610797  3.756545
H    -6.009957  -0.757235  4.843590
H    -8.232341  -0.913453  3.869834
H    -7.925657  0.345481  2.833005
H    -7.959329  0.608217  4.472009
N    -1.687045  -3.993476  1.705090
C    -1.458911  -5.062447  0.738788
H    -1.760325  -4.253192  2.687336
H    -0.400005  -5.370907  0.734871
H    -1.724081  -4.708867  -0.263718
H    -2.061790  -5.930924  1.032509
Hg    2.477627  1.917287  1.189113
