35
Energy: -571610.8873752  eV PBE+vdW (tier 2 basis)
C    0.477592  -0.522115  0.303969
C    0.055965  -0.425524  1.722775
O    0.939447  -0.644898  2.628432
H    1.014179  -1.478038  0.176509
H    1.213357  0.260699  0.065317
H    -0.370313  -0.500278  -0.388225
N    -1.217566  -0.165797  2.105136
C    -2.076512  0.931302  1.634822
C    -1.561747  2.192414  2.380902
O    -1.126979  2.099609  3.594716
H    -1.412425  -0.427167  3.074624
H    -1.935825  1.048929  0.552548
C    -3.553594  0.570984  1.962232
C    -4.623703  1.551877  1.453045
C    -6.079974  1.191595  1.839135
C    -6.696980  0.053336  1.022419
N    -8.179060  -0.107134  1.336402
H    -3.643304  0.465382  3.056088
H    -3.704150  -0.430657  1.532707
H    -4.554815  1.658904  0.359191
H    -4.440133  2.549955  1.875648
H    -6.683137  2.100075  1.688201
H    -6.133745  0.958589  2.914432
H    -6.242517  -0.923993  1.225446
H    -6.640281  0.244974  -0.056721
H    -8.711078  0.750108  1.120848
H    -8.344722  -0.325924  2.330438
H    -8.599105  -0.870317  0.783330
N    -1.587275  3.401086  1.842978
C    -2.140525  3.873600  0.576184
H    -1.184947  4.127441  2.446708
H    -2.455480  3.044128  -0.059783
H    -1.366620  4.461302  0.062329
H    -2.994051  4.538572  0.769332
Hg    0.627963  0.819693  4.286127
