35
Energy: -571610.8612012  eV PBE+vdW (tier 2 basis)
C    -0.344438  -1.158041  0.928598
C    -0.372330  -0.395132  2.200159
O    0.718643  -0.312516  2.872984
H    0.141654  -2.128979  1.125847
H    0.298893  -0.653658  0.191269
H    -1.347121  -1.341354  0.528219
N    -1.495379  0.173636  2.701206
C    -2.419274  1.053170  1.976624
C    -1.846515  2.487519  2.139880
O    -1.076927  2.798940  3.129049
H    -1.425082  0.399953  3.694980
H    -2.371469  0.783695  0.912535
C    -3.892304  0.880050  2.447725
C    -4.184548  1.187989  3.928412
C    -5.537620  0.649489  4.455785
C    -6.776824  1.394976  3.955990
N    -8.034645  0.886242  4.649213
H    -4.143407  -0.167627  2.223171
H    -4.524683  1.493122  1.790150
H    -3.424469  0.715400  4.569123
H    -4.112722  2.269253  4.124293
H    -5.503062  0.719163  5.553998
H    -5.622139  -0.421973  4.213528
H    -6.956976  1.265337  2.881771
H    -6.728352  2.469223  4.175472
H    -8.194727  -0.117547  4.474243
H    -8.874386  1.388845  4.322138
H    -7.985937  1.012592  5.672015
N    -2.172958  3.460328  1.304174
C    -3.130137  3.474967  0.199913
H    -1.710854  4.353870  1.506132
H    -2.668970  4.010217  -0.641118
H    -4.036232  4.025199  0.492296
H    -3.393850  2.463109  -0.117668
Hg    0.857739  1.740240  3.733480
