35
Energy: -571610.9714379  eV PBE+vdW (tier 2 basis)
C    1.717804  1.758675  2.366855
C    0.956943  0.497618  2.539931
O    1.603056  -0.541941  2.929356
H    2.599400  1.537227  1.740254
H    2.122673  2.099604  3.331715
H    1.127694  2.540527  1.877696
N    -0.364883  0.381857  2.263075
C    -1.447204  1.259428  2.717285
C    -1.843409  0.757619  4.139393
O    -1.663755  -0.457777  4.518563
H    -0.667433  -0.581242  2.097992
H    -1.047473  2.280126  2.809258
C    -2.605579  1.244732  1.679424
C    -3.712772  2.292101  1.908880
C    -4.578317  2.630413  0.670091
C    -5.574761  1.546293  0.254323
N    -6.488524  2.044963  -0.858404
H    -3.025259  0.227408  1.630592
H    -2.116774  1.433959  0.711656
H    -3.249250  3.245649  2.207703
H    -4.372156  1.988689  2.737098
H    -3.920789  2.882372  -0.177001
H    -5.135487  3.548115  0.914520
H    -6.238756  1.257231  1.078994
H    -5.093096  0.642233  -0.137919
H    -7.033652  2.870403  -0.565074
H    -7.166224  1.320448  -1.142156
H    -5.960884  2.314244  -1.702706
N    -2.444050  1.601730  4.963038
C    -2.872415  1.311421  6.333378
H    -2.681235  2.526158  4.600667
H    -3.944691  1.065301  6.347064
H    -2.709431  2.206810  6.944359
H    -2.308927  0.461608  6.726629
Hg    0.261783  -1.659205  4.311936
