35
Energy: -571611.3893335  eV PBE+vdW (tier 2 basis)
C    -1.212463  0.885439  -0.067281
C    -0.882067  0.359136  1.294613
O    0.108257  -0.458249  1.322756
H    -1.138533  0.071036  -0.800718
H    -0.446020  1.625886  -0.347917
H    -2.206226  1.344554  -0.120408
N    -1.614907  0.785499  2.337588
C    -1.784725  0.335014  3.754991
C    -0.672437  0.826884  4.719093
O    0.455932  0.218732  4.897008
H    -2.293542  1.493651  2.063805
H    -2.685742  0.880663  4.068507
C    -2.099658  -1.174345  3.932243
C    -3.566809  -1.558027  3.627655
C    -3.846659  -3.029604  4.006815
C    -5.311734  -3.449812  4.162804
N    -6.030358  -3.780328  2.856927
H    -1.882340  -1.425991  4.981739
H    -1.423337  -1.795352  3.323608
H    -3.795086  -1.366900  2.567266
H    -4.227166  -0.903686  4.219443
H    -3.406659  -3.223114  4.997466
H    -3.324824  -3.720474  3.325032
H    -5.919939  -2.682222  4.657775
H    -5.377132  -4.367164  4.759823
H    -6.995398  -4.094265  3.048012
H    -5.564059  -4.546788  2.348853
H    -6.099707  -2.976524  2.218323
N    -0.929937  1.872073  5.478376
C    -0.016383  2.455429  6.470391
H    -1.863369  2.280550  5.430239
H    -0.179355  3.538350  6.490838
H    1.018262  2.224065  6.203482
H    -0.237023  2.040160  7.464037
Hg    1.220146  -0.767279  3.145818
