35
Energy: -571610.7827843  eV PBE+vdW (tier 2 basis)
C    0.147163  -1.071312  0.147906
C    -0.117732  -0.056443  1.211346
O    0.584328  0.983536  1.379169
H    1.138498  -1.519377  0.330648
H    0.174160  -0.576095  -0.832971
H    -0.589072  -1.881489  0.121852
N    -1.202018  -0.237178  2.014739
C    -1.659427  0.673985  3.059338
C    -2.216219  -0.213938  4.222312
O    -3.404722  -0.198380  4.522790
H    -1.843959  -0.968835  1.707834
H    -0.769844  1.205960  3.425860
C    -2.675073  1.753552  2.618206
C    -4.041062  1.301653  2.089133
C    -4.960398  2.513486  1.824708
C    -6.348244  2.220401  1.252369
N    -7.385709  1.843898  2.306819
H    -2.152043  2.361493  1.860806
H    -2.811964  2.413321  3.488253
H    -4.501412  0.626946  2.837992
H    -3.932272  0.713197  1.163325
H    -4.470652  3.165166  1.083640
H    -5.050310  3.136341  2.729876
H    -6.344752  1.402225  0.521338
H    -6.754278  3.111851  0.759404
H    -8.306293  1.680929  1.869620
H    -7.512246  2.598289  2.998262
H    -7.141231  0.987466  2.822657
N    -1.358215  -1.021972  4.924595
C    0.074640  -0.906222  5.106044
H    -1.849970  -1.545059  5.658883
H    0.306369  -0.372905  6.044483
H    0.553264  -0.402132  4.263924
H    0.487851  -1.922427  5.212239
Hg    2.795663  1.245982  0.625521
