35
Energy: -571610.9300551  eV PBE+vdW (tier 2 basis)
C    0.652601  -0.482642  1.542517
C    -0.456808  -0.469571  2.526428
O    -0.286324  -0.456438  3.788491
H    0.321864  -0.614303  0.508723
H    1.334028  -1.310043  1.796384
H    1.238696  0.444383  1.633660
N    -1.777776  -0.433637  2.190071
C    -2.444971  0.066494  0.979983
C    -2.353298  -1.112673  -0.094766
O    -1.500149  -1.069860  -0.964741
H    -2.385000  -0.579465  3.002771
H    -3.498485  0.177546  1.271812
C    -1.906062  1.393956  0.410554
C    -2.780858  2.055121  -0.680865
C    -3.983383  2.863143  -0.158493
C    -4.864647  3.513684  -1.228922
N    -4.242039  4.745549  -1.881103
H    -0.912330  1.212908  -0.015795
H    -1.781700  2.084944  1.258286
H    -3.116515  1.301184  -1.409977
H    -2.098630  2.711557  -1.242709
H    -3.651504  3.627634  0.563128
H    -4.670441  2.214809  0.407209
H    -5.807554  3.864542  -0.793368
H    -5.103200  2.827088  -2.051076
H    -4.891527  5.158206  -2.568920
H    -3.369320  4.534193  -2.384656
H    -4.033529  5.480051  -1.188371
N    -3.245539  -2.121903  0.060294
C    -3.374187  -3.201189  -0.907191
H    -3.989390  -2.016798  0.749080
H    -4.070557  -2.935240  -1.721548
H    -3.785095  -4.079462  -0.392680
H    -2.392531  -3.404923  -1.352370
Hg    1.388531  -1.452085  5.029159
