35
Energy: -571610.6941807  eV PBE+vdW (tier 2 basis)
C    -1.002485  -0.723691  -0.773251
C    -0.753678  -0.616760  0.686750
O    0.341554  -1.097840  1.144256
H    -0.750922  -1.748438  -1.091474
H    -0.308749  -0.069404  -1.324402
H    -2.040418  -0.504450  -1.042582
N    -1.645932  -0.067712  1.549477
C    -2.303061  1.237294  1.387640
C    -1.250283  2.296683  1.820153
O    -0.339894  2.011071  2.689883
H    -1.444655  -0.282383  2.529024
H    -2.547426  1.375646  0.325502
C    -3.571089  1.376886  2.267140
C    -4.849272  0.609251  1.853394
C    -4.903114  -0.894639  2.204036
C    -6.283178  -1.441228  2.584167
N    -7.287436  -1.512558  1.436704
H    -3.826913  2.445560  2.286021
H    -3.302131  1.131335  3.307832
H    -5.047299  0.773621  0.782466
H    -5.662841  1.123582  2.388661
H    -4.298919  -1.084263  3.105102
H    -4.454851  -1.516111  1.413643
H    -6.761752  -0.829883  3.360015
H    -6.201877  -2.467279  2.962426
H    -8.183413  -1.903941  1.768848
H    -6.961234  -2.122931  0.673192
H    -7.499044  -0.589021  1.033514
N    -1.300371  3.549228  1.394682
C    -2.330660  4.240117  0.624316
H    -0.537871  4.139045  1.748131
H    -1.833237  4.860102  -0.134483
H    -2.900947  4.911324  1.284840
H    -3.008564  3.535870  0.136272
Hg    1.210506  0.347644  2.628875
