35
Energy: -571610.9679479  eV PBE+vdW (tier 2 basis)
 C   -0.97579    1.29407    0.40588
 C   -0.59402    0.55526    1.63697
 O    0.46552    0.75945    2.29841
 H   -0.75563    2.36267    0.53710
 H   -2.03156    1.18448    0.13925
 H   -0.35263    0.94603   -0.43401
 N   -1.34750   -0.47877    2.13211
 C   -2.23710   -1.35486    1.39414
 C   -3.73423   -1.25521    1.95394
 O   -4.53627   -2.03968    1.45913
 H   -0.96204   -0.86873    3.00039
 H   -2.30808   -1.01507    0.35291
 C   -1.72725   -2.82261    1.48586
 C   -2.51561   -3.94784    0.79669
 C   -2.62205   -3.87544   -0.73625
 C   -2.88777   -5.20712   -1.44251
 N   -4.28776   -5.77223   -1.21759
 H   -1.62616   -3.08480    2.55132
 H   -0.70334   -2.80009    1.07691
 H   -3.51553   -4.03102    1.25545
 H   -1.98576   -4.87098    1.08924
 H   -1.66307   -3.53580   -1.15944
 H   -3.37016   -3.13057   -1.05084
 H   -2.19241   -5.99162   -1.11753
 H   -2.79027   -5.09474   -2.52887
 H   -4.41167   -6.64885   -1.74819
 H   -5.02093   -5.12194   -1.53646
 H   -4.47316   -5.99352   -0.22934
 N   -4.02347   -0.35020    2.89487
 C   -5.37796   -0.13180    3.40788
 H   -3.30225    0.32538    3.13717
 H   -5.93174    0.57852    2.77583
 H   -5.29456    0.28947    4.41671
 H   -5.91617   -1.08555    3.42849
Hg    1.70424    2.72051    2.58991
