35
Energy: -571610.8356993  eV PBE+vdW (tier 2 basis)
C    0.011770  0.966974  -0.232159
C    0.230054  0.445962  1.141195
O    1.391522  0.214804  1.613157
H    -1.032215  0.993429  -0.544378
H    0.584097  0.371450  -0.953527
H    0.400181  2.002827  -0.249417
N    -0.753907  0.205110  2.062312
C    -2.068859  -0.385532  1.858532
C    -1.935734  -1.690447  0.963350
O    -1.124027  -1.677037  0.045714
H    -0.352448  0.012085  2.984236
H    -2.379135  -0.698142  2.864255
C    -3.175827  0.522580  1.247477
C    -3.496805  1.732638  2.147658
C    -4.567531  2.706083  1.599148
C    -6.011718  2.223359  1.752027
N    -7.001749  3.318246  1.374127
H    -4.059280  -0.119365  1.112626
H    -2.890703  0.850336  0.239312
H    -2.577186  2.317575  2.291344
H    -3.792155  1.389234  3.151790
H    -4.357758  2.943682  0.544156
H    -4.449889  3.646873  2.160157
H    -6.245778  1.956162  2.790412
H    -6.254005  1.368595  1.108778
H    -7.976355  2.997534  1.483582
H    -6.890451  3.622009  0.395038
H    -6.890732  4.154894  1.967442
N    -2.723351  -2.753045  1.238184
C    -3.576585  -3.003570  2.389804
H    -2.512774  -3.562318  0.646164
H    -4.333797  -3.741482  2.092218
H    -4.086427  -2.095771  2.725349
H    -3.004990  -3.444586  3.223688
Hg    3.336602  1.208210  0.983366
