35
Energy: -571610.8608996  eV PBE+vdW (tier 2 basis)
C    0.071425  0.111657  0.162247
C    -0.216904  -0.041342  1.608938
O    0.611043  0.245830  2.532628
H    0.239076  1.174164  -0.070514
H    1.014701  -0.410831  -0.062642
H    -0.709138  -0.291173  -0.488596
N    -1.410694  -0.471283  2.109723
C    -2.764751  -0.400696  1.540435
C    -2.897627  -1.643449  0.547808
O    -2.852328  -1.462617  -0.657231
H    -1.362390  -0.646175  3.118549
H    -3.432838  -0.575904  2.395412
C    -3.121047  0.930399  0.848142
C    -4.604025  1.162597  0.482328
C    -5.563938  1.413905  1.665963
C    -6.731241  2.363638  1.386620
N    -7.783400  1.814138  0.426538
H    -2.538177  1.009823  -0.077931
H    -2.787736  1.736570  1.519751
H    -4.962637  0.344907  -0.161064
H    -4.588478  2.056575  -0.161165
H    -5.019562  1.907381  2.486753
H    -5.945860  0.472534  2.092108
H    -6.390614  3.308844  0.945046
H    -7.273400  2.594910  2.311253
H    -8.544636  2.499079  0.296837
H    -8.216784  0.950176  0.783484
H    -7.401118  1.612496  -0.507967
N    -3.030383  -2.857577  1.138288
C    -3.279697  -4.071693  0.375365
H    -3.175343  -2.898403  2.146325
H    -2.908372  -4.926723  0.954890
H    -2.787028  -3.991563  -0.601300
H    -4.358662  -4.228255  0.203486
Hg    2.914171  0.068022  2.515512
