35
Energy: -571610.5577426  eV PBE+vdW (tier 2 basis)
C    0.521156  0.515113  2.171297
C    -0.692979  -0.264033  2.530484
O    -0.654760  -1.286084  3.286704
H    0.384252  1.225319  1.354629
H    1.338326  -0.166251  1.909313
H    0.811687  1.088072  3.072688
N    -1.979608  0.065230  2.168470
C    -2.415534  0.505207  0.853672
C    -1.710249  -0.394646  -0.258401
O    -0.619701  -0.889159  -0.001793
H    -2.654691  -0.530180  2.656291
H    -3.488886  0.274532  0.818561
C    -2.181677  2.011789  0.505826
C    -3.359261  2.968824  0.809410
C    -3.625592  3.284437  2.293423
C    -4.250492  4.654318  2.580597
N    -5.698588  4.809882  2.123987
H    -1.961542  2.086185  -0.567274
H    -1.279878  2.370325  1.017074
H    -4.272035  2.599910  0.314148
H    -3.090947  3.901238  0.285052
H    -2.668870  3.316502  2.837925
H    -4.216923  2.492617  2.780371
H    -3.695542  5.464533  2.090762
H    -4.263295  4.854001  3.658572
H    -6.054062  5.746482  2.374013
H    -6.322974  4.124544  2.573906
H    -5.807705  4.714607  1.104694
N    -2.337432  -0.575839  -1.441200
C    -3.690110  -0.219129  -1.835804
H    -1.839358  -1.226381  -2.056133
H    -3.969531  0.774350  -1.472775
H    -3.728672  -0.214576  -2.932853
H    -4.421708  -0.968855  -1.489337
Hg    0.955354  -1.775999  4.824016
