35
Energy: -571610.8208192  eV PBE+vdW (tier 2 basis)
C    -0.165404  -0.030645  -0.683962
C    0.050227  -0.463515  0.718803
O    1.169256  -0.917325  1.136976
H    -1.184638  0.283472  -0.905207
H    0.115016  -0.842814  -1.367475
H    0.508905  0.824462  -0.873490
N    -0.886350  -0.430127  1.709162
C    -2.334320  -0.609962  1.649102
C    -2.657360  -1.998412  0.957080
O    -2.156363  -2.197169  -0.146323
H    -0.474176  -0.657245  2.618746
H    -2.627196  -0.673838  2.704887
C    -3.142520  0.532303  0.964548
C    -4.628850  0.492666  1.375903
C    -5.547129  1.526659  0.680903
C    -5.452753  2.947365  1.240819
N    -6.542686  3.838283  0.657615
H    -3.064423  0.448891  -0.127245
H    -2.669928  1.479002  1.263524
H    -4.721464  0.600458  2.468472
H    -5.043026  -0.495517  1.128700
H    -6.579289  1.165575  0.811988
H    -5.355575  1.530803  -0.403661
H    -4.503332  3.444833  1.008588
H    -5.599993  2.970367  2.328110
H    -6.487072  4.797006  1.034577
H    -7.485085  3.481037  0.878042
H    -6.477983  3.910223  -0.368947
N    -3.452761  -2.898409  1.573258
C    -3.976708  -2.928727  2.931424
H    -3.540558  -3.769776  1.040899
H    -3.292447  -3.467583  3.607134
H    -4.923048  -3.486933  2.915500
H    -4.171835  -1.925768  3.319385
Hg    3.220853  -0.408629  0.320452
