35
Energy: -571610.9023939  eV PBE+vdW (tier 2 basis)
C    -3.829823  1.415385  1.081303
C    -2.773769  1.108774  2.094700
O    -1.564767  1.244363  1.910167
H    -3.360449  1.616626  0.114451
H    -4.371770  2.321692  1.404126
H    -4.570311  0.609666  0.986362
N    -3.233935  0.637909  3.337272
C    -2.455121  0.122195  4.412486
C    -1.510262  1.238063  5.089930
O    -1.776065  1.282355  6.328649
H    -4.248258  0.572519  3.446212
H    -3.169455  -0.111344  5.212626
C    -1.653139  -1.233392  4.226244
C    -0.675533  -1.449847  3.068976
C    -0.002167  -2.840721  3.235132
C    1.082227  -3.208516  2.217857
N    0.550467  -3.828539  0.928592
H    -2.460144  -1.982054  4.177014
H    -1.148874  -1.394193  5.191269
H    0.112417  -0.682174  3.057060
H    -1.201101  -1.384854  2.105671
H    -0.763453  -3.636604  3.279233
H    0.497560  -2.872371  4.214641
H    1.751951  -3.967296  2.640553
H    1.693963  -2.349832  1.914042
H    0.018288  -4.692173  1.114942
H    -0.060643  -3.193467  0.397309
H    1.330137  -4.087999  0.303463
N    -0.649438  1.918564  4.380231
C    0.237316  2.981684  4.866610
H    -0.701038  1.723316  3.360715
H    0.810523  3.351720  4.009517
H    0.950162  2.594971  5.607058
H    -0.338601  3.826925  5.269442
Hg    -1.006093  2.585888  8.046170
