35
Energy: -571610.9137853  eV PBE+vdW (tier 2 basis)
C    -1.104202  -1.444831  -1.540940
C    -0.406391  -0.480120  -0.657235
O    0.437386  0.381426  -1.065559
H    -0.353757  -1.963852  -2.157377
H    -1.758127  -0.899231  -2.238326
H    -1.685137  -2.194896  -0.997605
N    -0.628157  -0.381595  0.684628
C    -1.812654  -0.728140  1.481270
C    -1.672621  -2.284411  1.813813
O    -2.350989  -3.094458  1.204196
H    0.043334  0.244763  1.140661
H    -1.688163  -0.170054  2.420267
C    -3.177211  -0.370732  0.852176
C    -4.339672  -0.141420  1.844937
C    -5.018633  -1.397983  2.418167
C    -6.195048  -1.135954  3.363335
N    -7.473048  -0.685948  2.660232
H    -3.454554  -1.134763  0.113795
H    -3.023128  0.573894  0.311096
H    -5.074704  0.458421  1.284200
H    -4.002746  0.512288  2.666104
H    -4.307569  -1.981323  3.021958
H    -5.328080  -2.079459  1.609193
H    -6.470461  -2.051162  3.900248
H    -5.971876  -0.359179  4.105854
H    -8.236567  -0.561620  3.343466
H    -7.796485  -1.382495  1.972594
H    -7.364738  0.212026  2.168725
N    -0.758912  -2.599389  2.763177
C    -0.587052  -3.955313  3.265629
H    -0.328094  -1.844938  3.296403
H    0.441822  -4.058440  3.634161
H    -0.807304  -4.668745  2.462726
H    -1.265672  -4.162871  4.110590
Hg    1.974722  0.212244  -2.778453
