35
Energy: -571611.3056668  eV PBE+vdW (tier 2 basis)
C    -1.387719  0.255087  0.105775
C    -0.885968  0.262410  1.514738
O    0.282841  0.438060  1.844477
H    -1.933956  1.198314  -0.071670
H    -2.082820  -0.570380  -0.095492
H    -0.536447  0.212663  -0.579857
N    -1.859724  0.051157  2.518313
C    -1.599641  -0.202341  3.892510
C    -1.094365  1.151125  4.649014
O    -1.895878  1.428429  5.583850
H    -2.827397  -0.043780  2.204868
H    -2.560439  -0.434170  4.368465
C    -0.579924  -1.339395  4.253137
C    -1.136592  -2.729328  3.893493
C    -0.160673  -3.853829  4.314126
C    -0.728413  -5.232390  3.960492
N    0.215861  -6.356743  4.362626
H    -0.389680  -1.275584  5.334200
H    0.368737  -1.138139  3.737775
H    -1.319558  -2.784777  2.809389
H    -2.107276  -2.886922  4.389283
H    0.023500  -3.796329  5.398581
H    0.808283  -3.708341  3.811258
H    -0.891769  -5.348449  2.881837
H    -1.674995  -5.434546  4.477068
H    -0.181584  -7.277134  4.116938
H    0.396629  -6.367780  5.377720
H    1.128654  -6.285928  3.888162
N    0.000738  1.741007  4.247984
C    0.596026  2.958430  4.811937
H    0.427919  1.315980  3.402827
H    1.516447  3.161698  4.253030
H    0.871679  2.812644  5.865297
H    -0.069457  3.823600  4.685228
Hg    -1.954528  3.165580  7.090145
