35
Energy: -571611.5297079  eV PBE+vdW (tier 2 basis)
C    2.064001  0.043826  0.002177
C    1.670909  -0.700174  1.237629
O    2.640262  -1.016584  2.011367
H    2.682141  -0.613273  -0.627751
H    2.702353  0.894046  0.285787
H    1.200776  0.409944  -0.564863
N    0.368391  -0.981264  1.444206
C    -0.326538  -1.349968  2.696466
C    -0.485110  -2.887873  2.846700
O    0.461129  -3.605497  3.352722
H    -0.237659  -0.707773  0.673557
H    0.345597  -1.077171  3.527630
C    -1.589607  -0.474069  2.942115
C    -2.650466  -0.276929  1.836376
C    -3.772048  0.668695  2.333262
C    -4.816132  0.956328  1.250495
N    -5.908453  1.891255  1.751029
H    -1.202722  0.517556  3.219878
H    -2.064023  -0.867394  3.854373
H    -3.107185  -1.226275  1.512187
H    -2.196618  0.164786  0.934305
H    -3.318307  1.614308  2.669738
H    -4.260952  0.219438  3.212023
H    -5.330339  0.047223  0.914103
H    -4.378813  1.449275  0.373155
H    -5.533715  2.806270  2.044818
H    -6.420674  1.497331  2.555056
H    -6.604696  2.074830  1.011156
N    -1.593673  -3.504034  2.504003
C    -1.815778  -4.955791  2.634617
H    -2.370495  -2.935706  2.177593
H    -2.726455  -5.213102  2.087846
H    -1.931214  -5.224358  3.692716
H    -0.961999  -5.499706  2.215362
Hg    2.409114  -2.647166  3.428166
