35
Energy: -571611.1052131  eV PBE+vdW (tier 2 basis)
C    0.593192  0.668798  0.083728
C    0.287209  0.404768  1.510591
O    1.275543  0.244160  2.314541
H    1.302769  -0.105361  -0.257182
H    -0.298572  0.630419  -0.550111
H    1.128358  1.624199  -0.024457
N    -0.974960  0.278980  1.990410
C    -2.108515  1.183980  1.780081
C    -1.948904  2.338643  2.813642
O    -1.346029  2.188331  3.939683
H    -1.033756  -0.251067  2.863653
H    -2.032649  1.606869  0.767420
C    -3.430851  0.381509  1.931259
C    -4.728285  1.083015  1.488669
C    -5.921015  0.097973  1.485642
C    -7.217676  0.767374  1.024535
N    -8.383332  -0.211978  1.001760
H    -3.523057  0.045057  2.976689
H    -3.284839  -0.523028  1.321658
H    -4.601378  1.496528  0.474883
H    -4.962913  1.924996  2.158946
H    -6.055937  -0.315975  2.497573
H    -5.686541  -0.748083  0.820245
H    -7.139346  1.163845  0.004332
H    -7.524756  1.583766  1.690191
H    -8.573560  -0.611097  1.933424
H    -8.214570  -1.000456  0.358775
H    -9.250772  0.251705  0.689035
N    -2.519473  3.502638  2.549196
C    -2.478966  4.693891  3.402139
H    -3.084858  3.567482  1.702220
H    -3.378430  4.735453  4.033909
H    -2.455653  5.580072  2.758308
H    -1.596564  4.657982  4.046561
Hg    0.671102  1.191257  4.237166
