35
Energy: -571610.8669883  eV PBE+vdW (tier 2 basis)
C    0.135933  -1.436153  1.279853
C    -0.223421  -0.507927  2.378310
O    0.619833  -0.027143  3.206466
H    0.841869  -0.945863  0.593386
H    -0.729607  -1.814681  0.729041
H    0.668237  -2.297825  1.713970
N    -1.481882  -0.043420  2.604941
C    -2.638671  0.097430  1.719317
C    -3.355145  -1.337176  1.691870
O    -3.040414  -2.112540  0.801207
H    -1.553588  0.450020  3.500836
H    -3.309685  0.792012  2.240737
C    -2.395163  0.624069  0.290717
C    -3.731121  0.951377  -0.408281
C    -3.642950  1.347943  -1.900610
C    -3.201997  2.789991  -2.157047
N    -3.366312  3.156326  -3.627195
H    -1.839378  -0.117241  -0.297541
H    -1.767540  1.523156  0.388554
H    -4.263723  1.738030  0.149589
H    -4.375948  0.061674  -0.374144
H    -4.651077  1.210246  -2.321500
H    -2.985302  0.646401  -2.437728
H    -2.147223  2.973171  -1.918297
H    -3.814441  3.511128  -1.600792
H    -3.075298  4.129200  -3.808673
H    -4.348321  3.072120  -3.931958
H    -2.804661  2.549706  -4.243311
N    -4.265061  -1.624843  2.651939
C    -4.892635  -0.767115  3.648236
H    -4.737560  -2.518876  2.481794
H    -5.200354  -1.407062  4.487510
H    -5.803168  -0.290110  3.252017
H    -4.205460  -0.007040  4.029850
Hg    2.476612  -1.041081  4.117696
