35
Energy: -571611.4657043  eV PBE+vdW (tier 2 basis)
C    1.594476  1.867880  0.837035
C    1.017558  1.218452  2.054863
O    1.535800  0.079027  2.348107
H    1.771686  1.104375  0.067003
H    2.583667  2.278707  1.097798
H    0.957813  2.662818  0.432227
N    0.052039  1.866515  2.729962
C    -0.978580  1.465590  3.743825
C    -0.466510  1.454811  5.208304
O    0.168016  0.465069  5.750289
H    -0.128650  2.789622  2.339201
H    -1.683224  2.307838  3.698554
C    -1.800361  0.199862  3.382264
C    -2.607113  0.367600  2.077630
C    -3.491571  -0.832540  1.658468
C    -4.840750  -0.911381  2.379033
N    -5.740624  -1.971197  1.755751
H    -2.464740  0.013188  4.240088
H    -1.155755  -0.690690  3.300786
H    -1.910432  0.546990  1.247087
H    -3.230906  1.273466  2.146063
H    -2.937925  -1.776703  1.782493
H    -3.677455  -0.724356  0.578845
H    -5.397916  0.031111  2.303393
H    -4.754200  -1.178854  3.439292
H    -6.653348  -2.016220  2.235472
H    -5.326452  -2.914329  1.803852
H    -5.932782  -1.773418  0.761393
N    -0.775173  2.478616  5.977043
C    -0.402649  2.631275  7.390309
H    -1.371078  3.208563  5.586470
H    -0.229167  3.695005  7.585208
H    0.497178  2.047429  7.601866
H    -1.224156  2.278163  8.029416
Hg    1.400284  -0.626285  4.372602
