35
Energy: -571611.0480183  eV PBE+vdW (tier 2 basis)
C    -0.493707  0.591423  0.073398
C    -0.403175  0.586360  1.553066
O    0.187915  1.490773  2.229466
H    0.529794  0.627663  -0.334206
H    -0.999492  1.507052  -0.265662
H    -0.989077  -0.292782  -0.336920
N    -0.964882  -0.363330  2.350631
C    -2.082310  -1.286332  2.126134
C    -1.479802  -2.526249  1.312516
O    -1.505457  -2.511841  0.093188
H    -0.660216  -0.275400  3.325377
H    -2.349652  -1.643957  3.130398
C    -3.349527  -0.729884  1.446046
C    -4.505589  -1.748161  1.521067
C    -5.802672  -1.367857  0.769218
C    -6.691185  -0.356763  1.495985
N    -8.044841  -0.226318  0.808106
H    -3.135840  -0.485926  0.397056
H    -3.606637  0.204500  1.967744
H    -4.744373  -1.967941  2.573883
H    -4.170407  -2.697283  1.078991
H    -6.371670  -2.300855  0.634528
H    -5.559519  -1.005029  -0.241811
H    -6.269319  0.655312  1.521801
H    -6.909970  -0.668484  2.525250
H    -8.650936  0.452632  1.293672
H    -8.550389  -1.125407  0.791282
H    -7.954793  0.089318  -0.169258
N    -0.959085  -3.523830  2.065821
C    -0.525460  -4.787417  1.488620
H    -1.072020  -3.483802  3.078052
H    0.235754  -5.223963  2.148470
H    -0.142436  -4.608689  0.476455
H    -1.358922  -5.508208  1.419268
Hg    2.107885  2.661985  1.704250
