35
Energy: -571611.2486138  eV PBE+vdW (tier 2 basis)
C    -0.316314  -1.432270  0.724087
C    -0.092906  -0.913604  2.097132
O    0.265270  -1.617580  3.088763
H    -1.273871  -1.977955  0.692873
H    0.466050  -2.162910  0.476858
H    -0.322743  -0.651717  -0.043510
N    -0.338165  0.389830  2.430448
C    -1.202653  1.315729  1.727163
C    -0.276319  2.315160  0.864548
O    -0.578642  2.413828  -0.312828
H    -0.073470  0.616376  3.395372
H    -1.756971  0.770498  0.957166
C    -2.181855  2.074842  2.648627
C    -3.143528  3.002519  1.880531
C    -4.232051  3.608678  2.792639
C    -5.184177  4.500284  1.992124
N    -6.277039  5.099392  2.866429
H    -1.623846  2.642038  3.411251
H    -2.759426  1.304492  3.184683
H    -3.623532  2.434244  1.068675
H    -2.579999  3.814836  1.396777
H    -3.760000  4.194921  3.597179
H    -4.801318  2.798121  3.275000
H    -5.703077  3.944547  1.201045
H    -4.667055  5.351328  1.531617
H    -6.861175  4.373382  3.307486
H    -5.891386  5.684631  3.622408
H    -6.907545  5.698755  2.311483
N    0.740427  2.947374  1.474408
C    1.550373  3.960143  0.793693
H    0.823564  2.883866  2.486716
H    2.533235  3.993880  1.278346
H    1.091958  4.958154  0.866785
H    1.639236  3.692285  -0.265736
Hg    1.672142  -3.473892  3.115659
