35
Energy: -571610.7448632  eV PBE+vdW (tier 2 basis)
C    -0.354307  0.419337  -1.106716
C    0.051537  0.673874  0.300416
O    1.281903  0.759573  0.665642
H    0.213337  -0.432295  -1.505828
H    -0.095702  1.304544  -1.712652
H    -1.422350  0.228569  -1.238961
N    -0.815649  0.788318  1.319942
C    -2.228335  0.451358  1.361765
C    -2.793456  1.317612  2.530057
O    -2.072670  1.509952  3.507958
H    -0.415649  1.048222  2.232289
H    -2.680722  0.718985  0.400258
C    -2.553265  -1.059649  1.638367
C    -2.235864  -1.678711  3.017371
C    -3.421994  -1.691875  4.008047
C    -3.418299  -2.795744  5.068154
N    -2.422854  -2.588763  6.207240
H    -2.005782  -1.605798  0.854673
H    -3.617926  -1.198545  1.400419
H    -1.345409  -1.207835  3.464013
H    -1.943118  -2.721327  2.812493
H    -4.350070  -1.876408  3.445022
H    -3.560430  -0.711328  4.490222
H    -3.185820  -3.779488  4.640685
H    -4.399528  -2.861248  5.553104
H    -2.506985  -3.349142  6.900538
H    -2.593427  -1.705219  6.709791
H    -1.445099  -2.584139  5.886645
N    -4.056729  1.803601  2.442526
C    -4.977923  1.802469  1.317937
H    -4.282143  2.445633  3.209176
H    -4.867756  0.903692  0.703576
H    -4.840932  2.699668  0.689749
H    -6.001011  1.845234  1.716156
Hg    2.970483  1.618929  -0.541595
