35
Energy: -571611.3292110  eV PBE+vdW (tier 2 basis)
C    0.425669  -0.283571  0.017070
C    0.013164  -0.655516  1.406208
O    0.628236  -1.675645  1.887186
H    -0.289183  0.384428  -0.476810
H    0.549184  -1.198193  -0.579862
H    1.417723  0.194104  0.062732
N    -0.920875  0.091890  2.020731
C    -1.819269  -0.116424  3.205272
C    -1.139448  0.250875  4.553561
O    -0.401419  -0.562089  5.231068
H    -1.200866  0.891332  1.455102
H    -2.591258  0.649529  3.048614
C    -2.528509  -1.493124  3.209841
C    -3.833615  -1.571812  4.042861
C    -5.088682  -1.067976  3.300625
C    -6.408269  -1.132007  4.079938
N    -7.044894  -2.518415  4.121955
H    -1.845983  -2.278240  3.573722
H    -2.735460  -1.755344  2.162246
H    -3.717194  -1.032850  4.996894
H    -3.957367  -2.629023  4.320572
H    -5.200867  -1.593998  2.338406
H    -4.975505  -0.006281  3.032103
H    -7.160859  -0.487332  3.610940
H    -6.297784  -0.818428  5.125687
H    -7.941047  -2.487806  4.634126
H    -6.457354  -3.220123  4.593393
H    -7.255504  -2.871440  3.176109
N    -1.378658  1.442183  5.064313
C    -0.808308  1.967628  6.312878
H    -2.042140  2.045832  4.579641
H    -1.509391  1.800217  7.142211
H    -0.648953  3.044304  6.190530
H    0.135376  1.460257  6.530505
Hg    0.724854  -1.956949  4.015447
