35
Energy: -571610.9921609  eV PBE+vdW (tier 2 basis)
C    -1.917123  1.632695  0.802985
C    -1.169740  0.927119  1.872348
O    -0.624411  1.639818  2.790499
H    -2.197461  0.968938  -0.021194
H    -1.267230  2.433123  0.408749
H    -2.793788  2.148496  1.223325
N    -0.998491  -0.417811  1.897839
C    -2.031935  -1.448785  1.755515
C    -2.706605  -1.581591  3.153978
O    -2.074460  -1.343741  4.248410
H    -0.206303  -0.719538  2.470635
H    -2.782321  -1.093476  1.034084
C    -1.377086  -2.764504  1.245206
C    -2.353800  -3.889566  0.859097
C    -1.693763  -5.199446  0.360471
C    -1.150438  -5.142672  -1.069594
N    -0.700098  -6.520214  -1.539499
H    -0.674900  -3.127584  2.013499
H    -0.770778  -2.462164  0.378326
H    -3.066604  -3.529401  0.099401
H    -2.950476  -4.178377  1.736841
H    -2.465116  -5.983143  0.412793
H    -0.895779  -5.501891  1.056930
H    -0.274835  -4.490941  -1.176726
H    -1.915058  -4.818463  -1.787031
H    -0.336729  -6.487263  -2.504745
H    -1.476259  -7.199884  -1.532326
H    0.049163  -6.907968  -0.946376
N    -3.953935  -2.019757  3.217696
C    -4.742713  -2.203674  4.438190
H    -4.395916  -2.310728  2.344565
H    -4.329746  -1.590961  5.243374
H    -4.716533  -3.260174  4.744847
H    -5.781376  -1.925394  4.225126
Hg    -0.858756  0.523231  4.705610
