35
Energy: -571610.8924499  eV PBE+vdW (tier 2 basis)
C    0.304626  0.227256  0.466472
C    -0.071725  0.338891  1.897859
O    0.715657  0.147203  2.873145
H    1.307880  0.650352  0.318244
H    -0.392121  0.732917  -0.209836
H    0.372061  -0.837489  0.187717
N    -1.356100  0.590612  2.299911
C    -2.554605  0.353442  1.541897
C    -3.249418  1.761680  1.092891
O    -3.583425  1.721904  -0.085035
H    -1.444704  0.731893  3.311269
H    -2.278003  -0.089302  0.581131
C    -3.608538  -0.539254  2.249786
C    -4.775743  -0.979652  1.343567
C    -5.649633  -2.043626  2.044546
C    -6.662590  -2.782741  1.168266
N    -7.925556  -1.986386  0.849315
H    -3.983752  -0.048428  3.159867
H    -3.054020  -1.433327  2.581075
H    -4.369616  -1.401710  0.410977
H    -5.378395  -0.104563  1.055315
H    -6.151608  -1.619887  2.929458
H    -4.998461  -2.838742  2.439078
H    -7.016267  -3.686328  1.678894
H    -6.241699  -3.082956  0.200340
H    -8.580134  -2.556802  0.291032
H    -7.735179  -1.132980  0.306621
H    -8.426835  -1.709460  1.706462
N    -3.453560  2.762876  1.943480
C    -3.088760  2.899121  3.355600
H    -3.891459  3.577352  1.507796
H    -2.033363  3.175421  3.477806
H    -3.331099  1.996157  3.928376
H    -3.694661  3.710293  3.774257
Hg    2.990656  0.616969  3.006460
