35
Energy: -571611.0828376  eV PBE+vdW (tier 2 basis)
C    0.682028  2.491379  2.989331
C    0.693240  1.148842  2.355257
O    1.726375  0.452927  2.148068
H    1.446318  2.537275  3.775876
H    -0.287670  2.761572  3.420577
H    0.960068  3.249359  2.237178
N    -0.454970  0.574887  1.853602
C    -1.622535  1.283858  1.403285
C    -2.904432  1.041197  2.385409
O    -3.916528  1.604025  1.997920
H    -0.302761  -0.368016  1.480217
H    -1.456053  2.359439  1.551697
C    -2.029065  1.054139  -0.066646
C    -2.621082  -0.309656  -0.469731
C    -3.138052  -0.265805  -1.925946
C    -3.789664  -1.582664  -2.349890
N    -4.327122  -1.509614  -3.772741
H    -1.145045  1.288084  -0.680156
H    -2.771771  1.840264  -0.270707
H    -3.457040  -0.565260  0.199319
H    -1.871941  -1.112320  -0.373804
H    -2.304657  -0.026949  -2.605646
H    -3.870608  0.552238  -2.016276
H    -4.648313  -1.842348  -1.718051
H    -3.083936  -2.422593  -2.336905
H    -5.042052  -0.773802  -3.877468
H    -4.767132  -2.400578  -4.050478
H    -3.582616  -1.312807  -4.458333
N    -2.750188  0.337536  3.502619
C    -3.851248  0.077379  4.444895
H    -1.862645  -0.136231  3.647447
H    -3.415124  -0.095598  5.434677
H    -4.421945  -0.811215  4.144127
H    -4.516966  0.946325  4.471811
Hg    3.730179  0.376112  3.380385
