35
Energy: -571610.6821734  eV PBE+vdW (tier 2 basis)
C    -1.222785  0.707540  0.195188
C    -0.905525  0.333243  1.596417
O    0.147669  0.858316  2.107883
H    -2.289368  0.638152  -0.030353
H    -0.638337  0.080932  -0.498339
H    -0.875973  1.738936  0.031644
N    -1.674488  -0.456197  2.388742
C    -2.235893  -1.793016  2.115657
C    -1.022986  -2.765190  2.228230
O    0.152660  -2.343637  1.934427
H    -1.436327  -0.337187  3.376666
H    -2.911735  -1.990647  2.961925
C    -3.028868  -1.981041  0.803170
C    -4.376655  -1.228007  0.758775
C    -5.075042  -1.411502  -0.604820
C    -6.332118  -0.574877  -0.862253
N    -7.609428  -1.145786  -0.251450
H    -3.216079  -3.059816  0.695789
H    -2.400896  -1.716987  -0.058805
H    -4.217011  -0.154612  0.946574
H    -5.013103  -1.587753  1.583733
H    -5.286931  -2.476299  -0.795900
H    -4.377031  -1.118654  -1.404404
H    -6.534845  -0.516776  -1.938183
H    -6.245445  0.449547  -0.478703
H    -7.814840  -2.089171  -0.613318
H    -7.574770  -1.204453  0.775384
H    -8.419839  -0.552331  -0.490224
N    -1.170770  -4.033532  2.582962
C    -2.381077  -4.813062  2.816932
H    -0.286367  -4.548805  2.655038
H    -3.251190  -4.166339  2.957698
H    -2.229491  -5.427638  3.714364
H    -2.556709  -5.493689  1.969355
Hg    1.495241  -0.734493  2.926214
