35
Energy: -571611.2627287  eV PBE+vdW (tier 2 basis)
C    -0.300888  1.782229  0.263634
C    -0.320119  0.641188  1.212981
O    0.651763  -0.166502  1.361020
H    -0.092163  1.410805  -0.750070
H    0.527998  2.454186  0.538609
H    -1.221963  2.370415  0.246592
N    -1.397791  0.309949  1.976861
C    -2.806218  0.623380  1.792614
C    -3.251944  1.188505  3.230541
O    -3.652745  0.404673  4.070858
H    -1.203870  -0.463027  2.625478
H    -2.905551  1.422770  1.047612
C    -3.646314  -0.612043  1.409843
C    -5.141933  -0.320389  1.189209
C    -5.924805  -1.605591  0.840194
C    -7.413299  -1.315696  0.641241
N    -8.198342  -2.579300  0.316491
H    -3.523547  -1.369244  2.198851
H    -3.203814  -1.020311  0.487958
H    -5.264170  0.415420  0.378969
H    -5.575105  0.123767  2.097846
H    -5.795885  -2.340380  1.650932
H    -5.508234  -2.056066  -0.074861
H    -7.594792  -0.625865  -0.192435
H    -7.877693  -0.897774  1.543200
H    -9.199321  -2.369702  0.179895
H    -8.135449  -3.277367  1.072684
H    -7.862947  -3.031199  -0.547355
N    -3.118524  2.524197  3.408110
C    -3.624014  3.197867  4.597438
H    -2.878793  3.102567  2.605051
H    -4.689749  3.463351  4.492678
H    -3.058283  4.128532  4.731811
H    -3.519798  2.526766  5.459133
Hg    2.915073  0.256813  1.251991
