35
Energy: -571610.9506932  eV PBE+vdW (tier 2 basis)
C    -0.262656  -0.977163  0.413005
C    -0.161655  -0.070126  1.586265
O    0.836090  -0.087378  2.396497
H    -0.036615  -2.006368  0.721960
H    -1.235834  -0.959162  -0.084380
H    0.497621  -0.677960  -0.328224
N    -1.111703  0.812966  1.935301
C    -2.481728  0.942413  1.468202
C    -2.788287  2.474394  1.627723
O    -2.318745  3.055894  2.602123
H    -0.870026  1.449262  2.707912
H    -2.533717  0.631178  0.419649
C    -3.552907  0.141771  2.284410
C    -3.545010  0.360633  3.802747
C    -4.594053  -0.458150  4.596929
C    -6.014676  0.108409  4.551338
N    -6.935457  -0.642037  5.505609
H    -3.373407  -0.920205  2.047684
H    -4.529806  0.388017  1.840267
H    -3.658856  1.430153  4.046245
H    -2.561302  0.074891  4.202449
H    -4.254753  -0.471740  5.644124
H    -4.592818  -1.504709  4.253451
H    -6.482845  0.029280  3.562610
H    -6.047046  1.158070  4.869881
H    -6.608587  -0.575836  6.481799
H    -7.001187  -1.644647  5.273906
H    -7.893907  -0.260979  5.481329
N    -3.567665  3.097455  0.709674
C    -4.068967  2.617317  -0.566429
H    -3.613023  4.110369  0.862732
H    -3.349945  2.816754  -1.379657
H    -4.982608  3.179300  -0.804569
H    -4.301743  1.548480  -0.534920
Hg    2.993709  -0.476046  1.881920
