35
Energy: -571610.9242491  eV PBE+vdW (tier 2 basis)
C    -0.354074  -1.808304  -0.436294
C    0.115242  -1.147457  0.808518
O    1.203001  -1.481184  1.408745
H    -1.340032  -1.478405  -0.773061
H    -0.368111  -2.897387  -0.291412
H    0.365593  -1.592088  -1.243126
N    -0.563604  -0.182929  1.452272
C    -1.956124  0.226057  1.336166
C    -1.902988  1.778933  1.614929
O    -1.244838  2.147541  2.583163
H    -0.072423  0.236610  2.253836
H    -2.319044  0.001345  0.327815
C    -2.864049  -0.441876  2.416566
C    -4.338474  -0.007112  2.345202
C    -5.296803  -0.756655  3.301817
C    -5.215000  -0.309436  4.762854
N    -6.320165  -0.949073  5.594033
H    -2.422746  -0.218061  3.399440
H    -2.786935  -1.528773  2.257594
H    -4.716831  -0.187600  1.328201
H    -4.431345  1.076310  2.519956
H    -5.127141  -1.842463  3.227444
H    -6.318497  -0.575996  2.933491
H    -5.351802  0.774207  4.868934
H    -4.273831  -0.589084  5.251426
H    -7.256547  -0.694258  5.244276
H    -6.272361  -0.646812  6.579210
H    -6.263622  -1.978497  5.588331
N    -2.562280  2.644086  0.807730
C    -3.262155  2.407937  -0.442670
H    -2.366948  3.622507  1.043342
H    -4.006520  3.204933  -0.571344
H    -3.769837  1.438677  -0.445271
H    -2.575039  2.467919  -1.304384
Hg    3.123507  -2.175794  0.475688
