35
Energy: -571610.6504305  eV PBE+vdW (tier 2 basis)
C    -1.159922  1.188124  0.570167
C    -0.795409  0.353907  1.743340
O    0.299839  0.645951  2.342872
H    -0.641936  0.813514  -0.327891
H    -0.772071  2.203597  0.739439
H    -2.238623  1.227292  0.401214
N    -1.564604  -0.637272  2.261743
C    -2.189169  -1.785010  1.577745
C    -1.010278  -2.759402  1.276497
O    0.164042  -2.283886  1.074994
H    -1.277555  -0.871676  3.215533
H    -2.827216  -2.252457  2.343502
C    -3.060917  -1.501761  0.333223
C    -4.425830  -0.848452  0.645269
C    -5.293261  -0.733632  -0.627797
C    -6.796930  -0.514773  -0.437122
N    -7.205166  0.924971  -0.134116
H    -3.246735  -2.474600  -0.146174
H    -2.494460  -0.926392  -0.411060
H    -4.276566  0.134616  1.119888
H    -4.951795  -1.469876  1.387852
H    -5.230251  -1.682971  -1.182193
H    -4.884834  0.021078  -1.319302
H    -7.210681  -1.123293  0.376909
H    -7.334202  -0.772395  -1.357600
H    -8.232332  0.998731  -0.059767
H    -6.914819  1.568984  -0.884919
H    -6.816454  1.276890  0.751199
N    -1.189963  -4.069481  1.186209
C    -2.416527  -4.858511  1.215038
H    -0.323800  -4.595969  1.026404
H    -3.254257  -4.281213  1.615168
H    -2.244680  -5.743656  1.842133
H    -2.658601  -5.209069  0.199485
Hg    1.622682  -1.162299  2.485436
