35
Energy: -571610.9138477  eV PBE+vdW (tier 2 basis)
C    -1.911496  0.263144  -0.436888
C    -1.077826  0.269209  0.791206
O    0.023396  -0.387264  0.769792
H    -1.984441  -0.776882  -0.795612
H    -1.404631  0.814823  -1.243902
H    -2.918854  0.654943  -0.264186
N    -1.447279  0.900848  1.933035
C    -1.907108  2.291753  2.039439
C    -0.623128  3.166811  2.046014
O    0.500609  2.702659  2.481098
H    -0.917319  0.599516  2.754381
H    -2.503885  2.528052  1.147468
C    -2.734064  2.528864  3.327462
C    -4.122555  1.856085  3.356813
C    -4.901174  2.280545  4.621986
C    -6.392495  1.936894  4.678059
N    -6.700404  0.515819  5.143775
H    -2.863779  3.614957  3.444244
H    -2.129567  2.212321  4.193289
H    -4.009332  0.761741  3.303450
H    -4.692391  2.160023  2.464153
H    -4.870117  3.378226  4.698833
H    -4.395962  1.920850  5.533254
H    -6.891292  2.053532  3.707697
H    -6.902933  2.585855  5.399479
H    -7.720538  0.363855  5.188382
H    -6.331184  0.339055  6.090052
H    -6.317082  -0.205436  4.518246
N    -0.646768  4.441990  1.693395
C    -1.778133  5.311093  1.381188
H    0.270295  4.901556  1.732695
H    -1.517537  5.906638  0.495378
H    -1.954386  6.007251  2.214956
H    -2.684347  4.734918  1.179465
Hg    1.597027  0.832684  1.796541
