35
Energy: -571611.0366019  eV PBE+vdW (tier 2 basis)
C    -1.033174  0.220380  -0.291817
C    -0.595708  0.255027  1.124511
O    0.114950  1.185223  1.626836
H    -1.541683  -0.706779  -0.569980
H    -0.145119  0.333626  -0.933734
H    -1.682204  1.084174  -0.500392
N    -0.935879  -0.684131  2.051666
C    -2.081811  -1.599804  2.117555
C    -1.691669  -2.863136  1.218679
O    -2.099029  -2.931798  0.071179
H    -0.416876  -0.564990  2.927594
H    -2.114388  -1.928854  3.165808
C    -3.451651  -1.019320  1.720805
C    -4.642158  -1.915124  2.122122
C    -5.970797  -1.323570  1.605705
C    -7.219423  -2.194493  1.757191
N    -7.840712  -2.163741  3.151691
H    -3.477886  -0.853357  0.635688
H    -3.541827  -0.038884  2.212882
H    -4.657386  -2.030828  3.218408
H    -4.513963  -2.920826  1.692773
H    -5.880545  -1.152344  0.522206
H    -6.152150  -0.326504  2.039607
H    -7.027570  -3.251342  1.532969
H    -8.012211  -1.844773  1.085431
H    -8.692221  -2.746113  3.182214
H    -8.121620  -1.208840  3.420079
H    -7.207722  -2.519297  3.880860
N    -0.892438  -3.782351  1.812115
C    -0.560400  -5.049687  1.178547
H    -0.694342  -3.689037  2.807645
H    0.396743  -5.399204  1.587076
H    -0.517947  -4.909248  0.091600
H    -1.318036  -5.822387  1.396448
Hg    1.799121  2.414067  0.635402
