35
Energy: -571610.5094286  eV PBE+vdW (tier 2 basis)
C    -0.676464  1.599476  -1.004441
C    -0.104889  0.376473  -0.385458
O    0.732446  -0.291292  -1.088113
H    -0.895437  2.377134  -0.268976
H    -1.590424  1.339222  -1.564252
H    0.039147  1.978525  -1.747800
N    -0.349221  -0.041054  0.886499
C    -1.648030  -0.245808  1.553972
C    -2.259161  -1.504244  0.856592
O    -1.945078  -1.758280  -0.358505
H    0.345383  -0.730188  1.186468
H    -1.387253  -0.535914  2.583487
C    -2.648438  0.936006  1.628058
C    -2.444434  1.929068  2.798040
C    -1.328571  2.976895  2.637389
C    -1.085075  3.877951  3.853742
N    -2.164588  4.932346  4.084189
H    -3.644298  0.490297  1.759086
H    -2.710101  1.454152  0.663255
H    -2.281430  1.359881  3.728060
H    -3.415264  2.432974  2.925858
H    -1.509212  3.603211  1.748037
H    -0.360220  2.482725  2.463378
H    -1.019404  3.306283  4.788274
H    -0.152382  4.441902  3.735206
H    -2.263808  5.566009  3.276913
H    -1.923445  5.521245  4.897293
H    -3.090427  4.525284  4.277227
N    -3.117458  -2.299787  1.479973
C    -3.753530  -2.165780  2.785415
H    -3.402719  -3.115570  0.926631
H    -3.724255  -3.141558  3.288903
H    -4.811704  -1.887511  2.656419
H    -3.250243  -1.416627  3.402120
Hg    0.060864  -2.424315  -1.334991
