35
Energy: -571611.4092571  eV PBE+vdW (tier 2 basis)
C    -0.533315  -0.118534  0.316597
C    -0.083180  -0.173699  1.741592
O    1.102116  -0.644375  1.911976
H    -0.046730  0.744691  -0.167128
H    -1.621096  -0.035703  0.212879
H    -0.174124  -1.010365  -0.214693
N    -0.915836  0.278409  2.694899
C    -1.012226  0.106333  4.182867
C    -0.150482  1.097384  5.009355
O    1.111598  0.938406  5.257000
H    -1.764523  0.678555  2.298151
H    -2.049767  0.411481  4.377943
C    -0.909963  -1.356644  4.689597
C    -2.035673  -2.255003  4.125231
C    -2.433272  -3.486649  4.974161
C    -1.475424  -4.677767  4.906368
N    -2.071431  -5.894913  5.603626
H    -0.989252  -1.295843  5.786507
H    0.080175  -1.793036  4.482577
H    -1.793851  -2.573225  3.100122
H    -2.951087  -1.649972  4.040833
H    -3.418816  -3.809850  4.603759
H    -2.583043  -3.181710  6.022013
H    -0.514068  -4.491534  5.400764
H    -1.282015  -4.992039  3.872759
H    -2.265340  -5.716242  6.600784
H    -1.434209  -6.705329  5.558866
H    -2.961004  -6.186479  5.169353
N    -0.760498  2.117161  5.576053
C    -0.122976  3.138677  6.418491
H    -1.773787  2.183647  5.477905
H    -0.245716  2.871899  7.477681
H    -0.621395  4.095883  6.230674
H    0.942201  3.203605  6.181485
Hg    2.159004  -0.078221  3.691949
