35
Energy: -571610.9791719  eV PBE+vdW (tier 2 basis)
C    0.273505  3.169398  1.326103
C    0.157258  1.835238  1.965065
O    0.951613  1.565704  2.936214
H    -0.057014  3.956097  2.022282
H    -0.267400  3.227926  0.376109
H    1.342775  3.369762  1.145249
N    -0.713613  0.885592  1.545205
C    -2.150038  1.066870  1.302117
C    -2.835575  0.931123  2.688688
O    -2.301064  0.238375  3.637858
H    -0.485095  -0.054406  1.877343
H    -2.307683  2.084661  0.918320
C    -2.683793  0.018563  0.289051
C    -2.074881  0.196382  -1.115495
C    -2.349194  -0.939644  -2.129081
C    -3.753262  -0.936305  -2.737470
N    -3.861978  -1.947689  -3.871965
H    -3.779903  0.098465  0.261856
H    -2.463106  -0.986718  0.684456
H    -0.981778  0.263985  -1.018996
H    -2.398752  1.158695  -1.542862
H    -2.141273  -1.916390  -1.663992
H    -1.614632  -0.820331  -2.940657
H    -4.005542  0.035593  -3.180504
H    -4.538071  -1.207067  -2.020580
H    -3.670353  -2.909953  -3.554591
H    -3.196718  -1.740318  -4.632818
H    -4.806268  -1.947083  -4.287761
N    -4.028344  1.451613  2.927722
C    -4.971731  2.096805  2.018416
H    -4.362758  1.303284  3.886529
H    -5.813437  1.419691  1.811555
H    -4.489863  2.390523  1.082678
H    -5.372165  2.989638  2.517750
Hg    -0.199239  0.444677  4.488772
