35
Energy: -571610.8346175  eV PBE+vdW (tier 2 basis)
C    0.540714  -1.560331  0.656180
C    0.161000  -0.421709  1.531161
O    0.978738  0.131948  2.352896
H    -0.289221  -1.979889  0.081789
H    0.996734  -2.354515  1.263738
H    1.303522  -1.214481  -0.061156
N    -1.077412  0.103847  1.587052
C    -2.344401  -0.447673  1.137080
C    -3.197207  0.828790  0.756282
O    -3.214345  1.762908  1.548590
H    -1.172753  0.934842  2.187036
H    -2.177579  -1.086200  0.260689
C    -3.069931  -1.254238  2.262727
C    -4.452775  -1.843453  1.896666
C    -5.684998  -1.011879  2.323020
C    -6.173688  -1.200966  3.763181
N    -7.045144  -2.442120  3.940079
H    -3.130647  -0.611702  3.154017
H    -2.378899  -2.074727  2.507258
H    -4.501822  -2.850190  2.339360
H    -4.508232  -2.031396  0.814439
H    -6.520094  -1.206382  1.632076
H    -5.481754  0.063449  2.216742
H    -6.803994  -0.361155  4.078066
H    -5.355026  -1.300185  4.487382
H    -7.360055  -2.534621  4.918544
H    -6.555241  -3.314899  3.697510
H    -7.893660  -2.393261  3.355739
N    -3.855368  0.795945  -0.421981
C    -4.509240  1.972980  -0.985033
H    -3.721593  -0.005329  -1.036496
H    -3.816645  2.543845  -1.626341
H    -4.842653  2.625220  -0.169840
H    -5.347427  1.639306  -1.610234
Hg    3.191296  0.433482  2.093408
