35
Energy: -571611.2430725  eV PBE+vdW (tier 2 basis)
C    0.164218  0.374888  -0.170203
C    -0.042264  -0.001997  1.262865
O    0.890749  -0.732653  1.758707
H    -0.730348  0.808668  -0.631586
H    0.470977  -0.517606  -0.735007
H    1.003634  1.085282  -0.231147
N    -1.140980  0.448174  1.894088
C    -1.866808  0.049068  3.146800
C    -1.279204  0.725158  4.416070
O    -0.286606  0.249702  5.087734
H    -1.690951  1.070376  1.304437
H    -2.855672  0.504300  2.998214
C    -2.073000  -1.480124  3.275369
C    -3.255498  -1.956366  4.154736
C    -4.655158  -1.798342  3.507745
C    -5.652085  -2.937149  3.748721
N    -6.243037  -2.995685  5.154734
H    -1.159803  -1.961991  3.663425
H    -2.196599  -1.876649  2.257205
H    -3.215934  -1.475323  5.144340
H    -3.062694  -3.024194  4.338533
H    -4.550379  -1.780773  2.411498
H    -5.121463  -0.835610  3.768915
H    -5.200356  -3.921401  3.571566
H    -6.514439  -2.835289  3.078872
H    -5.533036  -3.149705  5.884278
H    -6.917045  -3.775029  5.226732
H    -6.758718  -2.135346  5.392459
N    -1.860007  1.821893  4.861285
C    -1.418477  2.610903  6.020292
H    -2.704419  2.141430  4.387928
H    -1.648311  3.663779  5.825450
H    -0.344240  2.473399  6.172591
H    -1.955624  2.285874  6.921955
Hg    1.170579  -0.822664  3.888400
