35
Energy: -571610.7666435  eV PBE+vdW (tier 2 basis)
C    -1.267403  1.312802  1.381336
C    -0.854998  0.121317  2.179124
O    0.377095  -0.222169  2.361230
H    -2.354754  1.429327  1.325031
H    -0.876650  1.217798  0.356837
H    -0.845537  2.223251  1.835985
N    -1.780616  -0.661209  2.725431
C    -1.509279  -1.935715  3.412699
C    -2.600037  -2.901183  2.903864
O    -3.697152  -2.404196  2.613192
H    -2.763158  -0.506392  2.475826
H    -0.508609  -2.262048  3.099371
C    -1.538282  -1.848096  4.969698
C    -2.878219  -1.791198  5.735209
C    -3.700408  -0.491996  5.616115
C    -4.603187  -0.168516  6.810020
N    -5.790715  -1.112178  6.982744
H    -0.912523  -0.986103  5.245895
H    -0.995524  -2.735511  5.326714
H    -2.596718  -1.936112  6.790480
H    -3.493828  -2.666235  5.471659
H    -4.290925  -0.472574  4.686533
H    -3.018702  0.371186  5.560299
H    -5.040126  0.831958  6.708091
H    -4.053353  -0.205493  7.759189
H    -6.404021  -1.117156  6.154542
H    -6.370901  -0.817380  7.784004
H    -5.501962  -2.083141  7.166338
N    -2.390082  -4.235895  2.821839
C    -1.178699  -5.001901  3.023948
H    -3.204769  -4.750896  2.470840
H    -1.404025  -5.864938  3.672549
H    -0.383658  -4.403298  3.473903
H    -0.832314  -5.420139  2.061701
Hg    2.121081  1.033578  1.710146
