35
Energy: -571610.9130352  eV PBE+vdW (tier 2 basis)
C    -0.034304  -0.166293  2.885817
C    -0.009305  -0.339553  1.408402
O    1.013673  -0.744048  0.763550
H    0.847567  0.417030  3.191487
H    0.048592  -1.150290  3.372343
H    -0.923501  0.350876  3.256430
N    -1.096371  -0.130731  0.625379
C    -2.496339  -0.226594  1.005966
C    -3.092407  -1.455137  0.239866
O    -2.715722  -1.638444  -0.916621
H    -0.917376  -0.281114  -0.375636
H    -2.557028  -0.365984  2.089169
C    -3.346763  1.034852  0.600731
C    -3.300055  1.432631  -0.880091
C    -4.488172  2.280558  -1.391625
C    -4.488312  3.734701  -0.914109
N    -5.587258  4.535004  -1.602236
H    -2.989462  1.847516  1.251359
H    -4.379156  0.809081  0.908844
H    -3.301116  0.518548  -1.500878
H    -2.352071  1.942541  -1.111715
H    -5.436825  1.793420  -1.115191
H    -4.438855  2.267709  -2.491396
H    -3.548731  4.246911  -1.157017
H    -4.672547  3.836111  0.162553
H    -5.586618  5.519245  -1.292979
H    -6.525276  4.155186  -1.404471
H    -5.471248  4.539332  -2.627306
N    -4.012675  -2.253209  0.835271
C    -4.460792  -2.300706  2.214736
H    -4.282016  -3.046418  0.243257
H    -5.511529  -2.626779  2.219114
H    -4.388812  -1.324192  2.701563
H    -3.894732  -3.052181  2.791691
Hg    3.222012  -0.471047  1.292897
