35
Energy: -571610.8262398  eV PBE+vdW (tier 2 basis)
C    -0.019434  -0.120185  -0.114693
C    -0.169320  -0.292119  1.352265
O    0.646612  -0.977002  2.065687
H    0.941816  0.380114  -0.315543
H    -0.809542  0.476180  -0.577831
H    0.019998  -1.107266  -0.597547
N    -1.201346  0.203562  2.068574
C    -2.520313  0.625648  1.631122
C    -2.888480  1.815057  2.619548
O    -2.819721  1.594025  3.821199
H    -1.122693  0.055979  3.083720
H    -2.471565  0.981934  0.594815
C    -3.557821  -0.530929  1.774525
C    -5.038918  -0.267471  1.430882
C    -5.892279  0.396750  2.538439
C    -7.305160  -0.160968  2.723104
N    -8.271641  0.152457  1.582984
H    -3.479173  -0.927258  2.798054
H    -3.187955  -1.315339  1.095921
H    -5.447178  -1.269357  1.220517
H    -5.117744  0.282309  0.479915
H    -5.934627  1.490606  2.415770
H    -5.418354  0.236535  3.519249
H    -7.771667  0.258118  3.622693
H    -7.302955  -1.254327  2.819159
H    -9.204728  -0.240799  1.783847
H    -7.968477  -0.245584  0.683079
H    -8.397487  1.166697  1.451903
N    -3.249456  2.983342  2.055449
C    -3.402905  4.211180  2.837135
H    -3.198547  3.074710  1.042916
H    -3.744119  3.953892  3.846065
H    -4.121171  4.861421  2.323455
H    -2.447063  4.752227  2.918262
Hg    2.874082  -1.221367  1.795152
