35
Energy: -571610.9298150  eV PBE+vdW (tier 2 basis)
C    0.471592  0.198710  0.978395
C    -0.201256  -0.188107  2.240722
O    0.378874  -0.186568  3.376741
H    -0.208559  0.285179  0.127837
H    1.203171  -0.591793  0.735206
H    1.037161  1.127751  1.121354
N    -1.495704  -0.592496  2.334228
C    -2.697080  -0.372489  1.514878
C    -2.540272  -1.206933  0.171055
O    -2.047953  -0.697894  -0.825356
H    -1.691722  -0.991526  3.258427
H    -3.485992  -0.864877  2.099111
C    -3.227805  1.063785  1.284697
C    -2.460902  2.104116  0.457344
C    -3.356364  3.342404  0.210290
C    -2.660643  4.404809  -0.641004
N    -3.571045  5.598001  -0.900996
H    -3.430465  1.460174  2.293348
H    -4.220246  0.906189  0.832484
H    -2.163215  1.675577  -0.511630
H    -1.541591  2.414803  0.976694
H    -3.655336  3.778024  1.177299
H    -4.280910  3.017962  -0.293765
H    -2.375497  4.023548  -1.629522
H    -1.765290  4.810817  -0.154143
H    -3.094873  6.312361  -1.473248
H    -3.865865  6.057592  -0.026270
H    -4.427274  5.326585  -1.407499
N    -3.001585  -2.479900  0.229783
C    -3.131403  -3.314640  -0.954849
H    -3.485741  -2.787133  1.072521
H    -3.090054  -4.365759  -0.640767
H    -2.333230  -3.062632  -1.663680
H    -4.101661  -3.154713  -1.456974
Hg    2.558630  -0.752548  3.899656
