35
Energy: -571611.5333447  eV PBE+vdW (tier 2 basis)
C    2.174620  -0.055082  0.169035
C    1.717117  -0.672812  1.451754
O    2.647350  -0.924047  2.293130
H    2.856196  -0.750830  -0.341549
H    2.761087  0.847421  0.398570
H    1.341895  0.212313  -0.491419
N    0.402116  -0.913680  1.626597
C    -0.339773  -1.174722  2.877095
C    -0.478026  -2.694483  3.171310
O    0.403602  -3.305872  3.887940
H    -0.167726  -0.699721  0.810964
H    0.290763  -0.808473  3.704339
C    -1.624076  -0.303029  2.993800
C    -2.683557  -0.272154  1.870537
C    -3.789688  0.756864  2.213076
C    -4.863121  0.848429  1.124757
N    -5.941509  1.862919  1.478854
H    -1.257140  0.723508  3.143989
H    -2.098881  -0.587057  3.945416
H    -3.160131  -1.254053  1.716934
H    -2.232033  0.005718  0.904233
H    -3.325018  1.745013  2.358780
H    -4.255438  0.478757  3.171814
H    -5.386087  -0.104241  0.973265
H    -4.451401  1.172266  0.160556
H    -5.558666  2.813422  1.596214
H    -6.432717  1.620209  2.352748
H    -6.656743  1.916205  0.736263
N    -1.504438  -3.390250  2.734091
C    -1.708538  -4.829901  2.967630
H    -2.245734  -2.885473  2.254291
H    -0.741150  -5.341209  2.974271
H    -2.338525  -5.222277  2.164013
H    -2.204979  -4.986414  3.934688
Hg    2.354349  -2.336267  3.924014
