35
Energy: -571610.7243203  eV PBE+vdW (tier 2 basis)
C    -0.183374  -1.500562  1.450975
C    -0.667586  -0.536675  2.468069
O    0.098637  0.216090  3.155924
H    0.311550  -0.958905  0.630828
H    0.586459  -2.138548  1.913171
H    -0.970661  -2.147414  1.053780
N    -1.981433  -0.325074  2.754659
C    -3.191325  -0.544271  1.957419
C    -3.572284  -2.088651  2.148620
O    -3.195786  -2.878284  1.295167
H    -2.103997  0.254906  3.591057
H    -3.968123  0.054432  2.450345
C    -3.130683  -0.166282  0.464416
C    -4.518412  -0.196917  -0.212035
C    -4.453816  -0.047426  -1.752521
C    -4.479924  1.369616  -2.336583
N    -5.895599  1.858040  -2.637249
H    -2.462670  -0.857007  -0.065463
H    -2.689198  0.840666  0.405914
H    -5.171355  0.570917  0.234820
H    -4.998270  -1.163202  -0.003282
H    -5.264797  -0.638501  -2.205382
H    -3.537095  -0.526421  -2.124884
H    -3.957379  1.410221  -3.299264
H    -4.033215  2.123614  -1.676547
H    -5.884494  2.810528  -3.033997
H    -6.496033  1.883584  -1.801252
H    -6.359947  1.250368  -3.329556
N    -4.277430  -2.454354  3.245838
C    -4.976824  -1.646298  4.234710
H    -4.543191  -3.444567  3.221871
H    -4.989717  -2.213125  5.177084
H    -6.025476  -1.476105  3.943569
H    -4.478271  -0.690311  4.415299
Hg    2.204805  -0.239715  3.974187
