35
Energy: -571611.0604664  eV PBE+vdW (tier 2 basis)
C    -1.829231  1.403966  -0.781344
C    -1.351708  1.114973  0.608492
O    -0.078814  1.147175  0.751717
H    -2.886616  1.156551  -0.931006
H    -1.213503  0.846120  -1.500467
H    -1.664491  2.472190  -0.992753
N    -2.271241  0.857839  1.555380
C    -2.190247  0.339618  2.952995
C    -1.739485  1.425977  3.962582
O    -0.498342  1.604449  4.290410
H    -3.223028  0.958921  1.209583
H    -3.237476  0.129417  3.200535
C    -1.396349  -0.989988  3.116755
C    -2.213725  -2.305085  3.119580
C    -2.801262  -2.764243  1.769191
C    -2.984795  -4.277144  1.601890
N    -4.077861  -4.897464  2.467786
H    -0.869633  -0.946277  4.080613
H    -0.618482  -1.063798  2.341798
H    -2.997434  -2.235013  3.891116
H    -1.510441  -3.072144  3.479691
H    -2.106690  -2.498791  0.956478
H    -3.744252  -2.244708  1.534100
H    -2.065759  -4.825344  1.845797
H    -3.260443  -4.519993  0.568696
H    -4.147794  -5.911052  2.282271
H    -5.005956  -4.495161  2.270063
H    -3.896962  -4.793717  3.476271
N    -2.611880  2.170875  4.614444
C    -4.075052  2.138566  4.678811
H    -2.170435  2.845718  5.250740
H    -4.442620  3.165966  4.555434
H    -4.390273  1.774031  5.666010
H    -4.504350  1.511124  3.894623
Hg    0.918627  1.455205  2.661006
