35
Energy: -571610.9635905  eV PBE+vdW (tier 2 basis)
C    -1.195324  0.488133  0.006739
C    -0.145709  0.161789  1.003054
O    1.101944  0.304808  0.767693
H    -1.000722  -0.061677  -0.923814
H    -1.122351  1.567960  -0.214898
H    -2.210000  0.274456  0.340951
N    -0.375255  -0.328833  2.253021
C    -1.451008  -1.169028  2.764081
C    -1.530495  -2.518712  1.932361
O    -1.678403  -2.434782  0.718622
H    0.488455  -0.371544  2.802197
H    -1.120359  -1.421778  3.781462
C    -2.861139  -0.506790  2.854122
C    -3.717728  -1.191555  3.939788
C    -5.010794  -0.448659  4.351125
C    -6.173876  -0.580221  3.366202
N    -7.457099  -0.012523  3.960759
H    -3.357721  -0.541064  1.875834
H    -2.700913  0.549537  3.115164
H    -3.116287  -1.277386  4.857569
H    -3.963968  -2.222303  3.639532
H    -4.789185  0.614296  4.537337
H    -5.318761  -0.873708  5.319527
H    -6.394789  -1.628565  3.128530
H    -6.012672  -0.037235  2.427069
H    -8.245309  -0.089238  3.299521
H    -7.362791  0.983950  4.209030
H    -7.732493  -0.513948  4.819393
N    -1.444219  -3.669314  2.625156
C    -1.404297  -4.979078  1.981917
H    -1.226768  -3.626293  3.619362
H    -1.951784  -4.934769  1.033996
H    -1.843506  -5.715551  2.666285
H    -0.365449  -5.284930  1.775030
Hg    2.060708  1.846487  -0.592386
