35
Energy: -571610.7998646  eV PBE+vdW (tier 2 basis)
C    0.014527  -0.360116  -0.425558
C    0.132072  -0.185743  1.069448
O    1.096980  -0.551837  1.712491
H    -0.523087  -1.299656  -0.631084
H    1.018248  -0.437638  -0.854251
H    -0.538185  0.473434  -0.879966
N    -1.010517  0.394188  1.691137
C    -1.366950  0.340109  3.084003
C    -2.014985  1.806884  3.470651
O    -2.826639  1.733805  4.418929
H    -1.817471  0.376545  1.061515
H    -2.234304  -0.323217  3.211360
C    -0.283297  -0.043739  4.099785
C    0.874452  0.929482  4.372972
C    1.961019  0.377740  5.327494
C    2.894988  -0.657507  4.695154
N    4.009630  -1.049363  5.656818
H    0.112213  -1.001158  3.707346
H    -0.806116  -0.281907  5.036673
H    0.477131  1.837857  4.850496
H    1.348465  1.243344  3.431624
H    1.482366  -0.044256  6.225980
H    2.560353  1.236051  5.667853
H    3.392710  -0.269606  3.797810
H    2.389994  -1.593692  4.428667
H    4.585691  -0.237868  5.928184
H    4.644813  -1.742399  5.231605
H    3.643656  -1.467137  6.525752
N    -1.625736  2.847845  2.767940
C    -2.061914  4.237124  2.954658
H    -0.961374  2.647028  2.020132
H    -3.114383  4.359325  2.667343
H    -1.889142  4.568501  3.988092
H    -1.454024  4.869858  2.298549
Hg    -4.243642  3.263897  5.495351
