35
Energy: -571610.8920594  eV PBE+vdW (tier 2 basis)
C    0.199301  -0.420489  -0.018009
C    -0.090443  -0.494407  1.444286
O    0.805509  -0.756527  2.335317
H    0.651245  -1.366325  -0.351570
H    0.913356  0.399026  -0.204752
H    -0.695711  -0.230396  -0.620101
N    -1.338231  -0.315620  1.869193
C    -1.830727  -0.432997  3.250498
C    -3.048044  -1.396646  3.144314
O    -3.802942  -1.211120  2.184615
H    -2.077733  -0.244623  1.161633
H    -1.025081  -0.853519  3.865316
C    -2.290597  0.965036  3.754653
C    -3.036822  1.017979  5.101429
C    -3.238925  2.487714  5.532151
C    -3.903066  2.732206  6.890402
N    -5.429039  2.748711  6.842404
H    -2.918515  1.413316  2.969685
H    -1.378276  1.578413  3.812648
H    -2.461594  0.494102  5.881005
H    -4.004301  0.497041  5.012406
H    -3.771034  3.051353  4.747996
H    -2.251859  2.968343  5.603685
H    -3.623350  3.717162  7.282051
H    -3.628973  1.980547  7.641148
H    -5.831795  1.857351  6.523346
H    -5.820850  2.939537  7.777962
H    -5.778193  3.489261  6.215637
N    -3.281848  -2.372792  4.051337
C    -2.452937  -2.851581  5.140938
H    -4.108890  -2.935222  3.824988
H    -1.933445  -3.781124  4.850092
H    -3.101910  -3.105062  5.991879
H    -1.719356  -2.104201  5.452364
Hg    3.004616  -0.695260  1.864730
