35
Energy: -571611.7362733  eV PBE+vdW (tier 2 basis)
C    -0.544753  -2.011663  0.965374
C    -0.443579  -0.745786  1.753734
O    0.624252  -0.065733  1.551914
H    0.255123  -2.696313  1.285682
H    -0.357835  -1.787366  -0.095752
H    -1.522634  -2.496301  1.067497
N    -1.443942  -0.418819  2.593987
C    -1.785707  0.891494  3.200109
C    -1.149913  1.044344  4.608464
O    0.004211  1.601286  4.759623
H    -2.178221  -1.123845  2.651961
H    -1.319507  1.677303  2.582060
C    -3.317665  1.098114  3.115399
C    -3.806972  2.519591  3.459049
C    -5.319806  2.687471  3.187499
C    -5.792072  4.114114  3.482044
N    -7.275523  4.294976  3.191741
H    -3.837644  0.346136  3.734902
H    -3.594783  0.863497  2.076181
H    -3.248282  3.250253  2.853192
H    -3.593640  2.759861  4.512201
H    -5.889162  1.973317  3.803649
H    -5.528645  2.440501  2.134338
H    -5.272763  4.856885  2.863471
H    -5.656172  4.388295  4.535710
H    -7.576541  5.260965  3.396164
H    -7.863585  3.669199  3.762712
H    -7.502892  4.112055  2.202574
N    -1.786355  0.620211  5.678050
C    -1.260500  0.658537  7.051903
H    -2.736799  0.273896  5.556788
H    -1.546320  1.601299  7.537535
H    -0.169467  0.583217  7.029616
H    -1.690452  -0.180958  7.607318
Hg    1.275534  1.408868  2.999984
