35
Energy: -571610.8995492  eV PBE+vdW (tier 2 basis)
C    -0.362563  0.110502  -0.189549
C    -0.087243  -0.406006  1.174320
O    0.811114  -1.253270  1.462114
H    0.588859  0.294066  -0.708235
H    -0.948541  1.035098  -0.197774
H    -0.891048  -0.660715  -0.773642
N    -0.849646  -0.058446  2.256939
C    -2.196493  0.443209  2.238274
C    -2.225014  2.025812  2.655532
O    -2.913707  2.664415  1.869536
H    -0.481110  -0.414996  3.144645
H    -2.547719  0.469992  1.203315
C    -3.194602  -0.350075  3.120201
C    -4.649359  0.157856  3.067324
C    -5.583867  -0.762107  3.883192
C    -6.998323  -0.242329  4.147540
N    -7.952018  -0.374873  2.962757
H    -3.148529  -1.387758  2.748951
H    -2.844709  -0.375012  4.162911
H    -4.973715  0.223568  2.016480
H    -4.705136  1.177790  3.476886
H    -5.153280  -0.909937  4.885650
H    -5.628694  -1.770272  3.440367
H    -7.012465  0.817828  4.430199
H    -7.467150  -0.815005  4.956531
H    -8.894981  -0.042520  3.219347
H    -8.052362  -1.356295  2.663561
H    -7.654338  0.173782  2.144550
N    -1.612553  2.491936  3.739045
C    -0.766193  1.810473  4.721848
H    -1.727317  3.500437  3.862072
H    -0.728466  2.441461  5.616644
H    0.261489  1.688781  4.355702
H    -1.192440  0.849240  5.031433
Hg    2.910942  -1.517818  0.492244
