35
Energy: -571611.2835495  eV PBE+vdW (tier 2 basis)
C    -0.019855  1.859946  2.087707
C    -0.211245  0.378413  2.168779
O    0.879185  -0.301435  2.191125
H    -0.924146  2.392886  1.772288
H    0.803754  2.084311  1.396337
H    0.299652  2.223487  3.078014
N    -1.465895  -0.100040  2.226460
C    -2.091070  -1.446061  2.023607
C    -2.022406  -2.376163  3.257878
O    -1.016162  -3.164000  3.498314
H    -2.155744  0.648355  2.259138
H    -3.152672  -1.192732  1.918540
C    -1.709490  -2.168493  0.704244
C    -2.166284  -1.381710  -0.545920
C    -2.389503  -2.202307  -1.839248
C    -1.122184  -2.613044  -2.591518
N    -1.466826  -3.227020  -3.943175
H    -2.217860  -3.144973  0.740597
H    -0.631957  -2.390206  0.656220
H    -1.475524  -0.549549  -0.748672
H    -3.137747  -0.914564  -0.323916
H    -3.000021  -1.570652  -2.503436
H    -2.999246  -3.091508  -1.613477
H    -0.528470  -3.369041  -2.063096
H    -0.477207  -1.752686  -2.811261
H    -0.617486  -3.502152  -4.460544
H    -1.983896  -2.565054  -4.542606
H    -2.051772  -4.071306  -3.849329
N    -3.044005  -2.497591  4.081855
C    -4.403592  -1.947700  4.055957
H    -2.868396  -3.161029  4.846199
H    -4.635309  -1.578350  5.063459
H    -5.116432  -2.745093  3.805342
H    -4.500153  -1.123846  3.345230
Hg    0.883189  -2.280222  3.040506
