35
Energy: -571611.4488333  eV PBE+vdW (tier 2 basis)
C    -1.661447  -3.697446  1.294835
C    -0.884721  -2.473157  1.659350
O    -0.032666  -2.088861  0.782438
H    -2.001897  -3.615156  0.252862
H    -2.521064  -3.868224  1.952742
H    -0.983208  -4.564710  1.331056
N    -1.121973  -1.884088  2.846212
C    -0.743418  -0.542190  3.351196
C    0.628459  -0.567747  4.086629
O    1.728826  -0.320772  3.454520
H    -1.789182  -2.387039  3.430407
H    -0.593004  0.116679  2.480005
C    -1.892108  0.033133  4.216972
C    -3.187894  0.454415  3.476512
C    -3.167145  1.898040  2.935905
C    -4.446476  2.377531  2.239781
N    -5.566130  2.778001  3.196951
H    -1.494224  0.899882  4.765243
H    -2.158112  -0.717169  4.980374
H    -4.005547  0.333791  4.202738
H    -3.414895  -0.249535  2.660285
H    -2.375682  2.011290  2.179117
H    -2.897834  2.603709  3.739014
H    -4.875623  1.618747  1.573230
H    -4.245051  3.276032  1.644749
H    -6.385223  3.121100  2.670067
H    -5.276555  3.541898  3.826418
H    -5.895851  1.998681  3.783492
N    0.695163  -0.805071  5.377742
C    1.933217  -0.871293  6.170921
H    -0.180084  -0.875664  5.895720
H    1.774883  -1.576494  6.993127
H    2.162525  0.121103  6.583376
H    2.761670  -1.198395  5.536421
Hg    1.660273  -0.852021  1.354590
