35
Energy: -571610.7945769  eV PBE+vdW (tier 2 basis)
C    0.982149  0.423257  2.277773
C    -0.139801  1.213649  2.841104
O    -0.002951  2.268107  3.534200
H    1.939099  0.890133  2.531630
H    0.883096  0.334164  1.186662
H    0.987373  -0.593697  2.700334
N    -1.459711  0.844798  2.717681
C    -2.063902  -0.458867  2.547935
C    -1.787072  -1.333685  3.882083
O    -0.694124  -1.888624  3.929089
H    -2.081002  1.563804  3.100930
H    -3.145088  -0.256671  2.557926
C    -1.678240  -1.245844  1.279988
C    -2.640907  -2.414665  0.977206
C    -2.332624  -3.022517  -0.408972
C    -3.330697  -4.046789  -0.954852
N    -3.136805  -5.463188  -0.418803
H    -0.652701  -1.625068  1.359494
H    -1.705304  -0.528482  0.445601
H    -3.680542  -2.049709  0.981746
H    -2.561384  -3.175239  1.770745
H    -1.312052  -3.438221  -0.434883
H    -2.330023  -2.212528  -1.154237
H    -3.223414  -4.138472  -2.042191
H    -4.373040  -3.779642  -0.739958
H    -2.198254  -5.827159  -0.641538
H    -3.817815  -6.108961  -0.848478
H    -3.262817  -5.528546  0.600255
N    -2.735975  -1.374921  4.818605
C    -4.061005  -0.746068  4.825983
H    -2.494870  -1.956782  5.623872
H    -4.533022  -0.989467  5.783784
H    -4.705824  -1.140862  4.029663
H    -3.993818  0.347159  4.760889
Hg    1.557239  3.940700  3.253731
