35
Energy: -571610.8401798  eV PBE+vdW (tier 2 basis)
C    -2.134727  0.559185  -0.781090
C    -1.899135  0.149528  0.632781
O    -1.725874  -0.995369  1.025168
H    -3.126342  1.020834  -0.899976
H    -2.057781  -0.313117  -1.436429
H    -1.381973  1.310016  -1.074334
N    -1.875821  1.172253  1.619844
C    -1.744740  0.836443  2.977776
C    -3.196206  0.417023  3.659409
O    -4.028502  1.353059  3.646889
H    -2.164220  2.116745  1.353798
H    -1.254168  -0.160328  2.978605
C    -1.094420  1.913773  3.858866
C    0.395932  2.209270  3.533849
C    1.407050  1.163273  4.035437
C    2.877059  1.446310  3.705186
N    3.515258  2.535691  4.562789
H    -1.198020  1.612389  4.911906
H    -1.663687  2.848235  3.752741
H    0.595788  3.188311  3.996598
H    0.514701  2.357051  2.449348
H    1.207728  0.184300  3.572583
H    1.294241  1.003099  5.120475
H    3.488001  0.552025  3.875279
H    3.018813  1.761282  2.663595
H    3.487351  2.299878  5.566128
H    3.067401  3.455315  4.445344
H    4.509676  2.654707  4.311905
N    -3.335712  -0.797958  4.133346
C    -2.369974  -1.915624  4.187917
H    -4.258690  -0.999481  4.529686
H    -1.455416  -1.611424  4.709474
H    -2.150938  -2.287486  3.180986
H    -2.837083  -2.716685  4.769188
Hg    -6.270216  1.399389  4.388662
