35
Energy: -571611.2480446  eV PBE+vdW (tier 2 basis)
C    0.742274  -0.735922  1.542174
C    0.088439  0.210336  2.480873
O    0.454237  0.412487  3.677906
H    1.833489  -0.659295  1.646441
H    0.473966  -1.768198  1.821376
H    0.477897  -0.567017  0.493445
N    -1.041006  0.904192  2.145463
C    -1.992654  0.564107  1.106604
C    -1.708811  1.516570  -0.163265
O    -1.563854  0.935573  -1.225666
H    -1.335750  1.569659  2.868439
H    -1.759172  -0.433338  0.721838
C    -3.464444  0.624341  1.568612
C    -4.462020  0.194051  0.475300
C    -5.909750  0.094675  1.003149
C    -6.865602  -0.362338  -0.101366
N    -8.299390  -0.482114  0.396257
H    -3.706275  1.634663  1.936835
H    -3.544665  -0.055949  2.431832
H    -4.154522  -0.782124  0.069122
H    -4.429411  0.902406  -0.366583
H    -6.231943  1.073073  1.393993
H    -5.947332  -0.616969  1.843344
H    -6.600021  -1.352110  -0.493502
H    -6.896749  0.342876  -0.941328
H    -8.928454  -0.792187  -0.360669
H    -8.665415  0.416531  0.744506
H    -8.387341  -1.167171  1.161698
N    -1.640559  2.845338  0.025692
C    -1.502044  3.786638  -1.087712
H    -1.901499  3.227375  0.932163
H    -1.030760  4.699885  -0.705725
H    -2.480970  4.052659  -1.514816
H    -0.891978  3.323525  -1.872170
Hg    2.609346  0.381103  4.557635
