35
Energy: -571610.7958650  eV PBE+vdW (tier 2 basis)
C    -0.393866  1.117915  -0.209569
C    -0.327021  0.513935  1.143877
O    0.453466  -0.429237  1.479228
H    0.627095  1.276948  -0.585875
H    -0.925570  2.074033  -0.236995
H    -0.874961  0.410084  -0.903947
N    -1.171986  0.877812  2.156013
C    -2.473079  1.479694  2.029695
C    -2.470806  3.015543  2.574222
O    -3.087608  3.745925  1.805294
H    -0.938133  0.439680  3.053293
H    -2.699414  1.603368  0.967606
C    -3.594844  0.685975  2.751076
C    -5.025306  1.262351  2.703291
C    -5.674275  1.327227  1.305807
C    -7.204627  1.304498  1.277348
N    -7.868562  2.591558  1.760266
H    -3.316034  0.535916  3.804169
H    -3.591060  -0.313751  2.284534
H    -5.048641  2.245625  3.198663
H    -5.615529  0.590896  3.346576
H    -5.302654  2.187956  0.727653
H    -5.387792  0.433227  0.729143
H    -7.617164  0.501664  1.901757
H    -7.567605  1.159146  0.252996
H    -8.894838  2.520459  1.674648
H    -7.577172  3.407405  1.201875
H    -7.666556  2.798130  2.748269
N    -1.917581  3.369359  3.729243
C    -1.184555  2.574181  4.718515
H    -2.002649  4.368846  3.926033
H    -0.145375  2.401328  4.410483
H    -1.696403  1.631169  4.944008
H    -1.162571  3.150510  5.650018
Hg    2.605122  -0.862117  0.731424
