35
Energy: -571611.1987708  eV PBE+vdW (tier 2 basis)
C    -1.749758  1.655371  0.027252
C    -1.358484  1.218083  1.404001
O    -0.092096  1.114147  1.585732
H    -2.823116  1.545370  -0.166724
H    -1.183499  1.068773  -0.710461
H    -1.448098  2.705401  -0.109458
N    -2.331923  0.988865  2.302810
C    -2.384494  0.289476  3.625946
C    -1.878907  1.181036  4.789562
O    -0.646434  1.172982  5.187095
H    -3.255304  1.193019  1.925231
H    -3.461887  0.168033  3.788399
C    -1.764130  -1.128870  3.599811
C    -2.205219  -2.079135  4.741835
C    -3.554898  -2.784002  4.495771
C    -4.023211  -3.750146  5.590859
N    -3.339827  -5.114401  5.556731
H    -0.664254  -1.073579  3.608823
H    -2.020359  -1.569392  2.625276
H    -2.227800  -1.544379  5.704958
H    -1.403149  -2.825208  4.844486
H    -3.544234  -3.303429  3.523519
H    -4.365510  -2.043479  4.413715
H    -5.092678  -3.964497  5.480240
H    -3.859004  -3.355391  6.601490
H    -3.722742  -5.727563  6.294155
H    -2.323484  -5.062268  5.712429
H    -3.494353  -5.597659  4.658835
N    -2.702915  1.945886  5.480301
C    -4.157679  2.113698  5.435231
H    -2.230987  2.494893  6.208532
H    -4.610324  1.554042  4.613846
H    -4.375616  3.182394  5.302849
H    -4.590889  1.789733  6.390579
Hg    0.785417  1.116346  3.555385
