35
Energy: -571611.1714506  eV PBE+vdW (tier 2 basis)
C    0.870718  -0.362855  0.024982
C    0.466983  0.274883  1.311257
O    1.231147  1.028287  1.996847
H    1.069981  0.427628  -0.718275
H    0.105299  -1.029446  -0.386250
H    1.798178  -0.933827  0.173065
N    -0.765267  0.015747  1.804382
C    -1.252701  0.453150  3.096352
C    -1.190379  -0.770150  4.092785
O    -1.675882  -1.832189  3.711875
H    -1.274341  -0.747128  1.353392
H    -0.568766  1.237997  3.450853
C    -2.720308  0.974087  3.078832
C    -3.777863  0.036649  2.480213
C    -5.242970  0.320224  2.879018
C    -5.861940  1.552229  2.213569
N    -7.350688  1.649194  2.521966
H    -2.971181  1.221765  4.121523
H    -2.682228  1.932673  2.534369
H    -3.565812  -0.993943  2.823646
H    -3.694406  0.001360  1.381713
H    -5.317345  0.406827  3.974617
H    -5.828572  -0.567805  2.594345
H    -5.421413  2.495559  2.559436
H    -5.785212  1.511566  1.119599
H    -7.533098  1.722715  3.534304
H    -7.774535  2.477402  2.075921
H    -7.866207  0.823729  2.179469
N    -0.641461  -0.565689  5.305767
C    -0.442629  -1.639278  6.270404
H    -0.202481  0.333672  5.497938
H    -1.210105  -2.407474  6.117034
H    -0.487917  -1.209098  7.279237
H    0.547229  -2.110887  6.148512
Hg    3.044737  2.170171  1.078704
