35
Energy: -571610.9625495  eV PBE+vdW (tier 2 basis)
C    1.070209  1.314821  0.178149
C    0.696141  0.965072  1.583449
O    1.482372  0.523165  2.422447
H    2.097742  0.994888  -0.015565
H    1.010124  2.411127  0.061784
H    0.388652  0.867344  -0.558143
N    -0.647585  1.167966  1.934916
C    -1.313983  0.779204  3.138248
C    -0.776148  1.562557  4.427248
O    -1.756261  2.139858  4.989013
H    -1.248392  1.537074  1.194806
H    -2.343683  1.145229  3.030471
C    -1.505684  -0.771858  3.441155
C    -0.295758  -1.652442  3.754738
C    -0.510088  -3.166824  3.480887
C    -1.447345  -3.874986  4.462572
N    -1.460176  -5.378519  4.215113
H    -2.016015  -1.125728  2.531004
H    -2.248826  -0.793923  4.251824
H    0.033788  -1.506746  4.794129
H    0.558038  -1.367879  3.122824
H    0.483807  -3.637232  3.531204
H    -0.871371  -3.305795  2.449594
H    -2.491228  -3.549213  4.375968
H    -1.126395  -3.746109  5.504051
H    -0.522096  -5.793434  4.326590
H    -1.785242  -5.612959  3.264722
H    -2.085864  -5.863227  4.877346
N    0.490619  1.542541  4.755413
C    1.115334  2.248203  5.878902
H    1.096403  1.050600  4.071096
H    0.704055  1.907587  6.838366
H    1.021656  3.338320  5.767221
H    2.184402  2.007983  5.867720
Hg    -1.896900  3.600552  6.759037
