35
Energy: -571610.6807362  eV PBE+vdW (tier 2 basis)
C    0.380165  -0.579345  0.660046
C    -0.212471  0.545597  1.423304
O    -0.044744  1.774155  1.122828
H    1.466388  -0.411658  0.581171
H    0.218192  -1.558157  1.119277
H    -0.013445  -0.579051  -0.367586
N    -1.022971  0.392978  2.506131
C    -1.901820  -0.721969  2.889333
C    -0.976279  -1.795072  3.615381
O    -0.690432  -2.818984  3.011130
H    -1.200704  1.283107  2.982440
H    -2.581463  -0.297937  3.640199
C    -2.712012  -1.341325  1.732016
C    -3.821119  -2.352842  2.097897
C    -5.058468  -1.778527  2.821060
C    -6.389083  -2.467899  2.509408
N    -6.507070  -3.893574  3.042753
H    -2.022777  -1.848498  1.046174
H    -3.163585  -0.499856  1.183712
H    -3.386070  -3.197205  2.653355
H    -4.135833  -2.770333  1.128132
H    -5.225706  -0.736714  2.503992
H    -4.911134  -1.733503  3.912068
H    -6.566865  -2.539333  1.428761
H    -7.225848  -1.918691  2.957298
H    -6.414074  -3.931051  4.068366
H    -5.803051  -4.527688  2.639467
H    -7.432433  -4.288596  2.811906
N    -0.515113  -1.528551  4.864514
C    -0.936641  -0.532595  5.838642
H    0.029298  -2.308720  5.247442
H    -1.630323  -0.968969  6.573783
H    -1.396870  0.339886  5.368576
H    -0.044564  -0.200715  6.391222
Hg    1.789368  2.776390  0.165323
