35
Energy: -571611.1986391  eV PBE+vdW (tier 2 basis)
C    0.184343  1.844741  2.099374
C    -0.472141  0.558453  1.705824
O    0.138665  -0.084310  0.777687
H    0.465662  2.397243  1.191521
H    1.121772  1.615101  2.629495
H    -0.455767  2.476089  2.726695
N    -1.599237  0.194947  2.342776
C    -2.675659  -0.808719  2.065838
C    -2.279048  -2.243592  2.500133
O    -1.718627  -3.085336  1.691159
H    -1.851824  0.854609  3.076349
H    -3.472450  -0.498523  2.751965
C    -3.249073  -0.719020  0.630359
C    -4.647833  -1.352984  0.422496
C    -5.824217  -0.442643  0.830626
C    -7.230127  -1.018319  0.621400
N    -7.722412  -0.960494  -0.822098
H    -2.557114  -1.174843  -0.095149
H    -3.277919  0.348210  0.366472
H    -4.717975  -2.319616  0.946760
H    -4.714984  -1.599507  -0.647658
H    -5.745364  0.534319  0.326116
H    -5.776065  -0.212093  1.906152
H    -7.967258  -0.446038  1.196792
H    -7.305664  -2.070347  0.924227
H    -7.750396  0.006785  -1.178877
H    -8.684266  -1.330222  -0.889685
H    -7.145391  -1.515395  -1.469495
N    -2.561122  -2.701402  3.705181
C    -3.298130  -2.118245  4.829166
H    -2.228397  -3.660160  3.862108
H    -4.197607  -2.716379  5.024985
H    -3.576548  -1.078801  4.642329
H    -2.655170  -2.161009  5.718968
Hg    -0.190699  -2.187420  0.436376
