35
Energy: -571610.8955711  eV PBE+vdW (tier 2 basis)
C    0.078565  -0.009093  -0.898012
C    0.093628  0.156006  0.579048
O    1.178906  0.146098  1.268019
H    0.699391  -0.869671  -1.179798
H    0.530635  0.887347  -1.354541
H    -0.919649  -0.130070  -1.326063
N    -1.008265  0.288925  1.335078
C    -2.410068  0.096765  1.018328
C    -3.132028  1.285377  1.777870
O    -2.682198  1.618371  2.866315
H    -0.834380  0.533033  2.320308
H    -2.549637  0.156996  -0.066250
C    -3.048929  -1.206819  1.587375
C    -2.529199  -2.498625  0.932938
C    -3.377028  -3.761419  1.220530
C    -3.299415  -4.280582  2.657797
N    -4.053006  -5.596606  2.804881
H    -4.134787  -1.118666  1.424128
H    -2.899267  -1.203983  2.677570
H    -1.483287  -2.676565  1.229087
H    -2.523576  -2.379721  -0.161094
H    -3.019331  -4.546908  0.536369
H    -4.426834  -3.567224  0.948223
H    -3.748428  -3.598165  3.389743
H    -2.267265  -4.490411  2.965945
H    -3.999778  -5.953965  3.771354
H    -3.668768  -6.329615  2.189100
H    -5.052994  -5.498270  2.572684
N    -4.219857  1.872397  1.217794
C    -4.807965  1.688576  -0.094724
H    -4.534301  2.692358  1.748001
H    -4.384711  2.398184  -0.827003
H    -5.881272  1.915450  -0.019475
H    -4.681231  0.663886  -0.456873
Hg    3.173588  1.034620  0.692888
