35
Energy: -571610.6821699  eV PBE+vdW (tier 2 basis)
C    -0.315187  0.531936  -0.836308
C    0.036520  1.032217  0.516939
O    1.250044  1.155261  0.924134
H    0.178504  -0.434489  -1.010594
H    0.073388  1.240105  -1.586660
H    -1.389099  0.422109  -1.006796
N    -0.866412  1.353149  1.461437
C    -2.275030  0.998995  1.566788
C    -2.915871  2.246558  2.291697
O    -2.363842  2.638477  3.316294
H    -0.469789  1.754388  2.322104
H    -2.691309  0.859975  0.564018
C    -2.493931  -0.281638  2.433182
C    -3.965262  -0.678708  2.708358
C    -4.557977  -0.211043  4.058736
C    -4.262912  -1.089458  5.279356
N    -5.200299  -2.289270  5.393478
H    -1.937191  -0.151851  3.373362
H    -1.996844  -1.089107  1.875856
H    -4.025358  -1.774641  2.625272
H    -4.612747  -0.319997  1.895277
H    -5.647802  -0.087212  3.960698
H    -4.188213  0.791100  4.317945
H    -4.402784  -0.527657  6.210244
H    -3.244925  -1.499487  5.281002
H    -4.975364  -2.854426  6.227135
H    -5.148573  -2.918490  4.579900
H    -6.182920  -1.991283  5.490073
N    -4.026796  2.826673  1.783859
C    -4.699856  2.605915  0.511567
H    -4.285400  3.679755  2.289165
H    -5.729770  2.972475  0.606416
H    -4.724492  1.544620  0.244388
H    -4.223602  3.180774  -0.300133
Hg    3.055343  1.710687  -0.285589
