35
Energy: -571611.0374958  eV PBE+vdW (tier 2 basis)
 C   -0.20432   -1.69838    1.05120
 C   -0.28733   -0.51204    1.94406
 O    0.57387   -0.27382    2.86593
 H   -1.10091   -1.87405    0.45096
 H    0.00742   -2.59535    1.64769
 H    0.63939   -1.55310    0.35492
 N   -1.28416    0.38933    1.89650
 C   -2.55423    0.32128    1.20016
 C   -2.92251    1.82186    0.90935
 O   -2.62027    2.67601    1.73312
 H   -1.17377    1.21684    2.49838
 H   -2.41730   -0.23568    0.26470
 C   -3.73463   -0.34131    1.98511
 C   -4.14883    0.27483    3.33002
 C   -5.29706   -0.54570    3.96246
 C   -5.71946   -0.16609    5.38331
 N   -6.66946    1.02677    5.45842
 H   -3.43586   -1.39395    2.12444
 H   -4.59285   -0.36959    1.29593
 H   -4.44962    1.32590    3.18749
 H   -3.29257    0.28920    4.02220
 H   -4.98223   -1.59783    4.03381
 H   -6.17770   -0.55925    3.29950
 H   -4.86733    0.08348    6.02789
 H   -6.26627   -0.99388    5.85034
 H   -6.94668    1.20856    6.43589
 H   -7.53732    0.85296    4.92958
 H   -6.25199    1.89577    5.09860
 N   -3.57758    2.06306   -0.25230
 C   -3.79639    3.40554   -0.76385
 H   -3.75211    1.28532   -0.88886
 H   -4.72327    3.40536   -1.35410
 H   -2.97866    3.71471   -1.43964
 H   -3.83694    4.11120    0.07340
Hg    2.78990   -0.71235    2.77818
