35
Energy: -571610.7789738  eV PBE+vdW (tier 2 basis)
C    0.736295  0.327516  1.037066
C    0.199866  -0.451274  2.180357
O    0.955427  -1.141858  2.949950
H    -0.025373  0.763282  0.393636
H    1.381858  -0.318491  0.427554
H    1.360546  1.137886  1.455265
N    -1.105828  -0.540444  2.556202
C    -2.383634  -0.479303  1.836911
C    -2.350789  -1.250992  0.471744
O    -1.461864  -1.020645  -0.342015
H    -1.181817  -1.034648  3.449701
H    -3.061119  -1.030177  2.502256
C    -3.048933  0.933109  1.664871
C    -2.418939  1.979677  0.741800
C    -3.180362  3.331283  0.694771
C    -4.482560  3.314008  -0.108604
N    -5.073589  4.713907  -0.220252
H    -3.124816  1.332181  2.688552
H    -4.078159  0.704049  1.349142
H    -2.306597  1.587627  -0.281755
H    -1.410232  2.224001  1.099304
H    -2.496275  4.065263  0.241976
H    -3.376763  3.678064  1.721834
H    -5.266783  2.697953  0.347806
H    -4.325951  2.972099  -1.139583
H    -4.428084  5.365418  -0.692471
H    -5.291057  5.117271  0.703701
H    -5.950606  4.709966  -0.763752
N    -3.357265  -2.129237  0.262600
C    -3.428400  -2.976618  -0.918952
H    -3.986545  -2.348250  1.033893
H    -2.908443  -3.935662  -0.751111
H    -2.947055  -2.467296  -1.761693
H    -4.482941  -3.200788  -1.124077
Hg    3.137224  -0.756385  3.423247
