35
Energy: -571611.3416952  eV PBE+vdW (tier 2 basis)
C    0.830704  2.680273  0.760642
C    0.641984  1.757399  1.923929
O    1.593001  0.911884  2.090106
H    1.212922  2.109742  -0.097146
H    1.612991  3.411646  1.019952
H    -0.088208  3.205263  0.475588
N    -0.462282  1.900169  2.679332
C    -1.149595  1.051907  3.704300
C    -0.535219  1.159522  5.126028
O    0.474308  0.462375  5.532130
H    -1.019157  2.701677  2.389499
H    -2.135485  1.530101  3.786069
C    -1.377728  -0.418889  3.271796
C    -2.405414  -0.642119  2.133762
C    -3.877140  -0.632169  2.593460
C    -4.928718  -0.858738  1.500534
N    -5.091810  -2.316963  1.080485
H    -1.687181  -0.978951  4.167551
H    -0.425707  -0.871948  2.956123
H    -2.155339  -1.615343  1.685304
H    -2.254467  0.098124  1.332278
H    -4.137160  0.346226  3.026576
H    -4.029296  -1.356885  3.410099
H    -4.708654  -0.301967  0.580918
H    -5.919995  -0.551027  1.853552
H    -5.368354  -2.915565  1.873462
H    -4.237340  -2.718276  0.669674
H    -5.834254  -2.405436  0.368185
N    -1.132123  1.940799  6.003369
C    -0.708124  2.142533  7.396170
H    -1.997010  2.402451  5.723020
H    -0.946149  3.172964  7.680763
H    0.364974  1.954020  7.487640
H    -1.255163  1.451901  8.053443
Hg    1.932189  -0.007696  4.014408
