35
Energy: -571611.5404728  eV PBE+vdW (tier 2 basis)
C    0.671036  -0.490404  0.056707
C    0.190171  -0.698289  1.456398
O    0.597463  -1.778880  2.014033
H    0.418175  0.501722  -0.334712
H    0.243706  -1.274224  -0.586775
H    1.762748  -0.625397  0.029815
N    -0.611147  0.228196  2.015383
C    -0.935508  0.475192  3.442797
C    -2.234739  -0.266083  3.861550
O    -2.188194  -1.446920  4.380031
H    -0.864934  0.985637  1.381599
H    -0.132384  0.027004  4.051522
C    -0.913339  2.002083  3.695559
C    -0.969089  2.449371  5.171968
C    -0.981160  3.991500  5.271428
C    -1.174091  4.600862  6.664778
N    0.113016  4.758678  7.470212
H    -1.724499  2.486928  3.123310
H    0.019399  2.372086  3.242892
H    -0.105816  2.023837  5.708475
H    -1.870337  2.050929  5.663968
H    -1.823157  4.376150  4.676088
H    -0.083241  4.418375  4.795356
H    -1.857189  4.017049  7.294352
H    -1.579119  5.616103  6.580919
H    -0.083278  5.206698  8.379631
H    0.793972  5.361237  6.983485
H    0.577593  3.863019  7.672667
N    -3.409180  0.305422  3.708600
C    -4.706627  -0.319930  4.010914
H    -3.426248  1.274276  3.393577
H    -5.455064  0.096572  3.329400
H    -4.996723  -0.100889  5.047352
H    -4.631223  -1.403365  3.881059
Hg    -0.454991  -2.592547  3.722664
