35
Energy: -571610.7284569  eV PBE+vdW (tier 2 basis)
C    -0.613900  -1.761409  0.549427
C    -0.366249  -0.657572  1.513276
O    0.707531  -0.571783  2.214771
H    -0.392971  -2.725229  1.027349
H    0.078692  -1.646154  -0.301699
H    -1.630320  -1.785906  0.147914
N    -1.249733  0.320584  1.775365
C    -2.659383  0.409728  1.437204
C    -2.943995  1.948616  1.424468
O    -2.359058  2.648055  2.247657
H    -0.916860  1.075275  2.391957
H    -2.817581  -0.042731  0.452095
C    -3.639320  -0.281390  2.455279
C    -3.695886  0.283590  3.890934
C    -4.881940  1.226262  4.201470
C    -6.204966  0.567481  4.609207
N    -6.264473  0.218156  6.094161
H    -3.327096  -1.336730  2.466700
H    -4.633099  -0.273379  1.983414
H    -2.764813  0.816726  4.132496
H    -3.695962  -0.573403  4.583966
H    -5.111429  1.847394  3.323188
H    -4.584433  1.951747  4.974317
H    -6.409047  -0.366525  4.070037
H    -7.049680  1.246248  4.443395
H    -7.168543  -0.217971  6.334403
H    -6.172111  1.060456  6.682519
H    -5.526643  -0.440042  6.381986
N    -3.832975  2.454457  0.532908
C    -4.469097  1.814320  -0.607205
H    -3.855748  3.479402  0.546785
H    -5.395964  2.360029  -0.829332
H    -4.708121  0.766034  -0.401794
H    -3.834725  1.878976  -1.507880
Hg    2.785834  -1.153820  1.580272
