35
Energy: -571611.0228945  eV PBE+vdW (tier 2 basis)
C    -0.679131  1.935207  0.983968
C    -1.048549  0.511413  1.221825
O    -0.789710  -0.436258  0.411743
H    0.417772  2.029293  1.067902
H    -1.124700  2.626608  1.707847
H    -0.964005  2.239274  -0.031843
N    -1.741503  0.189127  2.342311
C    -2.076073  -1.144324  2.796123
C    -3.462268  -1.676992  2.238906
O    -3.872012  -2.749469  2.666921
H    -2.083672  0.972066  2.902600
H    -1.337301  -1.842219  2.371322
C    -2.083328  -1.171821  4.348039
C    -2.170545  -2.564004  4.995245
C    -2.126853  -2.452878  6.537882
C    -1.973367  -3.765690  7.306106
N    -3.265995  -4.563530  7.452516
H    -2.902630  -0.532043  4.719055
H    -1.145218  -0.690377  4.664853
H    -1.334333  -3.184786  4.637866
H    -3.092583  -3.079346  4.673740
H    -2.994764  -1.889943  6.917553
H    -1.248124  -1.853667  6.823543
H    -1.641990  -3.565557  8.332548
H    -1.246972  -4.445025  6.842545
H    -3.103152  -5.417926  8.008234
H    -3.655445  -4.863816  6.548327
H    -3.993272  -4.021752  7.942887
N    -4.124647  -0.953665  1.309102
C    -5.332102  -1.438537  0.654520
H    -3.669952  -0.134092  0.915312
H    -5.092693  -2.064586  -0.221785
H    -5.906670  -0.571196  0.306146
H    -5.905699  -2.048922  1.362550
Hg    1.057878  -0.450863  -1.026862
