35
Energy: -571611.1217466  eV PBE+vdW (tier 2 basis)
C    -0.018978  2.159820  -0.626695
C    0.037496  1.200699  0.504403
O    1.185379  0.734137  0.836307
H    0.581870  1.746711  -1.454028
H    -1.040622  2.334372  -0.978910
H    0.474246  3.104930  -0.351260
N    -1.064842  0.771221  1.166186
C    -2.125081  1.616706  1.729078
C    -1.603842  2.095149  3.111665
O    -0.739047  1.407402  3.780047
H    -0.908282  -0.079889  1.711436
H    -2.257329  2.487231  1.071301
C    -3.457346  0.838442  1.873021
C    -4.100386  0.446949  0.529105
C    -5.435401  -0.306240  0.720275
C    -6.061531  -0.685639  -0.623832
N    -7.384265  -1.419251  -0.450168
H    -4.154658  1.461756  2.451276
H    -3.273798  -0.054999  2.492114
H    -3.404612  -0.180955  -0.048280
H    -4.276339  1.354691  -0.069743
H    -6.135924  0.326149  1.288889
H    -5.264254  -1.214913  1.319327
H    -5.418830  -1.358587  -1.205152
H    -6.285097  0.194465  -1.239814
H    -7.791036  -1.670381  -1.364750
H    -8.083840  -0.844933  0.043694
H    -7.274810  -2.295216  0.082559
N    -2.086395  3.177820  3.699507
C    -3.209931  4.031205  3.321674
H    -1.649918  3.389491  4.603882
H    -2.912185  5.076766  3.478849
H    -4.072095  3.823918  3.973019
H    -3.490030  3.886414  2.275374
Hg    1.284369  0.656721  3.069796
