35
Energy: -571610.6357049  eV PBE+vdW (tier 2 basis)
C    1.067652  -0.438176  0.715098
C    0.648596  -0.792707  2.094006
O    1.565957  -1.198096  2.892865
H    1.678401  0.480122  0.808546
H    0.221533  -0.193772  0.068244
H    1.724449  -1.203644  0.286512
N    -0.600916  -0.588774  2.592262
C    -1.960004  -1.002833  2.192881
C    -2.354772  -2.156196  3.153227
O    -1.504621  -3.025714  3.596484
H    -0.566572  -0.322458  3.580033
H    -2.605088  -0.141480  2.419933
C    -2.224706  -1.352775  0.705458
C    -1.686806  -2.670120  0.113672
C    -2.139647  -2.820633  -1.358641
C    -1.697585  -4.149331  -1.976639
N    -2.166263  -4.287510  -3.419326
H    -1.896500  -0.487642  0.111071
H    -3.320453  -1.350040  0.606132
H    -2.058107  -3.526398  0.698050
H    -0.588583  -2.715931  0.162588
H    -1.737624  -1.983881  -1.952223
H    -3.237755  -2.742063  -1.406156
H    -2.112811  -5.013342  -1.442811
H    -0.605862  -4.254510  -2.005070
H    -1.867577  -5.190302  -3.820864
H    -1.783587  -3.546626  -4.026184
H    -3.193738  -4.247917  -3.499575
N    -3.614898  -2.334716  3.511267
C    -4.831847  -1.645125  3.079070
H    -3.755963  -3.123553  4.151498
H    -5.371840  -2.254254  2.340408
H    -4.608857  -0.661088  2.657671
H    -5.478374  -1.523372  3.957588
Hg    0.556867  -2.568210  4.329652
