35
Energy: -571611.1707597  eV PBE+vdW (tier 2 basis)
C    0.848296  0.777573  -0.663894
C    0.328875  0.714502  0.732624
O    1.025515  0.998779  1.759503
H    1.760525  0.169752  -0.744784
H    1.111533  1.822517  -0.900098
H    0.124792  0.433288  -1.410402
N    -0.942373  0.297916  0.932833
C    -1.545809  0.064392  2.228407
C    -1.552519  -1.491308  2.503388
O    -1.994044  -2.218060  1.617381
H    -1.406268  -0.122343  0.125045
H    -0.905130  0.554694  2.975884
C    -3.012023  0.573688  2.347201
C    -4.002371  0.082080  1.282767
C    -5.500199  0.200250  1.641620
C    -6.060293  1.624254  1.592609
N    -7.571842  1.623740  1.781910
H    -2.938444  1.674353  2.346118
H    -3.356289  0.289226  3.353195
H    -3.817581  -0.994449  1.104444
H    -3.815493  0.574853  0.314655
H    -5.678201  -0.240424  2.635322
H    -6.051495  -0.422089  0.919607
H    -5.880765  2.104021  0.622104
H    -5.659071  2.272319  2.381631
H    -7.955566  2.580849  1.747445
H    -7.849129  1.217788  2.688400
H    -8.048700  1.079648  1.046432
N    -1.104208  -1.919168  3.699409
C    -0.966451  -3.331746  4.028775
H    -0.694715  -1.239744  4.339020
H    -1.706987  -3.907772  3.460929
H    -1.099083  -3.447682  5.112255
H    0.037416  -3.708442  3.769217
Hg    2.909875  2.372043  1.677216
