35
Energy: -571611.5733871  eV PBE+vdW (tier 2 basis)
C    0.180274  2.854279  2.029736
C    0.212584  1.712361  2.993922
O    0.586437  2.016791  4.180808
H    -0.386924  3.684258  2.476962
H    -0.269633  2.582996  1.067787
H    1.206387  3.222239  1.879419
N    -0.138294  0.484994  2.563695
C    -0.525908  -0.713092  3.344500
C    0.697507  -1.627533  3.624994
O    1.375123  -1.511389  4.715682
H    -0.351686  0.443296  1.567922
H    -0.860903  -0.367999  4.337087
C    -1.752279  -1.391525  2.683050
C    -2.366311  -2.523012  3.536724
C    -3.842076  -2.879084  3.234778
C    -4.076374  -3.678444  1.950983
N    -5.526244  -4.135451  1.849346
H    -1.494966  -1.737634  1.666981
H    -2.494541  -0.589820  2.547053
H    -2.345893  -2.214688  4.592768
H    -1.749045  -3.432772  3.482579
H    -4.448350  -1.959451  3.222196
H    -4.199872  -3.473737  4.089599
H    -3.473174  -4.594845  1.921022
H    -3.880945  -3.101910  1.038343
H    -5.690642  -4.678132  0.987125
H    -6.184445  -3.341471  1.837747
H    -5.793460  -4.739735  2.641909
N    1.055780  -2.550741  2.759363
C    2.224032  -3.435776  2.896311
H    0.455738  -2.698548  1.949849
H    1.941044  -4.351165  3.433223
H    3.010228  -2.920938  3.456213
H    2.577044  -3.695820  1.893614
Hg    1.303790  0.500498  5.559714
