35
Energy: -571611.3387543  eV PBE+vdW (tier 2 basis)
C    -0.402513  1.450592  0.637335
C    -0.510724  0.035591  1.112290
O    0.222998  -0.799695  0.469799
H    -0.371952  1.464823  -0.460776
H    0.561333  1.860248  0.980266
H    -1.222222  2.085740  0.992526
N    -1.328666  -0.228091  2.146305
C    -1.925615  -1.473808  2.723200
C    -0.970925  -2.251686  3.659634
O    -0.156124  -3.168908  3.232946
H    -1.753199  0.618945  2.519160
H    -2.709973  -1.075452  3.378032
C    -2.649822  -2.393499  1.704727
C    -3.854760  -1.698530  1.037672
C    -4.664942  -2.548372  0.028369
C    -5.669378  -3.510888  0.668848
N    -6.585288  -4.133105  -0.377677
H    -2.965713  -3.285497  2.267345
H    -1.960601  -2.756285  0.925320
H    -4.533526  -1.313019  1.815597
H    -3.498744  -0.816199  0.487795
H    -3.984259  -3.098407  -0.640576
H    -5.216206  -1.839666  -0.608628
H    -6.333707  -2.995575  1.374194
H    -5.195963  -4.352124  1.189746
H    -7.126689  -3.416981  -0.886354
H    -7.267457  -4.774869  0.055759
H    -6.063088  -4.676472  -1.081479
N    -1.009844  -2.090786  4.967703
C    -1.895165  -1.311291  5.838667
H    -0.330206  -2.677513  5.466531
H    -1.267707  -0.770506  6.559320
H    -2.554071  -1.992096  6.394465
H    -2.492602  -0.589803  5.276903
Hg    0.787317  -2.679819  1.362039
