35
Energy: -571610.9127901  eV PBE+vdW (tier 2 basis)
C    -0.044501  0.914756  -0.533552
C    0.022162  0.565581  0.907919
O    1.058393  0.065141  1.459701
H    0.400406  0.107658  -1.129593
H    0.558585  1.823523  -0.700242
H    -1.055740  1.110738  -0.899977
N    -1.017155  0.699743  1.770737
C    -2.441499  0.823942  1.519470
C    -2.873348  2.097891  2.409954
O    -3.018877  1.907169  3.606511
H    -0.762364  0.483978  2.742602
H    -2.610600  1.049521  0.461216
C    -3.257967  -0.406923  1.974230
C    -4.768670  -0.248278  1.710816
C    -5.687167  -1.251430  2.445962
C    -5.667613  -2.675510  1.889683
N    -6.737010  -3.532171  2.556575
H    -3.073024  -0.563570  3.047283
H    -2.849724  -1.273770  1.432297
H    -4.969815  -0.282887  0.628877
H    -5.093811  0.745951  2.050083
H    -6.712059  -0.856494  2.367541
H    -5.437658  -1.260062  3.518837
H    -4.717535  -3.195962  2.061735
H    -5.890366  -2.701784  0.815404
H    -7.682156  -3.148862  2.402176
H    -6.599227  -3.597637  3.576355
H    -6.736061  -4.494773  2.186151
N    -3.050993  3.291544  1.801116
C    -3.095030  3.624771  0.382786
H    -3.434138  3.997515  2.437508
H    -2.980063  4.712805  0.298212
H    -4.062998  3.361478  -0.071523
H    -2.277897  3.149730  -0.168150
Hg    3.260362  0.499060  1.017315
