35
Energy: -571610.8900038  eV PBE+vdW (tier 2 basis)
C    0.060082  0.087795  0.981579
C    -0.379253  -0.171932  2.376464
O    0.382290  -0.715354  3.258083
H    0.471867  -0.833421  0.546965
H    0.871985  0.833407  1.002504
H    -0.727576  0.473083  0.329299
N    -1.614857  0.086296  2.840444
C    -2.858166  0.350263  2.133124
C    -3.534727  1.496558  2.998140
O    -3.595967  1.309576  4.208497
H    -1.731924  -0.056795  3.852643
H    -2.636401  0.689184  1.116190
C    -3.810183  -0.884886  2.128924
C    -5.177769  -0.612959  1.474231
C    -6.258963  -1.693674  1.714221
C    -6.079501  -2.983451  0.912565
N    -7.284926  -3.900069  1.083868
H    -3.948072  -1.194922  3.176315
H    -3.272619  -1.693489  1.610862
H    -5.056918  -0.442857  0.392882
H    -5.599803  0.316259  1.883839
H    -7.224216  -1.240466  1.439717
H    -6.317439  -1.922259  2.790261
H    -5.209334  -3.572798  1.226198
H    -6.000844  -2.791504  -0.165140
H    -7.176626  -4.771583  0.542703
H    -8.154999  -3.449380  0.761256
H    -7.429687  -4.168837  2.068826
N    -4.004629  2.614029  2.398744
C    -3.927839  3.030616  1.008409
H    -4.322841  3.317128  3.073222
H    -4.738651  3.747353  0.825000
H    -4.043714  2.181731  0.326790
H    -2.979856  3.553581  0.795829
Hg    2.604692  -0.460022  3.510485
