35
Energy: -571610.6390657  eV PBE+vdW (tier 2 basis)
C    -0.221101  -0.669509  -0.389302
C    -0.358004  -0.256613  1.038459
O    0.432064  0.465733  1.648017
H    0.736280  -0.317991  -0.783212
H    -1.036533  -0.213071  -0.976869
H    -0.305430  -1.758390  -0.516359
N    -1.489954  -0.749928  1.714394
C    -1.768692  -0.656186  3.102574
C    -2.059621  0.861226  3.587259
O    -3.193824  0.883755  4.145745
H    -2.139699  -1.312045  1.159599
H    -2.742142  -1.139277  3.250780
C    -0.827096  -1.410645  4.146680
C    0.705219  -1.397795  4.105925
C    1.451211  -0.239779  4.802126
C    2.734085  -0.628690  5.545527
N    3.893303  -1.047861  4.645247
H    -1.151558  -2.452054  3.993555
H    -1.198754  -1.120711  5.140550
H    1.072910  -1.554615  3.082153
H    0.955627  -2.336776  4.636684
H    0.813867  0.192568  5.588833
H    1.662792  0.579107  4.098763
H    2.570732  -1.469265  6.232165
H    3.112804  0.217889  6.130529
H    4.166218  -0.299940  3.990657
H    4.727284  -1.266944  5.213541
H    3.684397  -1.889985  4.090635
N    -1.192797  1.814595  3.370784
C    -1.369030  3.236976  3.688687
H    -0.370193  1.507739  2.815339
H    -2.247511  3.653198  3.175002
H    -1.434512  3.393893  4.772909
H    -0.488308  3.771268  3.317034
Hg    -4.517496  2.556046  5.010126
