35
Energy: -571611.6042911  eV PBE+vdW (tier 2 basis)
C    -0.888327  0.792703  0.206344
C    -0.725714  0.202739  1.571785
O    0.031017  -0.835248  1.617375
H    -1.746867  1.469718  0.130800
H    -0.985400  -0.016267  -0.530600
H    0.036663  1.334929  -0.049678
N    -1.347250  0.799229  2.603632
C    -1.689645  0.392597  4.005251
C    -0.543143  0.590063  5.032309
O    0.410078  -0.263064  5.232317
H    -1.822569  1.653730  2.318774
H    -2.446428  1.139101  4.284252
C    -2.376668  -0.990439  4.141695
C    -3.796808  -1.036198  3.539004
C    -4.534249  -2.355666  3.859644
C    -5.963712  -2.343583  3.309322
N    -6.721253  -3.618839  3.652312
H    -2.425734  -1.207876  5.220034
H    -1.762579  -1.791939  3.699982
H    -3.750503  -0.895356  2.448383
H    -4.380154  -0.192261  3.941001
H    -4.561364  -2.500928  4.951463
H    -3.979639  -3.207225  3.434359
H    -5.987373  -2.264675  2.215235
H    -6.558590  -1.521227  3.726390
H    -6.803538  -3.759693  4.670607
H    -6.268673  -4.458721  3.261249
H    -7.681340  -3.590248  3.274097
N    -0.594608  1.644387  5.819602
C    0.376798  1.976138  6.871159
H    -1.405633  2.258515  5.745331
H    0.470365  3.066420  6.918889
H    1.341429  1.514340  6.644380
H    0.013418  1.603756  7.839415
Hg    0.973994  -1.360913  3.477883
