35
Energy: -571610.9756172  eV PBE+vdW (tier 2 basis)
C    0.379691  0.366549  -0.114749
C    -0.058967  -0.045257  1.251284
O    0.734758  -0.378284  2.174241
H    0.899973  -0.484382  -0.586373
H    1.096937  1.195521  -0.034804
H    -0.445229  0.664059  -0.770577
N    -1.397429  -0.011563  1.535299
C    -1.999749  -0.307360  2.825615
C    -3.346998  -1.071101  2.541897
O    -4.420854  -0.665256  2.955731
H    -1.967414  0.481972  0.846327
H    -1.316327  -1.004236  3.335700
C    -2.202745  0.893695  3.781460
C    -3.171970  2.007503  3.367735
C    -3.284851  3.069645  4.485114
C    -4.191194  4.270444  4.209529
N    -5.666507  4.011817  4.503642
H    -1.194263  1.304563  3.954941
H    -2.521762  0.461447  4.741436
H    -4.162281  1.560996  3.161856
H    -2.841923  2.494363  2.435648
H    -2.284700  3.493282  4.665530
H    -3.567206  2.597122  5.440268
H    -4.142673  4.612719  3.168241
H    -3.915981  5.113065  4.855140
H    -6.228686  4.857453  4.319489
H    -5.815774  3.762748  5.493006
H    -6.062983  3.255106  3.929758
N    -3.231174  -2.235586  1.830518
C    -4.345596  -3.136871  1.627765
H    -2.295021  -2.607808  1.670568
H    -4.455449  -3.839082  2.477320
H    -5.275090  -2.559458  1.551075
H    -4.149133  -3.742348  0.732438
Hg    2.909329  -1.249538  1.844133
