35
Energy: -571610.7884751  eV PBE+vdW (tier 2 basis)
C    0.725570  0.639556  0.307458
C    0.112895  -0.329793  1.256151
O    0.494425  -1.534129  1.391076
H    1.763549  0.837065  0.627467
H    0.202263  1.601188  0.268603
H    0.765441  0.205257  -0.701105
N    -0.958803  0.062190  1.999934
C    -1.644908  -0.737426  2.980517
C    -2.714729  -1.742316  2.321443
O    -2.579638  -2.908752  2.679555
H    -1.384193  0.946150  1.717153
H    -0.911112  -1.434888  3.400383
C    -2.298156  0.111232  4.101310
C    -2.838720  -0.723050  5.280847
C    -3.245515  0.196341  6.454667
C    -3.518796  -0.481323  7.798836
N    -4.889917  -1.143806  7.908067
H    -3.088808  0.760709  3.697009
H    -1.502770  0.780890  4.466424
H    -2.057163  -1.420308  5.620565
H    -3.688624  -1.340325  4.950056
H    -4.095870  0.839048  6.174045
H    -2.419046  0.893157  6.663039
H    -3.495610  0.259959  8.606561
H    -2.785115  -1.262469  8.034610
H    -5.018068  -1.914081  7.237818
H    -5.652214  -0.466075  7.758312
H    -5.024487  -1.541445  8.851068
N    -3.675169  -1.320288  1.485733
C    -3.912527  -0.002715  0.901086
H    -4.253874  -2.083566  1.127288
H    -3.782761  0.800170  1.634874
H    -4.954837  0.029012  0.563286
H    -3.275534  0.170579  0.021113
Hg    2.645549  -2.293371  1.048100
