35
Energy: -571611.1831678  eV PBE+vdW (tier 2 basis)
C    0.005508  0.726401  1.139484
C    -0.252161  -0.709961  1.408724
O    0.511474  -1.651886  1.038763
H    -0.759964  1.402150  1.531386
H    0.133453  0.886721  0.059403
H    0.961851  0.998089  1.617232
N    -1.376206  -1.153128  2.051953
C    -2.620888  -0.449371  2.254440
C    -2.508667  0.220401  3.739954
O    -2.269202  1.413148  3.749048
H    -1.346905  -2.151229  2.284354
H    -2.655744  0.429225  1.603298
C    -3.893823  -1.296502  2.084975
C    -4.295781  -1.526571  0.611269
C    -5.682948  -2.197749  0.497728
C    -6.112825  -2.359596  -0.962568
N    -7.496185  -2.984878  -1.079950
H    -4.703132  -0.752763  2.594884
H    -3.787302  -2.260778  2.609946
H    -3.537671  -2.142460  0.103187
H    -4.319559  -0.556909  0.089778
H    -6.425666  -1.584268  1.032661
H    -5.661567  -3.182391  0.991260
H    -5.436929  -3.015160  -1.525648
H    -6.173989  -1.396089  -1.483981
H    -7.773270  -3.088080  -2.068672
H    -8.220258  -2.410584  -0.622330
H    -7.535280  -3.923765  -0.655563
N    -2.650651  -0.580034  4.808890
C    -2.733104  -0.042147  6.169529
H    -2.958259  -1.539667  4.665813
H    -2.071852  0.829141  6.248571
H    -2.437323  -0.834980  6.866728
H    -3.758972  0.274571  6.414770
Hg    2.851348  -1.624652  0.948781
