35
Energy: -571610.8039939  eV PBE+vdW (tier 2 basis)
C    -0.792853  1.562894  0.549806
C    -0.353974  0.213705  0.994030
O    0.862942  -0.166956  0.988007
H    -0.573331  1.638759  -0.531326
H    -0.221682  2.339414  1.072445
H    -1.861337  1.751868  0.682512
N    -1.221326  -0.763920  1.388806
C    -2.405819  -0.539658  2.192031
C    -2.006961  0.384403  3.453192
O    -0.954515  1.003820  3.405063
H    -0.747670  -1.657198  1.560112
H    -3.098150  0.116099  1.632477
C    -3.054920  -1.886131  2.568764
C    -3.722781  -2.712227  1.441867
C    -5.066479  -2.151630  0.919399
C    -6.147276  -3.185215  0.590835
N    -5.865626  -4.033853  -0.646374
H    -3.816294  -1.707508  3.341185
H    -2.290174  -2.507041  3.061865
H    -3.890678  -3.705362  1.887289
H    -3.014729  -2.870785  0.614330
H    -4.920739  -1.475791  0.062472
H    -5.536261  -1.530919  1.699023
H    -7.105852  -2.691336  0.391356
H    -6.294942  -3.897307  1.412875
H    -5.772618  -3.457733  -1.495794
H    -6.643062  -4.691997  -0.815219
H    -5.011056  -4.600739  -0.554102
N    -2.887892  0.479120  4.473859
C    -2.589410  1.204808  5.697955
H    -3.728155  -0.094555  4.462650
H    -2.114703  0.545983  6.447937
H    -3.533206  1.567278  6.126117
H    -1.894896  2.023337  5.475088
Hg    2.509850  0.660496  -0.326003
