35
Energy: -571611.5365124  eV PBE+vdW (tier 2 basis)
C    0.865990  1.139369  0.267253
C    0.754523  0.409244  1.567661
O    1.848561  0.306528  2.224674
H    1.554499  0.592616  -0.393428
H    1.317390  2.126187  0.448237
H    -0.105082  1.268997  -0.225386
N    -0.445294  -0.072731  1.942678
C    -0.867790  -0.561375  3.269306
C    -0.524250  -2.062047  3.483181
O    0.454945  -2.367888  4.271745
H    -1.193439  0.108520  1.275053
H    -0.248742  -0.043356  4.020998
C    -2.327172  -0.127696  3.558131
C    -2.829589  -0.464664  4.976033
C    -4.210261  0.170674  5.258792
C    -4.694518  -0.134445  6.678892
N    -6.040645  0.512847  6.973196
H    -3.008135  -0.545313  2.803331
H    -2.339988  0.964324  3.417597
H    -2.104733  -0.099349  5.720589
H    -2.893140  -1.555992  5.111907
H    -4.945960  -0.200453  4.527527
H    -4.141726  1.261352  5.119272
H    -4.004795  0.248337  7.441620
H    -4.833853  -1.209279  6.849595
H    -6.352144  0.297368  7.933379
H    -6.780014  0.181557  6.335297
H    -6.003357  1.540268  6.892359
N    -1.181279  -3.068219  2.940812
C    -2.375803  -3.091296  2.090671
H    -0.799323  -3.986145  3.191740
H    -3.288103  -3.139287  2.699842
H    -2.324804  -3.998346  1.478096
H    -2.406132  -2.226182  1.423685
Hg    2.147166  -1.009127  3.939667
