35
Energy: -571611.3592492  eV PBE+vdW (tier 2 basis)
C    0.302158  2.696835  1.104978
C    0.174708  1.657791  2.173513
O    1.158796  1.595244  2.989001
H    -0.622879  2.829239  0.531675
H    1.122300  2.408580  0.429672
H    0.593848  3.653342  1.561288
N    -0.926842  0.884131  2.198939
C    -1.389305  -0.037293  3.253262
C    -0.725994  -1.442050  3.155295
O    0.195002  -1.755114  4.011532
H    -1.585148  1.064852  1.442949
H    -1.021594  0.355474  4.215635
C    -2.935517  -0.069074  3.350278
C    -3.568817  1.145293  4.064784
C    -5.110303  1.070428  4.001312
C    -5.892241  2.273733  4.539504
N    -6.137155  2.245348  6.046116
H    -3.212219  -0.990497  3.885036
H    -3.364660  -0.166919  2.341780
H    -3.234930  2.081449  3.590037
H    -3.213583  1.175028  5.107607
H    -5.474854  0.143727  4.474354
H    -5.414343  0.986550  2.946833
H    -6.892869  2.305933  4.092717
H    -5.398581  3.230746  4.329124
H    -6.671161  1.409352  6.328019
H    -6.693003  3.065353  6.337166
H    -5.268865  2.261460  6.598125
N    -1.059809  -2.377883  2.289401
C    -2.129126  -2.432123  1.287684
H    -0.506993  -3.236477  2.388582
H    -1.806783  -3.124220  0.501793
H    -2.301027  -1.450624  0.838015
H    -3.056808  -2.819743  1.729950
Hg    1.564598  -0.084873  4.335040
