35
Energy: -571611.4243389  eV PBE+vdW (tier 2 basis)
C    2.128247  -0.090528  -0.065655
C    1.654452  -0.741496  1.193602
O    2.558289  -0.930847  2.080216
H    2.818264  -0.775361  -0.581484
H    2.713976  0.804228  0.192389
H    1.306397  0.191058  -0.733443
N    0.353362  -1.077238  1.304296
C    -0.443318  -1.383953  2.512239
C    -0.532501  -2.913913  2.779420
O    0.391422  -3.522362  3.445359
H    -0.185591  -0.915942  0.455864
H    0.122699  -1.001449  3.377889
C    -1.782543  -0.586589  2.540720
C    -2.659969  -0.545386  1.270201
C    -4.083883  0.032426  1.480865
C    -4.139511  1.546971  1.704994
N    -5.578174  2.046190  1.730413
H    -1.506386  0.439088  2.824132
H    -2.358737  -0.983088  3.391034
H    -2.806087  -1.549018  0.840451
H    -2.163480  0.036754  0.476846
H    -4.573204  -0.488935  2.318847
H    -4.663223  -0.213289  0.577607
H    -3.646034  2.100361  0.895753
H    -3.699292  1.860387  2.659422
H    -5.616466  3.067427  1.876034
H    -6.128349  1.612868  2.487803
H    -6.070374  1.849542  0.844994
N    -1.559232  -3.627711  2.375372
C    -1.714445  -5.076606  2.597751
H    -2.330514  -3.140099  1.926892
H    -2.444756  -5.456464  1.877950
H    -2.071232  -5.263466  3.619352
H    -0.750733  -5.576353  2.455097
Hg    2.275762  -2.454627  3.602057
