35
Energy: -571610.9894061  eV PBE+vdW (tier 2 basis)
C    -0.719531  0.423077  -0.011862
C    -0.572936  0.244769  1.466311
O    0.503525  0.205654  2.060030
H    -1.105599  1.440407  -0.200994
H    -1.430334  -0.286685  -0.455348
H    0.260319  0.328267  -0.488265
N    -1.770771  0.121309  2.193137
C    -1.928461  -0.229718  3.567574
C    -1.334433  0.881172  4.565763
O    -2.254051  1.232002  5.366617
H    -2.632497  0.190648  1.647861
H    -3.008426  -0.184783  3.760942
C    -1.523804  -1.687862  4.050692
C    -0.093750  -2.194102  3.867724
C    0.163220  -3.598812  4.488541
C    -0.409107  -4.767674  3.682352
N    0.057926  -6.104169  4.245517
H    -2.244107  -2.321826  3.510044
H    -1.816191  -1.718265  5.111410
H    0.617781  -1.517402  4.360693
H    0.188851  -2.218466  2.806825
H    -0.218436  -3.626886  5.521191
H    1.256127  -3.712531  4.552726
H    -0.070888  -4.750020  2.638495
H    -1.505105  -4.807947  3.692541
H    -0.322143  -6.893689  3.700279
H    -0.240454  -6.240146  5.223263
H    1.085829  -6.190530  4.225517
N    -0.092776  1.280865  4.476646
C    0.560301  2.303395  5.300664
H    0.421163  0.874783  3.668372
H    1.598739  2.387596  4.960803
H    0.577988  2.008655  6.358675
H    0.087580  3.286734  5.165141
Hg    -2.334290  2.797769  7.034450
