35
Energy: -571610.8896907  eV PBE+vdW (tier 2 basis)
C    0.844850  0.929335  0.594344
C    0.148504  -0.332949  0.969044
O    0.459975  -1.487515  0.507492
H    0.370071  1.821041  1.018259
H    0.880685  1.024519  -0.499953
H    1.881496  0.888326  0.969381
N    -0.910717  -0.283903  1.805266
C    -1.694327  -1.441880  2.211766
C    -2.445294  -1.939350  0.897987
O    -1.758875  -2.706210  0.212363
H    -1.286293  0.644945  2.004239
H    -0.986520  -2.266191  2.372268
C    -2.485922  -1.179322  3.505154
C    -3.208769  -2.420870  4.067653
C    -3.961815  -2.072204  5.369512
C    -4.856843  -3.160839  5.968093
N    -4.112627  -4.194483  6.809598
H    -3.197688  -0.351733  3.382403
H    -1.742091  -0.831164  4.239983
H    -2.469595  -3.220326  4.237346
H    -3.925659  -2.815725  3.330344
H    -4.639547  -1.227430  5.172708
H    -3.262411  -1.698365  6.135211
H    -5.404092  -3.728676  5.205107
H    -5.591258  -2.716219  6.650064
H    -4.773917  -4.877176  7.212273
H    -3.619405  -3.754275  7.600827
H    -3.420558  -4.730631  6.268759
N    -3.663411  -1.532469  0.506618
C    -4.647061  -0.665134  1.148066
H    -3.971910  -1.998502  -0.350871
H    -5.191358  -1.177924  1.953865
H    -5.380584  -0.388957  0.381779
H    -4.185646  0.252157  1.526712
Hg    2.567280  -1.988923  -0.304830
