35
Energy: -571610.6375501  eV PBE+vdW (tier 2 basis)
C    -0.528944  -0.193170  -0.207744
C    -0.363650  0.088966  1.248553
O    0.698338  0.379892  1.800460
H    -1.055342  -1.141067  -0.390045
H    0.450786  -0.207516  -0.692692
H    -1.139173  0.606164  -0.663054
N    -1.534477  0.006189  2.026375
C    -1.628530  0.053266  3.441041
C    -1.248806  1.505275  4.051471
O    -2.227680  1.907767  4.742712
H    -2.400698  -0.195456  1.521426
H    -2.696258  -0.027176  3.678426
C    -0.974184  -1.112258  4.312527
C    0.424725  -1.695266  4.081056
C    1.633380  -0.999464  4.742502
C    2.715919  -1.933300  5.295636
N    3.520435  -2.680511  4.235182
H    -1.699999  -1.922710  4.139925
H    -1.106294  -0.805646  5.360666
H    0.602368  -1.879197  3.012236
H    0.325623  -2.705574  4.523167
H    1.298687  -0.435004  5.626583
H    2.089078  -0.261636  4.065714
H    2.294212  -2.707144  5.949903
H    3.455019  -1.366503  5.874343
H    4.249230  -3.260487  4.681077
H    2.941657  -3.317040  3.669394
H    4.003482  -2.037858  3.590304
N    -0.096089  2.062818  3.792057
C    0.337717  3.399379  4.217790
H    0.484166  1.520484  3.122485
H    -0.340388  4.176981  3.837924
H    0.429783  3.454975  5.310002
H    1.324742  3.582225  3.780105
Hg    -2.698187  3.863573  5.860917
