35
Energy: -571610.8617086  eV PBE+vdW (tier 2 basis)
C    -0.488770  -0.945364  1.537229
C    -0.692553  0.145601  2.520630
O    0.233979  0.639122  3.241100
H    0.180691  -0.598856  0.735134
H    -1.418099  -1.325874  1.105257
H    0.028356  -1.778245  2.039133
N    -1.887773  0.768679  2.728591
C    -3.032511  0.951220  1.823780
C    -3.909926  -0.374596  1.958654
O    -3.896601  -1.203771  1.064077
H    -1.858435  1.396832  3.538347
H    -3.603824  1.781516  2.263235
C    -2.674105  1.290529  0.361167
C    -3.748219  2.016639  -0.480527
C    -4.908506  1.157166  -1.025164
C    -5.496476  1.607902  -2.363682
N    -6.271346  2.923211  -2.314027
H    -2.358198  0.377480  -0.160817
H    -1.803458  1.960442  0.414019
H    -3.189177  2.433634  -1.333776
H    -4.123456  2.889419  0.078677
H    -5.714364  1.039570  -0.282985
H    -4.549106  0.136142  -1.223493
H    -6.208685  0.865402  -2.742918
H    -4.717345  1.751092  -3.123384
H    -6.652902  3.151433  -3.245559
H    -5.684472  3.719725  -2.029242
H    -7.071851  2.874665  -1.667118
N    -4.606380  -0.500418  3.114949
C    -5.535178  -1.595289  3.355014
H    -4.648320  0.296344  3.749353
H    -5.606091  -1.756360  4.438592
H    -5.181494  -2.491011  2.830752
H    -6.547691  -1.355867  2.987323
Hg    2.081864  -0.407075  4.143103
