35
Energy: -571611.0627362  eV PBE+vdW (tier 2 basis)
C    -0.535139  -1.005754  1.221770
C    -0.306391  0.460225  1.176268
O    0.804130  1.005634  1.484607
H    -1.581929  -1.299794  1.109674
H    -0.150436  -1.408467  2.168058
H    0.039863  -1.473919  0.405123
N    -1.263326  1.369128  0.851659
C    -2.713086  1.256867  0.881049
C    -3.166208  1.904973  -0.519851
O    -3.284771  3.119185  -0.557471
H    -0.903476  2.330895  0.813558
H    -3.000021  0.199793  0.900261
C    -3.346884  2.038096  2.052180
C    -4.884260  1.973977  2.106249
C    -5.446178  2.826850  3.265244
C    -6.974055  2.772072  3.309951
N    -7.539222  3.634982  4.429820
H    -3.016681  3.085320  1.987546
H    -2.921476  1.612892  2.974776
H    -5.212059  0.929376  2.224701
H    -5.308596  2.341253  1.159746
H    -5.116903  3.870574  3.138607
H    -5.033244  2.470416  4.222374
H    -7.348761  1.757265  3.493256
H    -7.428878  3.146537  2.384276
H    -8.569697  3.588450  4.450279
H    -7.283050  4.627414  4.318281
H    -7.203947  3.333385  5.356856
N    -3.386388  1.090053  -1.577016
C    -3.467319  -0.363220  -1.640844
H    -3.773516  1.593845  -2.380893
H    -3.346190  -0.652539  -2.692770
H    -4.449852  -0.734676  -1.310034
H    -2.670196  -0.836350  -1.060455
Hg    2.929676  0.222675  1.154525
