35
Energy: -571610.5574777  eV PBE+vdW (tier 2 basis)
C    0.227393  0.964244  0.241183
C    0.056048  0.182978  1.491898
O    1.045564  -0.551794  1.850385
H    1.293786  1.216262  0.140675
H    -0.368586  1.879673  0.227971
H    -0.014352  0.331107  -0.628311
N    -1.024366  0.240207  2.311745
C    -2.457834  0.101689  1.988459
C    -2.661706  -1.422559  1.738306
O    -1.691589  -2.119424  1.270599
H    -0.806271  -0.127600  3.241270
H    -2.980221  0.369162  2.919905
C    -3.013574  0.982624  0.845531
C    -3.003946  2.493263  1.170076
C    -3.344946  3.391621  -0.046890
C    -4.811348  3.793604  -0.253401
N    -5.171513  5.108921  0.434074
H    -4.041554  0.643620  0.648305
H    -2.463320  0.779236  -0.083393
H    -2.008469  2.778495  1.538316
H    -3.686096  2.691127  2.012956
H    -3.029753  2.889128  -0.972874
H    -2.726642  4.301782  -0.011010
H    -5.524123  3.049498  0.123073
H    -5.028591  3.961293  -1.314620
H    -6.162522  5.350197  0.275595
H    -4.611587  5.891368  0.061716
H    -5.024001  5.084868  1.452968
N    -3.822629  -2.021572  1.961603
C    -5.114486  -1.462792  2.343943
H    -3.804979  -3.033646  1.794046
H    -5.552273  -2.101523  3.122757
H    -5.795786  -1.472203  1.479297
H    -5.010624  -0.442660  2.722963
Hg    0.375940  -2.663337  2.174080
