35
Energy: -571611.1069852  eV PBE+vdW (tier 2 basis)
C    0.661099  -0.702317  1.362306
C    0.346117  0.726058  1.612734
O    1.212195  1.629847  1.824054
H    1.443451  -0.767134  0.591262
H    -0.198711  -1.291056  1.028988
H    1.082674  -1.149798  2.276172
N    -0.934611  1.189717  1.706928
C    -2.129176  0.435152  2.039636
C    -2.956982  0.140523  0.693907
O    -3.348135  -1.009687  0.569246
H    -0.982905  2.210122  1.811034
H    -1.839866  -0.563819  2.378591
C    -2.998362  1.163486  3.088449
C    -4.393038  0.577401  3.387551
C    -4.436283  -0.746896  4.179488
C    -5.879809  -1.051860  4.592183
N    -5.996410  -2.307615  5.444636
H    -3.142030  2.205282  2.758798
H    -2.404139  1.211801  4.015003
H    -4.970809  0.473322  2.456172
H    -4.914495  1.352118  3.968989
H    -3.805943  -0.657555  5.079028
H    -4.038889  -1.578004  3.575492
H    -6.531911  -1.215046  3.724996
H    -6.308202  -0.241564  5.195648
H    -5.458950  -2.230959  6.321056
H    -5.663368  -3.147833  4.949381
H    -6.978887  -2.482215  5.708413
N    -3.169063  1.143983  -0.173579
C    -4.029621  0.998720  -1.348796
H    -2.900951  2.088784  0.094259
H    -3.694665  1.715835  -2.108041
H    -5.080704  1.219759  -1.106473
H    -3.960791  -0.030985  -1.717940
Hg    3.354186  1.823478  0.952320
