35
Energy: -571610.9010680  eV PBE+vdW (tier 2 basis)
C    -0.599583  0.167843  -0.144953
C    -0.389450  0.167125  1.335474
O    0.704465  0.276526  1.888478
H    0.368240  0.118101  -0.651389
H    -1.095847  1.113037  -0.427264
H    -1.248344  -0.653081  -0.479212
N    -1.548897  0.033608  2.119587
C    -1.625681  -0.161948  3.528413
C    -1.107780  1.114367  4.364847
O    -2.035538  1.477250  5.148992
H    -2.432917  -0.023212  1.609336
H    -2.696718  -0.192824  3.767181
C    -1.065924  -1.500249  4.169369
C    0.365834  -1.983882  3.928707
C    0.608436  -3.269616  4.767695
C    2.022008  -3.858057  4.735007
N    2.285660  -4.796502  3.560721
H    -1.780854  -2.255383  3.804823
H    -1.259760  -1.394534  5.247628
H    1.103579  -1.226813  4.233618
H    0.530753  -2.180244  2.859815
H    -0.129721  -4.046013  4.508805
H    0.416312  -3.037709  5.825701
H    2.195546  -4.469110  5.629015
H    2.804570  -3.090295  4.693666
H    3.240013  -5.186557  3.616084
H    2.205141  -4.331350  2.646349
H    1.636257  -5.597723  3.562522
N    0.090076  1.603809  4.181409
C    0.666567  2.777050  4.848092
H    0.615181  1.144880  3.410572
H    1.676269  2.921285  4.448146
H    0.753263  2.614652  5.930723
H    0.089294  3.685471  4.624754
Hg    -2.235310  3.203206  6.640191
