35
Energy: -571611.0285480  eV PBE+vdW (tier 2 basis)
C    0.012545  0.978621  2.246071
C    -0.102832  -0.240592  1.405127
O    0.548841  -0.452089  0.341252
H    -0.601252  1.783733  1.808199
H    1.048467  1.340428  2.231825
H    -0.296879  0.820824  3.285259
N    -1.011873  -1.227381  1.685876
C    -2.161715  -1.129099  2.552457
C    -1.710211  -1.781346  3.977830
O    -1.558521  -0.976804  4.878278
H    -0.918089  -2.054951  1.088724
H    -2.322365  -0.079847  2.817825
C    -3.472372  -1.736175  2.017062
C    -4.111908  -0.867767  0.907567
C    -5.635496  -1.041476  0.708855
C    -6.067756  -2.345994  0.037686
N    -7.562877  -2.334638  -0.256715
H    -4.153408  -1.792062  2.879964
H    -3.309475  -2.771928  1.677467
H    -3.585292  -1.022862  -0.046810
H    -3.965886  0.191981  1.164201
H    -5.966508  -0.195865  0.085487
H    -6.146640  -0.929062  1.678400
H    -5.893221  -3.232574  0.659634
H    -5.573278  -2.496187  -0.930482
H    -7.821883  -1.560612  -0.887757
H    -8.125908  -2.228033  0.600805
H    -7.864562  -3.210065  -0.711742
N    -1.510993  -3.106772  4.044440
C    -1.249018  -3.783995  5.318538
H    -1.778266  -3.685580  3.251608
H    -2.184447  -4.011086  5.852507
H    -0.638453  -3.127445  5.950086
H    -0.730401  -4.725316  5.103119
Hg    2.778546  0.124166  -0.129455
