35
Energy: -571611.1229800  eV PBE+vdW (tier 2 basis)
C    0.207249  0.935460  0.968439
C    -0.094197  -0.156535  1.926473
O    0.818388  -0.816547  2.531102
H    0.891562  0.564719  0.193673
H    0.726852  1.734534  1.527820
H    -0.669770  1.370021  0.490674
N    -1.341944  -0.586673  2.264909
C    -2.582426  -0.601962  1.498695
C    -2.376711  -1.421420  0.154112
O    -1.481230  -1.063957  -0.601896
H    -1.307656  -1.271666  3.025661
H    -3.275391  -1.169647  2.135742
C    -3.205298  0.791542  1.188660
C    -4.721968  0.707668  0.924608
C    -5.352664  2.105145  0.734772
C    -6.860535  2.005473  0.491265
N    -7.501743  3.375533  0.317691
H    -2.703629  1.246947  0.325332
H    -3.012199  1.429979  2.062877
H    -5.215838  0.201448  1.769628
H    -4.914350  0.095910  0.029283
H    -4.870967  2.614666  -0.114967
H    -5.162063  2.717688  1.630615
H    -7.385145  1.532915  1.331172
H    -7.096396  1.445815  -0.422443
H    -8.516713  3.290634  0.151747
H    -7.106462  3.889371  -0.483994
H    -7.380870  3.967882  1.152787
N    -3.215222  -2.449865  -0.070159
C    -3.079324  -3.344399  -1.216255
H    -3.857523  -2.726385  0.670116
H    -2.428977  -4.200672  -0.973322
H    -2.636516  -2.794824  -2.054292
H    -4.072179  -3.734432  -1.471929
Hg    2.865612  -0.045474  3.125765
