35
Energy: -571611.2861251  eV PBE+vdW (tier 2 basis)
C    0.281087  -0.699424  0.100373
C    -0.006485  -0.347252  1.526069
O    0.950599  0.215385  2.155171
H    1.235618  -1.238171  0.039125
H    0.399097  0.231753  -0.475287
H    -0.519056  -1.302406  -0.346717
N    -1.220495  -0.634942  2.038698
C    -1.744978  -0.147221  3.317098
C    -1.203962  -0.945401  4.537147
O    -0.476710  -0.305035  5.392391
H    -1.870472  -1.068941  1.387192
H    -1.284991  0.843003  3.472875
C    -3.255811  0.226382  3.309494
C    -4.373273  -0.807955  3.079058
C    -5.740541  -0.087917  2.979203
C    -6.904218  -1.068452  2.814005
N    -8.241848  -0.346917  2.723318
H    -3.336065  1.018432  2.547942
H    -3.429378  0.731446  4.272262
H    -4.408813  -1.527320  3.908647
H    -4.207345  -1.385697  2.155200
H    -5.722101  0.612039  2.128726
H    -5.894684  0.516544  3.887443
H    -6.992042  -1.755862  3.664649
H    -6.821280  -1.663700  1.895980
H    -9.018404  -1.018181  2.614985
H    -8.283595  0.294619  1.916950
H    -8.440618  0.209774  3.568484
N    -1.421757  -2.222327  4.786359
C    -2.208196  -3.230941  4.081165
H    -0.952300  -2.552042  5.637401
H    -1.570762  -4.114262  3.939016
H    -2.540931  -2.868170  3.108263
H    -3.070667  -3.529821  4.690998
Hg    1.060357  0.847086  4.285540
