35
Energy: -571611.1422384  eV PBE+vdW (tier 2 basis)
C    -0.025077  -0.079506  -0.004632
C    -0.090784  0.026692  1.482433
O    0.940906  0.215937  2.226896
H    -1.001223  -0.275971  -0.460504
H    0.660957  -0.893269  -0.282573
H    0.364132  0.864087  -0.420594
N    -1.268779  -0.111986  2.094658
C    -1.474740  -0.189771  3.544807
C    -2.310462  -1.478439  3.771689
O    -3.110093  -1.788594  2.882738
H    -2.056101  -0.452622  1.532737
H    -0.487775  -0.264962  4.017881
C    -2.246416  1.027477  4.138812
C    -3.628817  1.342316  3.542799
C    -4.361434  2.448220  4.334637
C    -5.732677  2.755843  3.729718
N    -6.470263  3.834593  4.511524
H    -1.578242  1.895780  4.026520
H    -2.330895  0.847099  5.221593
H    -4.254250  0.434110  3.532133
H    -3.523057  1.655012  2.492325
H    -3.746575  3.362572  4.347831
H    -4.482605  2.128099  5.382064
H    -6.392737  1.879151  3.731625
H    -5.658636  3.128187  2.700242
H    -6.635608  3.557790  5.490893
H    -7.392811  4.031057  4.092870
H    -5.949984  4.724514  4.527798
N    -2.206386  -2.200314  4.913043
C    -1.226075  -2.116511  5.976887
H    -2.818424  -3.023445  4.920049
H    -0.472369  -2.916932  5.874456
H    -1.739143  -2.291553  6.935913
H    -0.731984  -1.142310  6.002221
Hg    2.964156  0.824416  1.409789
