35
Energy: -571611.1538904  eV PBE+vdW (tier 2 basis)
C    -0.869348  1.117807  -0.425564
C    -0.572284  1.238791  1.034504
O    0.510427  1.566654  1.510899
H    -1.433389  0.208773  -0.672989
H    0.067540  1.151347  -0.989380
H    -1.488952  1.981482  -0.725882
N    -1.645722  0.948330  1.908768
C    -1.550543  0.779112  3.315641
C    -1.324999  2.215290  4.060930
O    -2.276173  2.417801  4.864327
H    -2.544277  0.727153  1.475335
H    -2.533428  0.446924  3.671276
C    -0.470568  -0.219096  3.867954
C    -0.844794  -1.662985  3.479035
C    -0.030398  -2.773858  4.186909
C    1.386876  -2.981079  3.648158
N    2.016933  -4.236149  4.239635
H    -0.461739  -0.111653  4.962311
H    0.515633  0.082822  3.492292
H    -0.776685  -1.786215  2.387043
H    -1.897856  -1.845008  3.739722
H    -0.603864  -3.704282  4.047425
H    -0.002564  -2.588969  5.272374
H    2.070031  -2.158607  3.892932
H    1.395317  -3.128243  2.560586
H    2.972812  -4.382072  3.879471
H    1.474150  -5.082320  4.006516
H    2.083215  -4.191488  5.267912
N    -0.269287  2.929523  3.772848
C    0.077595  4.241221  4.334335
H    0.319730  2.531532  3.016625
H    1.030687  4.546577  3.888264
H    0.221446  4.180417  5.421456
H    -0.673211  4.998600  4.069767
Hg    -2.784410  4.185918  6.248430
