35
Energy: -571610.7496712  eV PBE+vdW (tier 2 basis)
C    -0.709212  -0.193627  -0.590008
C    -0.414320  -0.766918  0.747819
O    0.532715  -1.633734  0.802960
H    -1.114057  0.819769  -0.534559
H    -1.403900  -0.857984  -1.130494
H    0.221458  -0.191160  -1.176497
N    -1.018294  -0.401136  1.903811
C    -2.458010  -0.282070  2.205178
C    -2.990727  -1.752766  2.267002
O    -2.371120  -2.690811  1.662000
H    -0.478294  -0.694812  2.721159
H    -2.493379  0.127444  3.226436
C    -3.303719  0.635001  1.292800
C    -2.948626  2.134844  1.391273
C    -3.817025  2.978954  0.435066
C    -3.458747  4.461119  0.292431
N    -3.988156  5.351201  1.414148
H    -3.256948  0.286746  0.251578
H    -4.355163  0.498463  1.589957
H    -1.884550  2.287550  1.151278
H    -3.074227  2.461915  2.436440
H    -4.885996  2.874305  0.683326
H    -3.725589  2.571202  -0.583627
H    -2.375788  4.633979  0.254942
H    -3.898249  4.870355  -0.624892
H    -5.016205  5.307945  1.480955
H    -3.603928  5.108489  2.337501
H    -3.742549  6.338401  1.237952
N    -4.119604  -2.001021  2.919230
C    -4.726789  -3.313897  3.124129
H    -4.644654  -1.204582  3.284718
H    -5.637240  -3.392979  2.508185
H    -5.020088  -3.409393  4.178205
H    -4.027004  -4.100102  2.834524
Hg    -0.186436  -3.488027  1.817797
