35
Energy: -571610.7212604  eV PBE+vdW (tier 2 basis)
C    -0.022219  -0.046813  0.269672
C    -0.202909  -0.158611  1.737871
O    0.843224  -0.072119  2.475882
H    0.782706  -0.742311  -0.025058
H    0.345556  0.955667  0.002921
H    -0.930013  -0.303027  -0.285549
N    -1.402940  -0.394651  2.324819
C    -2.665577  0.320426  2.101657
C    -2.552948  1.655234  2.897087
O    -1.884707  1.742454  3.992547
H    -1.325967  -0.782664  3.268662
H    -2.762059  0.541652  1.028836
C    -3.837832  -0.571860  2.607197
C    -5.271219  -0.173283  2.190816
C    -5.738799  -0.686813  0.808320
C    -6.304448  -2.111742  0.760699
N    -7.772506  -2.188969  1.171417
H    -3.778075  -0.608535  3.705896
H    -3.612776  -1.590311  2.254980
H    -5.396920  0.918766  2.227144
H    -5.946366  -0.534634  2.981371
H    -4.905474  -0.669515  0.089602
H    -6.479974  0.007437  0.382964
H    -5.770426  -2.811112  1.416559
H    -6.271925  -2.512775  -0.259080
H    -8.115450  -3.161651  1.126057
H    -8.371102  -1.631909  0.542437
H    -7.940947  -1.856077  2.131496
N    -3.230762  2.711043  2.476501
C    -3.255739  4.030465  3.114028
H    -3.838479  2.588419  1.666157
H    -3.295715  4.794794  2.329387
H    -2.368555  4.157455  3.739523
H    -4.152690  4.122863  3.744834
Hg    0.260256  1.063053  4.304497
