35
Energy: -571611.0606881  eV PBE+vdW (tier 2 basis)
C    0.397786  0.351823  0.492721
C    -0.113311  -0.390231  1.672475
O    0.444397  -1.403062  2.191040
H    0.169144  -0.216668  -0.424009
H    1.492859  0.419564  0.549568
H    -0.012606  1.362724  0.400276
N    -1.305817  -0.079774  2.270638
C    -2.401893  0.634362  1.678149
C    -2.539019  2.124568  2.347337
O    -2.638255  2.977902  1.475471
H    -1.482121  -0.612994  3.128134
H    -2.147577  0.870327  0.641398
C    -3.770285  -0.093772  1.729619
C    -4.895244  0.659562  0.995876
C    -6.189497  -0.177341  0.886262
C    -7.280695  0.604022  0.149686
N    -8.567741  -0.197721  0.015904
H    -4.057716  -0.305359  2.769815
H    -3.595251  -1.068815  1.244390
H    -4.553189  0.935979  -0.013507
H    -5.119524  1.602710  1.516268
H    -6.542097  -0.450369  1.893705
H    -5.979648  -1.117009  0.350822
H    -6.981990  0.865965  -0.873150
H    -7.554738  1.527596  0.674802
H    -9.291036  0.345473  -0.480903
H    -8.960998  -0.456481  0.933080
H    -8.427281  -1.070105  -0.515348
N    -2.583747  2.316840  3.661604
C    -2.453938  1.364019  4.766614
H    -2.673544  3.301882  3.920371
H    -2.868837  1.839925  5.661882
H    -1.402552  1.124328  4.972638
H    -3.039255  0.453980  4.591680
Hg    2.724411  -1.859605  2.375046
