35
Energy: -571610.5658468  eV PBE+vdW (tier 2 basis)
C    0.187115  0.818120  -0.547518
C    0.461579  0.285297  0.811005
O    1.626641  -0.225852  0.993049
H    1.140284  1.149502  -0.985816
H    -0.525187  1.646513  -0.542850
H    -0.172180  0.002121  -1.196811
N    -0.381289  0.355455  1.870156
C    -1.805552  -0.021158  1.973899
C    -1.824871  -1.583916  2.005209
O    -0.851731  -2.262647  1.530988
H    0.114540  0.219096  2.753960
H    -2.113404  0.335359  2.969227
C    -2.760550  0.581764  0.915889
C    -2.871725  2.126698  0.963689
C    -3.883837  2.704389  1.983251
C    -5.311902  2.944541  1.478691
N    -5.472116  4.275622  0.748938
H    -3.751877  0.129379  1.073590
H    -2.457425  0.247947  -0.084645
H    -3.117590  2.466829  -0.054022
H    -1.882857  2.556310  1.176740
H    -3.490991  3.640302  2.409179
H    -3.978133  2.036690  2.853154
H    -6.021658  2.991020  2.312879
H    -5.658315  2.173062  0.779182
H    -4.867489  4.355875  -0.080928
H    -5.254907  5.072847  1.366595
H    -6.444431  4.403531  0.426524
N    -2.893263  -2.206384  2.486485
C    -3.055065  -3.652435  2.629897
H    -3.703944  -1.639678  2.738856
H    -2.083381  -4.146313  2.561974
H    -3.707566  -4.030792  1.826730
H    -3.538283  -3.859000  3.593129
Hg    1.431297  -2.229674  1.948433
