35
Energy: -571611.0005364  eV PBE+vdW (tier 2 basis)
C    1.339794  0.018186  0.789222
C    0.189633  -0.889413  1.073337
O    0.173132  -2.131594  0.757927
H    2.230805  -0.347082  1.325917
H    1.155812  1.052163  1.099536
H    1.555307  0.007880  -0.289256
N    -0.905537  -0.383137  1.657161
C    -2.172711  -1.086535  1.849525
C    -3.240405  -0.269544  1.059554
O    -3.103587  0.957055  1.057820
H    -0.965423  0.638182  1.710963
H    -2.057700  -2.096399  1.437146
C    -2.632415  -1.161093  3.340210
C    -2.706312  0.176724  4.094815
C    -3.579042  0.193368  5.369862
C    -2.968111  -0.518952  6.578483
N    -3.807889  -0.288708  7.828876
H    -1.935321  -1.857826  3.832990
H    -3.615265  -1.657408  3.337396
H    -3.137811  0.943330  3.427618
H    -1.694153  0.538381  4.335078
H    -4.571436  -0.229414  5.146015
H    -3.741861  1.251253  5.629071
H    -1.966764  -0.138454  6.817079
H    -2.907382  -1.607176  6.453602
H    -4.770733  -0.641405  7.719572
H    -3.876508  0.713892  8.062590
H    -3.401157  -0.763886  8.649331
N    -4.290488  -0.872033  0.455813
C    -4.529406  -2.278307  0.192575
H    -4.901078  -0.207719  -0.032328
H    -4.252735  -2.535861  -0.844072
H    -5.610445  -2.464818  0.285904
H    -3.991237  -2.921419  0.893369
Hg    2.052778  -3.293646  0.175073
