35
Energy: -571611.2893176  eV PBE+vdW (tier 2 basis)
C    -1.945788  -0.559147  -0.123261
C    -1.042470  -0.195547  1.011642
O    0.211953  -0.287462  0.742717
H    -2.986515  -0.706078  0.187682
H    -1.572932  -1.476170  -0.601479
H    -1.889381  0.233982  -0.885722
N    -1.597037  0.198733  2.171407
C    -1.119247  0.323498  3.587971
C    -0.370744  1.645393  3.888602
O    0.912508  1.778871  3.725364
H    -2.612610  0.243960  2.105509
H    -2.062996  0.393526  4.141180
C    -0.417442  -0.945871  4.140332
C    -0.327778  -0.924839  5.683680
C    -0.229296  -2.297986  6.391331
C    1.141728  -2.974619  6.334607
N    1.177440  -4.206209  7.231452
H    0.575493  -1.099241  3.687883
H    -1.035598  -1.792879  3.807190
H    -1.245609  -0.461215  6.076907
H    0.498954  -0.276705  6.012169
H    -1.001658  -2.975246  5.993662
H    -0.487773  -2.121016  7.447060
H    1.940446  -2.316714  6.700310
H    1.410603  -3.327985  5.331515
H    2.099981  -4.667624  7.203263
H    0.477337  -4.910675  6.953138
H    0.990461  -3.966201  8.217521
N    -0.989142  2.680658  4.419298
C    -2.363117  2.870704  4.896261
H    -0.371132  3.487330  4.568941
H    -2.750106  3.797460  4.451991
H    -2.356721  2.985820  5.988369
H    -3.015067  2.041266  4.613853
Hg    1.609769  0.804575  1.941198
