35
Energy: -571610.9284260  eV PBE+vdW (tier 2 basis)
C    -0.154721  -1.150472  0.089239
C    -0.193664  -0.177125  1.217745
O    0.826882  0.446757  1.654528
H    0.035943  -0.594355  -0.845168
H    0.668234  -1.863796  0.229512
H    -1.092621  -1.701593  -0.041695
N    -1.367966  0.034204  1.860754
C    -1.635173  1.013156  2.896121
C    -1.284268  0.526275  4.356193
O    -1.505403  1.302090  5.279273
H    -2.137325  -0.588453  1.606810
H    -0.959496  1.867380  2.737909
C    -3.139696  1.407640  2.810415
C    -3.708701  2.400233  3.837721
C    -3.243369  3.859261  3.705506
C    -3.776835  4.820023  4.771202
N    -5.253920  5.173278  4.614043
H    -3.735674  0.481778  2.876307
H    -3.293053  1.796033  1.790943
H    -3.508576  2.049257  4.865907
H    -4.803063  2.320334  3.721470
H    -3.467971  4.251187  2.699461
H    -2.149569  3.918746  3.809894
H    -3.245248  5.777779  4.726977
H    -3.669123  4.417072  5.786250
H    -5.449935  5.605309  3.698802
H    -5.874245  4.357712  4.713826
H    -5.540269  5.854699  5.334451
N    -0.744139  -0.701049  4.544359
C    -0.296042  -1.168005  5.846285
H    -0.486933  -1.251521  3.728531
H    0.750104  -0.875086  6.043815
H    -0.344113  -2.264739  5.854460
H    -0.925579  -0.722798  6.626438
Hg    2.690307  0.964401  0.332798
