35
Energy: -571610.9016118  eV PBE+vdW (tier 2 basis)
C    -0.338039  -1.510468  2.211675
C    0.035003  -0.214349  1.585927
O    1.061195  0.466929  1.956891
H    -0.291785  -1.419551  3.304848
H    -1.327384  -1.877990  1.927071
H    0.400820  -2.271613  1.907789
N    -0.678290  0.381817  0.617655
C    -2.014953  0.077989  0.133011
C    -1.997261  0.558183  -1.357437
O    -1.356969  1.570816  -1.630945
H    -0.261557  1.226375  0.201986
H    -2.179845  -1.002632  0.202978
C    -3.187383  0.800773  0.873626
C    -3.184578  2.337225  0.905203
C    -4.432437  2.862535  1.651659
C    -4.493410  4.365810  1.927653
N    -4.943363  5.205960  0.734820
H    -3.180994  0.400476  1.900984
H    -4.119035  0.431083  0.418029
H    -3.146340  2.735594  -0.122534
H    -2.278577  2.704326  1.412113
H    -4.474891  2.392726  2.646140
H    -5.355484  2.536041  1.145260
H    -3.527168  4.779237  2.242615
H    -5.225439  4.577090  2.716340
H    -4.996137  6.203785  0.993476
H    -4.303482  5.137917  -0.068315
H    -5.883054  4.931546  0.411443
N    -2.698071  -0.134976  -2.289571
C    -3.385535  -1.409207  -2.184792
H    -2.530591  0.212543  -3.239766
H    -4.199717  -1.417477  -2.923265
H    -3.802528  -1.566814  -1.185597
H    -2.714121  -2.246731  -2.443169
Hg    3.028789  -0.360974  2.666614
