35
Energy: -571611.3165892  eV PBE+vdW (tier 2 basis)
C    -0.907102  0.912919  0.116487
C    -0.757442  0.330741  1.486430
O    0.084982  -0.636235  1.565192
H    -0.011293  1.515507  -0.105283
H    -1.806163  1.530216  0.008033
H    -0.922699  0.100827  -0.623813
N    -1.478852  0.861559  2.489640
C    -1.858775  0.408666  3.867457
C    -0.784882  0.693926  4.950283
O    0.225146  -0.077432  5.192583
H    -2.013886  1.672418  2.184103
H    -2.692003  1.082643  4.111526
C    -2.423591  -1.033273  3.946646
C    -3.755133  -1.218571  3.186956
C    -4.280006  -2.674915  3.183206
C    -5.097818  -3.142816  4.399769
N    -6.603947  -3.102757  4.153917
H    -2.547107  -1.264436  5.016232
H    -1.694778  -1.766797  3.564761
H    -3.617179  -0.917092  2.138978
H    -4.511532  -0.531194  3.600237
H    -3.433241  -3.367827  3.076380
H    -4.870083  -2.832575  2.267384
H    -4.924032  -2.540369  5.300028
H    -4.881342  -4.187765  4.648905
H    -6.874239  -3.724919  3.376386
H    -6.949554  -2.159794  3.925142
H    -7.124013  -3.423383  4.986123
N    -0.959979  1.738234  5.733853
C    -0.065938  2.149873  6.825349
H    -1.814533  2.283412  5.620910
H    -0.433572  1.742567  7.777805
H    -0.071533  3.243996  6.877646
H    0.944379  1.776414  6.637889
Hg    0.986737  -1.102766  3.462865
