35
Energy: -571610.8903766  eV PBE+vdW (tier 2 basis)
C    0.407889  -0.126959  0.352245
C    0.023992  -0.354577  1.768999
O    0.805633  -0.913738  2.622739
H    -0.394340  0.279151  -0.268952
H    0.766460  -1.067324  -0.088423
H    1.245954  0.588984  0.326685
N    -1.179144  -0.047091  2.284725
C    -2.443527  0.251066  1.630416
C    -3.038976  1.431786  2.507851
O    -3.040288  1.268267  3.723074
H    -1.254455  -0.170000  3.303445
H    -2.256357  0.566759  0.599169
C    -3.436562  -0.950423  1.687911
C    -4.816387  -0.645050  1.075468
C    -5.924734  -1.682102  1.374611
C    -5.804105  -3.002260  0.612235
N    -7.036698  -3.870374  0.833401
H    -3.546019  -1.234166  2.746049
H    -2.945850  -1.787538  1.168645
H    -4.727457  -0.502008  -0.012870
H    -5.192476  0.306484  1.478605
H    -6.881175  -1.206758  1.106540
H    -5.965666  -1.874221  2.458528
H    -4.949144  -3.610938  0.930904
H    -5.737820  -2.847907  -0.472316
H    -7.896132  -3.401636  0.507930
H    -7.174829  -4.099482  1.829313
H    -6.966524  -4.763379  0.321919
N    -3.507906  2.553347  1.914225
C    -3.495689  2.944521  0.514838
H    -3.764368  3.278133  2.592069
H    -3.655490  2.085459  -0.144521
H    -2.552971  3.450776  0.246055
H    -4.305236  3.669538  0.359150
Hg    3.044450  -0.734279  2.769118
