35
Energy: -571611.0780851  eV PBE+vdW (tier 2 basis)
C    -0.294576  -0.252244  -0.488789
C    -0.029264  -0.491939  0.954535
O    1.082572  -0.970942  1.386253
H    0.313625  0.607352  -0.818326
H    -1.338618  -0.027921  -0.722386
H    0.022244  -1.126598  -1.072172
N    -0.928538  -0.273366  1.927922
C    -2.352172  -0.002716  1.833389
C    -2.652944  0.893437  3.086322
O    -2.046472  0.650544  4.126560
H    -0.582597  -0.380204  2.891453
H    -2.551897  0.534910  0.900595
C    -3.291311  -1.252653  1.895467
C    -3.154654  -2.172041  3.116515
C    -4.286763  -3.223632  3.172215
C    -4.156528  -4.124089  4.402355
N    -5.279813  -5.149467  4.477490
H    -3.108908  -1.811780  0.963030
H    -4.320634  -0.869385  1.817599
H    -3.171914  -1.577950  4.045907
H    -2.177924  -2.680105  3.098930
H    -4.267287  -3.836477  2.256832
H    -5.260735  -2.708891  3.193009
H    -4.206217  -3.554876  5.339097
H    -3.223033  -4.700510  4.398586
H    -5.179223  -5.748796  5.311434
H    -5.291204  -5.772971  3.656395
H    -6.207597  -4.703510  4.536548
N    -3.577394  1.880959  2.993375
C    -4.281798  2.395942  1.832914
H    -3.614440  2.458752  3.839787
H    -5.241825  2.807863  2.175095
H    -4.469385  1.614458  1.090575
H    -3.726791  3.227938  1.365764
Hg    3.136273  -0.560368  0.550320
