35
Energy: -571611.6031340  eV PBE+vdW (tier 2 basis)
C    0.161292  -0.842357  0.352656
C    -0.298102  0.011380  1.492212
O    -0.363194  -0.597330  2.622475
H    -0.048182  -0.399179  -0.627425
H    -0.313694  -1.830603  0.423388
H    1.244816  -1.012244  0.460622
N    -0.576465  1.304008  1.250478
C    -1.315815  2.378594  1.989048
C    -0.473068  3.118636  3.061519
O    -0.295481  2.690614  4.270462
H    -0.370620  1.563783  0.287451
H    -1.484880  3.126296  1.201473
C    -2.719543  1.975959  2.509263
C    -3.744867  1.725511  1.383310
C    -5.179832  1.526367  1.920548
C    -6.183069  1.350032  0.776448
N    -7.610024  1.193011  1.283151
H    -3.064566  2.805785  3.145474
H    -2.669508  1.092495  3.166182
H    -3.448540  0.847595  0.789308
H    -3.735188  2.587465  0.696951
H    -5.212798  0.647180  2.583541
H    -5.464844  2.399940  2.528435
H    -5.976607  0.455081  0.176233
H    -6.198098  2.218340  0.105774
H    -8.270142  1.081328  0.497478
H    -7.922489  2.013686  1.823807
H    -7.720412  0.365792  1.888672
N    0.012956  4.303485  2.754815
C    0.802551  5.163040  3.647926
H    -0.223050  4.696859  1.843807
H    0.141977  5.893770  4.135336
H    1.542361  5.697359  3.042157
H    1.294366  4.553269  4.410393
Hg    -0.259236  0.552051  4.437633
