35
Energy: -571611.2088425  eV PBE+vdW (tier 2 basis)
C    -1.030615  -1.203738  -0.105294
C    -1.408552  -0.241051  0.977729
O    -1.493368  0.981947  0.588716
H    -0.262195  -0.749652  -0.745188
H    -1.912217  -1.367212  -0.746356
H    -0.671148  -2.164534  0.280303
N    -1.640447  -0.733058  2.206336
C    -1.777841  -0.215453  3.615029
C    -3.097591  0.518499  3.966796
O    -3.368459  1.753668  3.678114
H    -1.566141  -1.749268  2.206416
H    -1.861810  -1.162485  4.164033
C    -0.493781  0.425027  4.227786
C    0.095525  1.737992  3.684989
C    1.242892  2.327174  4.549004
C    2.566381  1.557972  4.488053
N    3.658055  2.284107  5.263347
H    0.264389  -0.371041  4.181450
H    -0.727202  0.551136  5.297718
H    -0.678800  2.523062  3.680085
H    0.447209  1.613264  2.649127
H    0.902886  2.407012  5.593709
H    1.415093  3.356180  4.198020
H    2.941764  1.461853  3.461288
H    2.506056  0.556621  4.931289
H    3.835982  3.228504  4.887789
H    3.419978  2.393324  6.261142
H    4.551982  1.769694  5.220975
N    -3.960164  -0.128482  4.725664
C    -5.238142  0.401874  5.216746
H    -3.705575  -1.058852  5.058453
H    -5.109660  0.783316  6.239847
H    -5.964770  -0.417953  5.231622
H    -5.578991  1.212674  4.567982
Hg    -2.655753  2.344083  1.750604
