35
Energy: -571610.9511453  eV PBE+vdW (tier 2 basis)
C    -0.092513  0.136575  -0.034502
C    -0.203766  -0.053894  1.435395
O    0.764436  -0.496508  2.155737
H    -1.039743  0.364448  -0.530158
H    0.344363  -0.761587  -0.490869
H    0.596570  0.976068  -0.227889
N    -1.325954  0.172240  2.138073
C    -2.685846  0.394508  1.677045
C    -3.317154  1.300964  2.793467
O    -2.997532  1.083624  3.959050
H    -1.236167  0.099821  3.161236
H    -2.657314  0.910778  0.711867
C    -3.570223  -0.890303  1.534137
C    -3.624942  -1.811547  2.759361
C    -4.486661  -3.088289  2.589235
C    -5.993021  -2.865034  2.737066
N    -6.746974  -4.188996  2.737807
H    -3.166616  -1.432799  0.663000
H    -4.572583  -0.546039  1.235794
H    -3.964538  -1.259697  3.651749
H    -2.607523  -2.152908  2.998864
H    -4.158418  -3.795862  3.366094
H    -4.267529  -3.563398  1.619909
H    -6.427478  -2.275986  1.920155
H    -6.243011  -2.379163  3.688753
H    -6.606654  -4.716407  1.862915
H    -7.762603  -4.042998  2.845414
H    -6.445362  -4.799068  3.513093
N    -4.199412  2.269234  2.444456
C    -4.566477  2.764188  1.128812
H    -4.465224  2.857994  3.240764
H    -5.573451  3.197827  1.199173
H    -4.570312  1.965133  0.380984
H    -3.891419  3.574147  0.802856
Hg    2.961899  -0.089489  1.874451
