35
Energy: -571610.8950476  eV PBE+vdW (tier 2 basis)
C    -0.439617  0.399968  -1.455097
C    -0.070974  0.303501  -0.022203
O    0.971110  0.833865  0.483107
H    0.413224  0.050711  -2.058732
H    -0.603912  1.453843  -1.724810
H    -1.315522  -0.197976  -1.721103
N    -0.827506  -0.330764  0.916393
C    -2.268073  -0.610450  0.962874
C    -2.493331  -1.958206  0.137135
O    -2.899143  -1.898873  -1.012015
H    -0.336251  -0.414451  1.812517
H    -2.471772  -0.829043  2.020868
C    -3.213908  0.516471  0.502852
C    -4.665950  0.300874  0.978621
C    -5.564688  1.547696  0.781133
C    -6.319142  1.679147  -0.546093
N    -7.697145  1.021332  -0.508136
H    -3.170602  0.620292  -0.589553
H    -2.830056  1.447766  0.946905
H    -4.654105  0.070490  2.054083
H    -5.100713  -0.581423  0.481965
H    -4.956102  2.457032  0.888556
H    -6.283746  1.609343  1.612610
H    -5.791181  1.227628  -1.395397
H    -6.514648  2.730531  -0.787151
H    -7.652871  0.013316  -0.303328
H    -8.296838  1.454348  0.211000
H    -8.185801  1.128369  -1.410631
N    -2.188397  -3.103904  0.793300
C    -2.463807  -4.420685  0.238861
H    -1.966603  -3.052599  1.787142
H    -1.757548  -5.135382  0.681571
H    -2.376097  -4.379006  -0.853322
H    -3.482725  -4.761337  0.492801
Hg    3.064474  1.109151  -0.448005
