35
Energy: -571611.4213793  eV PBE+vdW (tier 2 basis)
C    0.984639  1.273808  0.769969
C    0.066455  0.116080  0.542191
O    0.363837  -0.606596  -0.479165
H    1.170997  1.777957  -0.189566
H    1.958603  0.889338  1.111807
H    0.590383  1.997481  1.492369
N    -0.950489  -0.078719  1.400277
C    -2.243579  -0.841232  1.342656
C    -2.100349  -2.325019  1.777444
O    -1.724985  -3.275001  0.985892
H    -0.927100  0.584278  2.173446
H    -2.829706  -0.359312  2.137636
C    -3.031916  -0.632615  0.026098
C    -4.550356  -0.885067  0.151867
C    -5.263523  -0.674003  -1.201176
C    -6.762513  -0.990369  -1.254235
N    -7.665174  0.153798  -0.800047
H    -2.632526  -1.263492  -0.786718
H    -2.853138  0.405122  -0.290777
H    -4.957041  -0.210045  0.922942
H    -4.739528  -1.913090  0.499612
H    -4.807737  -1.341524  -1.948060
H    -5.081012  0.344288  -1.582289
H    -7.036144  -1.857237  -0.639645
H    -7.069935  -1.199073  -2.285707
H    -8.658664  -0.113442  -0.887632
H    -7.532106  0.995872  -1.380246
H    -7.514485  0.424387  0.181330
N    -2.440703  -2.645366  3.009027
C    -2.353092  -3.988637  3.599335
H    -2.837103  -1.915239  3.600445
H    -3.320328  -4.501455  3.504565
H    -2.107811  -3.879804  4.661251
H    -1.583711  -4.569801  3.083628
Hg    -0.343819  -2.628293  -0.541731
