35
Energy: -571611.0433544  eV PBE+vdW (tier 2 basis)
C    -0.031262  1.550818  0.086372
C    0.061038  0.605599  1.227206
O    1.091412  -0.069961  1.529671
H    -0.148765  0.981732  -0.850789
H    0.911179  2.107603  -0.005709
H    -0.854970  2.266451  0.178322
N    -1.011778  0.319844  2.025049
C    -2.404227  0.506366  1.696890
C    -2.953249  1.818746  2.483922
O    -3.389156  2.663933  1.714869
H    -0.776688  -0.277182  2.824171
H    -2.474486  0.822623  0.652579
C    -3.306701  -0.729202  1.918529
C    -4.767102  -0.489793  1.488603
C    -5.607790  -1.785412  1.503672
C    -7.044934  -1.510221  1.054178
N    -7.892161  -2.774953  1.038095
H    -3.258408  -1.069104  2.962835
H    -2.864421  -1.530391  1.303470
H    -4.783337  -0.058104  0.475805
H    -5.236830  0.255523  2.149055
H    -5.609819  -2.217702  2.517000
H    -5.146717  -2.530462  0.835839
H    -7.088105  -1.106819  0.034681
H    -7.561892  -0.810346  1.722612
H    -7.957286  -3.210500  1.970280
H    -7.515436  -3.485205  0.392607
H    -8.856159  -2.569713  0.732230
N    -2.911934  1.934432  3.817700
C    -2.635512  0.949055  4.861095
H    -3.346308  2.802507  4.143579
H    -1.872722  0.226636  4.560437
H    -3.549178  0.420015  5.164467
H    -2.249723  1.490529  5.734035
Hg    3.325258  0.541841  1.328698
