35
Energy: -571610.8164383  eV PBE+vdW (tier 2 basis)
C    0.151734  0.355691  0.296763
C    0.119727  -0.417143  1.562341
O    1.175671  -0.845265  2.139707
H    0.701802  1.293919  0.492897
H    -0.831935  0.611107  -0.095626
H    0.706992  -0.209122  -0.463915
N    -1.009049  -0.764808  2.243366
C    -2.355674  -1.054070  1.767279
C    -2.300481  -2.239784  0.713175
O    -1.575468  -2.074330  -0.263460
H    -0.783334  -1.188764  3.148090
H    -2.868627  -1.423299  2.665016
C    -3.160249  0.145365  1.181671
C    -4.678442  -0.090459  1.322929
C    -5.581818  1.129580  1.023723
C    -5.774235  1.443958  -0.460958
N    -6.844528  2.510914  -0.656487
H    -2.881592  0.310422  0.132962
H    -2.868000  1.038063  1.753808
H    -4.893032  -0.372915  2.364501
H    -4.994606  -0.943035  0.701302
H    -5.199549  2.016618  1.553339
H    -6.564761  0.905020  1.466800
H    -6.119253  0.568729  -1.026058
H    -4.870363  1.834718  -0.943909
H    -6.979434  2.731502  -1.655315
H    -6.604946  3.393047  -0.179161
H    -7.758677  2.205627  -0.288189
N    -3.033278  -3.352063  0.917975
C    -3.788053  -3.777805  2.091878
H    -2.866504  -4.069351  0.206102
H    -4.355650  -2.953844  2.533850
H    -3.130177  -4.233613  2.849245
H    -4.496548  -4.550886  1.768812
Hg    3.227610  0.118769  2.102084
