35
Energy: -571610.7608417  eV PBE+vdW (tier 2 basis)
C    0.372050  0.598182  0.433990
C    0.032272  0.055769  1.773092
O    0.806177  -0.640483  2.492885
H    1.424855  0.910975  0.419631
H    -0.252302  1.446000  0.133482
H    0.275170  -0.201613  -0.319697
N    -1.218374  0.199586  2.322455
C    -2.433251  0.423436  1.594589
C    -3.061674  1.931097  1.797228
O    -3.784108  2.207106  0.850925
H    -1.281888  -0.156510  3.280706
H    -2.193687  0.442541  0.527280
C    -3.569529  -0.608943  1.821398
C    -4.291731  -0.603755  3.179034
C    -5.392064  -1.684311  3.325599
C    -6.673125  -1.391077  2.539515
N    -7.758055  -2.412815  2.853591
H    -3.125516  -1.598549  1.626823
H    -4.276376  -0.411849  1.002923
H    -4.731393  0.387086  3.373993
H    -3.574549  -0.789322  3.993484
H    -5.639030  -1.751050  4.396150
H    -4.987923  -2.667247  3.035913
H    -6.534284  -1.431192  1.452322
H    -7.099326  -0.413383  2.798006
H    -7.470199  -3.372519  2.609590
H    -8.623271  -2.212840  2.327980
H    -8.005978  -2.414118  3.854915
N    -2.812383  2.702931  2.852876
C    -2.028320  2.454805  4.063208
H    -3.251210  3.623302  2.778157
H    -0.950012  2.435597  3.861980
H    -2.353830  1.543989  4.579918
H    -2.216066  3.294090  4.742751
Hg    3.137850  -0.514420  2.654036
