35
Energy: -571611.6120365  eV PBE+vdW (tier 2 basis)
C    0.192180  2.041283  0.967782
C    0.344017  1.207032  2.198812
O    0.666422  1.852715  3.257013
H    -0.255664  1.489673  0.133417
H    1.182411  2.425586  0.677990
H    -0.425177  2.920694  1.202204
N    0.143934  -0.122289  2.112932
C    -0.090330  -1.119065  3.183034
C    1.235885  -1.785424  3.643760
O    1.916698  -1.297055  4.626613
H    -0.031841  -0.454078  1.165368
H    -0.461155  -0.575083  4.068250
C    -1.201685  -2.115756  2.765658
C    -2.596528  -1.460711  2.671684
C    -3.741037  -2.361713  2.147675
C    -4.287791  -3.366229  3.166014
N    -5.548208  -4.046322  2.646462
H    -1.204817  -2.923514  3.512335
H    -0.941019  -2.576906  1.796635
H    -2.547927  -0.598935  1.990846
H    -2.874467  -1.049718  3.655127
H    -3.421693  -2.885216  1.232529
H    -4.557476  -1.686664  1.847840
H    -4.578671  -2.879286  4.105559
H    -3.586202  -4.176783  3.398217
H    -5.918979  -4.722665  3.332136
H    -5.380053  -4.564128  1.770539
H    -6.300375  -3.365649  2.457685
N    1.679982  -2.876667  3.060620
C    2.932307  -3.572127  3.400243
H    1.084979  -3.319263  2.361997
H    2.742464  -4.323231  4.179025
H    3.666309  -2.849442  3.768238
H    3.303272  -4.069240  2.498544
Hg    1.604230  0.832174  4.932217
