35
Energy: -571610.7289851  eV PBE+vdW (tier 2 basis)
C    -0.679469  -0.161635  -0.062348
C    -0.645719  -0.104858  1.420742
O    0.363998  -0.625099  2.014231
H    -0.414965  -1.186150  -0.371745
H    0.106820  0.483071  -0.485121
H    -1.660570  0.097232  -0.472286
N    -1.642880  0.435602  2.163999
C    -2.258195  1.754710  1.963693
C    -1.266726  2.788397  2.565053
O    -0.481123  2.471811  3.539361
H    -1.610006  0.163213  3.149604
H    -2.369873  1.930670  0.885257
C    -3.615399  1.852504  2.707597
C    -4.773788  0.953304  2.221291
C    -5.474608  1.409909  0.920200
C    -6.994819  1.227881  0.872405
N    -7.466208  -0.220435  0.777123
H    -3.941059  2.902861  2.687158
H    -3.421496  1.632994  3.769737
H    -5.501274  0.966039  3.047766
H    -4.431622  -0.089825  2.141034
H    -5.015869  0.956285  0.027730
H    -5.345465  2.496563  0.793923
H    -7.415335  1.727998  -0.008302
H    -7.482547  1.641970  1.764161
H    -8.497069  -0.259326  0.732309
H    -7.182592  -0.786549  1.589059
H    -7.113705  -0.686532  -0.071747
N    -1.256070  4.054396  2.179989
C    -2.174938  4.775782  1.303567
H    -0.549414  4.628241  2.654262
H    -2.836224  5.418022  1.904431
H    -2.771779  4.088630  0.698996
H    -1.582422  5.423944  0.643716
Hg    0.988259  0.746228  3.671662
