35
Energy: -571610.7651294  eV PBE+vdW (tier 2 basis)
C    -1.643254  -1.213243  0.161614
C    -1.178559  -1.261804  1.581874
O    -0.429575  -2.080929  2.067044
H    -2.623915  -1.717848  0.109797
H    -1.769822  -0.191299  -0.217189
H    -0.949869  -1.775666  -0.471828
N    -1.679114  -0.211199  2.447098
C    -1.310481  -0.102042  3.807914
C    -2.644465  -0.295021  4.738798
O    -2.427404  -0.090594  5.957752
H    -2.014151  0.634385  1.976742
H    -0.720041  -0.994591  4.070395
C    -0.570087  1.195368  4.208964
C    0.947889  1.214511  3.922715
C    1.391453  1.385869  2.456869
C    2.767656  2.026807  2.246608
N    3.949187  1.157008  2.667363
H    -0.706238  1.305955  5.293857
H    -1.061180  2.066551  3.746822
H    1.410569  0.323737  4.376343
H    1.318370  2.076436  4.504145
H    0.702848  2.074708  1.942134
H    1.339340  0.433046  1.906008
H    2.870616  2.963634  2.808991
H    2.932722  2.248168  1.185476
H    3.946686  0.940449  3.673982
H    4.839117  1.641802  2.469676
H    3.975779  0.263704  2.153921
N    -3.752636  -0.691966  4.151913
C    -5.024393  -1.012313  4.803971
H    -3.683786  -0.828583  3.143015
H    -5.711791  -1.388071  4.036932
H    -5.473470  -0.117184  5.253233
H    -4.898524  -1.821121  5.541280
Hg    -3.735919  -0.409406  7.853796
