35
Energy: -571611.6004971  eV PBE+vdW (tier 2 basis)
C    1.037683  1.104424  1.799863
C    -0.039833  0.581450  0.905107
O    0.140566  0.827018  -0.344877
H    1.303890  2.123581  1.484659
H    1.941270  0.490326  1.657377
H    0.750853  1.110950  2.857458
N    -1.063548  -0.094891  1.455591
C    -2.456003  -0.446596  1.012895
C    -2.537739  -1.767465  0.201728
O    -2.317638  -1.848510  -1.070371
H    -0.937024  -0.222715  2.458447
H    -2.950983  -0.664107  1.969645
C    -3.231650  0.741090  0.389732
C    -4.762217  0.549857  0.419412
C    -5.525356  1.826244  -0.001455
C    -7.041039  1.627949  0.096233
N    -7.810044  2.887839  -0.276015
H    -2.903846  0.948402  -0.643279
H    -2.954515  1.631273  0.973296
H    -5.066340  0.272802  1.441727
H    -5.055181  -0.286307  -0.234662
H    -5.252292  2.102136  -1.032360
H    -5.219988  2.662015  0.648131
H    -7.358084  1.374582  1.115705
H    -7.401789  0.844048  -0.581394
H    -8.828047  2.734056  -0.200837
H    -7.621973  3.188031  -1.244380
H    -7.579526  3.680661  0.341960
N    -2.920785  -2.857970  0.832791
C    -3.045555  -4.194694  0.234783
H    -3.196018  -2.771523  1.811074
H    -2.776175  -4.935788  0.994858
H    -2.385343  -4.274879  -0.632932
H    -4.083918  -4.365821  -0.080844
Hg    -0.867948  -0.415583  -1.764024
