35
Energy: -571611.0522151  eV PBE+vdW (tier 2 basis)
C    -1.364430  2.350044  -1.348252
C    -0.288364  1.865714  -0.448955
O    0.922932  2.158975  -0.755970
H    -1.070520  2.122869  -2.386871
H    -1.436066  3.447854  -1.299299
H    -2.329813  1.878537  -1.138019
N    -0.525752  1.102801  0.645920
C    -1.501767  1.371955  1.706189
C    -0.791356  2.310961  2.729982
O    0.487774  2.385364  2.831505
H    0.296589  0.592967  0.978277
H    -2.345649  1.920649  1.261907
C    -2.006680  0.059567  2.364238
C    -2.776968  -0.836608  1.375150
C    -3.136759  -2.255642  1.875786
C    -4.319987  -2.315341  2.844497
N    -4.738478  -3.755796  3.112665
H    -2.636510  0.332233  3.223912
H    -1.139579  -0.478500  2.781851
H    -2.162214  -0.975270  0.474307
H    -3.691012  -0.321035  1.039767
H    -2.252045  -2.730192  2.329122
H    -3.384203  -2.850503  0.982902
H    -5.209147  -1.819053  2.435397
H    -4.099699  -1.880794  3.827081
H    -5.024988  -4.237129  2.246352
H    -5.539339  -3.800330  3.761476
H    -3.976993  -4.311065  3.531106
N    -1.538996  2.998921  3.577766
C    -1.052107  3.926262  4.601592
H    -2.544946  2.823458  3.571344
H    -1.760698  4.758834  4.680032
H    -0.054476  4.284261  4.335598
H    -1.001340  3.413514  5.574081
Hg    1.996388  2.613471  1.144550
