35
Energy: -571611.0264830  eV PBE+vdW (tier 2 basis)
C    -0.107791  -0.171430  -0.254829
C    -0.175092  -0.879236  1.047983
O    0.648475  -1.765893  1.431782
H    -0.774984  0.693138  -0.321818
H    -0.342081  -0.878500  -1.066715
H    0.922858  0.172657  -0.426201
N    -1.193451  -0.683009  1.936239
C    -2.526293  -0.180941  1.651561
C    -2.620300  1.363418  2.079063
O    -3.215670  2.082617  1.291236
H    -1.063986  -1.198450  2.814795
H    -2.668650  -0.147585  0.567304
C    -3.622273  -1.027435  2.339156
C    -5.077803  -0.522653  2.220785
C    -5.685254  -0.568695  0.806796
C    -7.124811  -0.060642  0.687365
N    -8.176364  -1.024730  1.231333
H    -3.379011  -1.115524  3.410035
H    -3.545765  -2.042280  1.916758
H    -5.158766  0.498511  2.624107
H    -5.654605  -1.158720  2.910127
H    -5.610064  -1.582934  0.381045
H    -5.113437  0.082129  0.127849
H    -7.392901  0.093669  -0.364341
H    -7.279274  0.886425  1.219814
H    -9.124508  -0.642033  1.090114
H    -8.074605  -1.202643  2.240207
H    -8.146633  -1.935332  0.748935
N    -2.069650  1.756585  3.239747
C    -2.228408  3.113107  3.765630
H    -1.702905  1.048718  3.872577
H    -3.146961  3.206424  4.365643
H    -2.281134  3.818252  2.928015
H    -1.371488  3.330497  4.414666
Hg    2.914200  -1.942132  0.965234
