35
Energy: -571611.0481947  eV PBE+vdW (tier 2 basis)
C    0.391386  -0.706113  0.197381
C    -0.039896  -0.459330  1.594071
O    0.753660  -0.116222  2.530710
H    0.859051  0.200049  -0.214210
H    -0.416854  -1.048508  -0.454667
H    1.171338  -1.484908  0.210115
N    -1.329858  -0.541719  2.021852
C    -2.602880  -0.428927  1.302505
C    -2.875808  -1.865334  0.651264
O    -2.482245  -2.094845  -0.480189
H    -1.399649  -0.490148  3.043234
H    -3.351720  -0.272404  2.091597
C    -2.741156  0.698145  0.259090
C    -4.204198  0.838359  -0.208291
C    -4.465653  1.855486  -1.343930
C    -4.505210  3.317990  -0.897193
N    -5.001335  4.218968  -2.021825
H    -2.092863  0.492627  -0.602977
H    -2.385828  1.622195  0.740031
H    -4.851502  1.075785  0.651037
H    -4.548079  -0.133196  -0.590982
H    -5.443497  1.595488  -1.778249
H    -3.724603  1.721624  -2.147644
H    -3.523556  3.712606  -0.608014
H    -5.201592  3.473286  -0.063275
H    -5.953963  3.961254  -2.322487
H    -4.396321  4.168511  -2.855169
H    -5.033779  5.207068  -1.727300
N    -3.533667  -2.749687  1.438090
C    -4.000906  -4.034632  0.940032
H    -3.904420  -2.429400  2.331947
H    -4.073079  -4.727102  1.789060
H    -3.308999  -4.395740  0.169341
H    -5.005983  -3.953758  0.490198
Hg    2.937586  -0.777373  2.885466
