35
Energy: -571610.7867985  eV PBE+vdW (tier 2 basis)
C    0.865509  1.076784  1.407679
C    0.283595  -0.050860  2.176240
O    1.002952  -0.926627  2.767511
H    1.432940  1.704286  2.119578
H    1.570098  0.687684  0.660812
H    0.132436  1.709775  0.909468
N    -1.048343  -0.290716  2.344346
C    -2.176839  -0.015343  1.461813
C    -1.930513  -0.726792  0.063505
O    -0.878459  -0.462122  -0.510328
H    -1.209591  -1.052049  3.010125
H    -3.018350  -0.515321  1.958129
C    -2.511050  1.487640  1.239593
C    -3.978492  1.742446  0.832105
C    -4.200438  3.243032  0.539918
C    -5.564509  3.645965  -0.027341
N    -6.651660  3.840008  1.026952
H    -1.851513  1.905219  0.467731
H    -2.290655  2.011719  2.180779
H    -4.648726  1.389344  1.633104
H    -4.225524  1.165428  -0.073059
H    -3.472980  3.560518  -0.222383
H    -3.967241  3.853051  1.428021
H    -5.960536  2.914434  -0.742834
H    -5.491727  4.612705  -0.539604
H    -7.535863  4.137681  0.585172
H    -6.395051  4.573545  1.704540
H    -6.855642  2.982802  1.558398
N    -2.858768  -1.565551  -0.437492
C    -4.046854  -2.133698  0.188482
H    -2.560863  -2.001996  -1.315001
H    -3.800789  -3.036220  0.770597
H    -4.733233  -2.438374  -0.612134
H    -4.559430  -1.406132  0.824555
Hg    3.075682  -0.598512  3.614976
