35
Energy: -571610.8362426  eV PBE+vdW (tier 2 basis)
C    0.117999  -0.569836  0.138970
C    0.023520  -0.838912  1.595284
O    0.893680  -1.463407  2.275466
H    1.144104  -0.261347  -0.107440
H    -0.570978  0.206245  -0.209023
H    -0.068969  -1.502114  -0.418725
N    -1.072749  -0.493184  2.336915
C    -2.408727  -0.261333  1.856054
C    -2.791419  1.325199  1.944388
O    -3.315436  1.697678  0.900583
H    -0.950250  -0.655555  3.342048
H    -2.428513  -0.445563  0.779338
C    -3.489049  -1.100897  2.587275
C    -4.964416  -0.823806  2.226569
C    -5.390561  -1.212511  0.798742
C    -6.845453  -0.903912  0.433992
N    -7.865493  -1.850571  1.062157
H    -3.370331  -0.976907  3.673152
H    -3.241246  -2.153083  2.367594
H    -5.206370  0.234332  2.411427
H    -5.545716  -1.390880  2.970499
H    -5.172063  -2.274848  0.600956
H    -4.804185  -0.645274  0.060110
H    -6.997606  -0.994242  -0.647906
H    -7.146242  0.107451  0.735711
H    -8.819368  -1.612382  0.747767
H    -7.872640  -1.808929  2.090774
H    -7.697092  -2.830587  0.789998
N    -2.594819  2.052611  3.038353
C    -1.993889  1.694499  4.326363
H    -2.896296  3.023992  2.933954
H    -2.302954  2.452581  5.054325
H    -0.897503  1.705659  4.277937
H    -2.365565  0.732020  4.696470
Hg    3.199677  -1.484314  2.003623
