35
Energy: -571610.7529848  eV PBE+vdW (tier 2 basis)
C    -0.929487  -0.005460  -0.862907
C    -0.883136  -0.254013  0.609326
O    -0.484643  -1.267667  1.157186
H    -1.987952  0.033385  -1.172693
H    -0.434503  -0.823753  -1.393060
H    -0.466509  0.952961  -1.136372
N    -1.333173  0.808483  1.449297
C    -1.362807  0.647539  2.851432
C    -2.737746  1.181015  3.438731
O    -3.329327  0.194355  3.973896
H    -1.442967  1.728224  1.019990
H    -1.370668  -0.444605  3.019756
C    -0.173418  1.226389  3.718084
C    1.154426  0.459566  3.563278
C    1.225312  -0.913375  4.261102
C    2.620471  -1.386134  4.680969
N    3.511034  -1.850718  3.531383
H    -0.497771  1.208301  4.768676
H    -0.021148  2.277952  3.443823
H    1.896899  1.137762  4.021531
H    1.434926  0.390723  2.501214
H    0.729909  -1.695099  3.664829
H    0.668634  -0.864600  5.210147
H    2.542474  -2.250212  5.351437
H    3.185950  -0.602702  5.201477
H    4.412507  -2.199323  3.894415
H    3.730921  -1.097146  2.865619
H    3.082117  -2.624259  3.002049
N    -3.161686  2.420878  3.380362
C    -2.558461  3.614136  2.762627
H    -4.075503  2.589178  3.809588
H    -1.514331  3.437964  2.495705
H    -2.590350  4.435787  3.487747
H    -3.136800  3.899545  1.874727
Hg    -5.412746  0.029146  5.038879
