35
Energy: -571611.0829786  eV PBE+vdW (tier 2 basis)
C    -0.561614  -2.882807  1.261103
C    -0.330467  -1.953694  2.410140
O    0.881006  -1.902938  2.824882
H    -1.607817  -2.886120  0.931171
H    -0.251848  -3.898032  1.546700
H    0.081968  -2.577216  0.421999
N    -1.369864  -1.259736  2.907651
C    -1.350441  -0.095986  3.818824
C    -1.247442  -0.525724  5.305048
O    -0.141335  -0.293574  5.938641
H    -2.253944  -1.439382  2.433103
H    -0.410419  0.449804  3.630843
C    -2.494799  0.882617  3.438147
C    -2.398192  2.350397  3.916492
C    -2.760357  2.640461  5.389879
C    -3.438381  3.989791  5.654558
N    -2.546829  5.211708  5.453711
H    -3.471719  0.466118  3.719225
H    -2.480760  0.911429  2.337933
H    -3.104346  2.890710  3.266821
H    -1.402623  2.751111  3.668466
H    -1.892284  2.517804  6.056894
H    -3.507698  1.909879  5.737584
H    -3.785282  4.050905  6.693046
H    -4.304188  4.142692  4.997470
H    -3.071441  6.075261  5.667666
H    -2.207476  5.304463  4.485811
H    -1.726153  5.200986  6.077032
N    -2.217274  -1.098192  5.991792
C    -3.593422  -1.445576  5.625562
H    -1.950764  -1.326710  6.955613
H    -4.296507  -0.685044  5.991486
H    -3.835250  -2.395635  6.117800
H    -3.703996  -1.573434  4.547225
Hg    1.541851  -0.930002  4.659289
