35
Energy: -571610.9712538  eV PBE+vdW (tier 2 basis)
C    0.059359  -1.731530  0.760894
C    0.020933  -0.583491  1.699408
O    1.055293  -0.167206  2.323732
H    0.476417  -2.609335  1.272312
H    0.742681  -1.462285  -0.065251
H    -0.906217  -1.994160  0.330570
N    -1.088492  0.146154  2.012229
C    -2.490576  -0.245472  2.080702
C    -2.648109  -1.451070  3.105104
O    -1.967483  -2.448662  2.887925
H    -0.849825  0.960303  2.585973
H    -2.982258  0.634294  2.515964
C    -3.167605  -0.603876  0.726981
C    -4.701430  -0.453496  0.775995
C    -5.349186  -0.745548  -0.596183
C    -6.869511  -0.576689  -0.542888
N    -7.520515  -0.850864  -1.891711
H    -2.908681  -1.629329  0.434140
H    -2.749978  0.075751  -0.029992
H    -4.962716  0.570568  1.087109
H    -5.123876  -1.136918  1.529342
H    -5.099722  -1.772035  -0.908599
H    -4.927255  -0.064633  -1.352587
H    -7.163434  0.444614  -0.270065
H    -7.339070  -1.272346  0.163782
H    -7.180706  -0.208620  -2.623233
H    -8.544510  -0.734083  -1.839154
H    -7.342686  -1.812130  -2.219459
N    -3.500023  -1.337180  4.141764
C    -4.230575  -0.170541  4.627470
H    -3.469587  -2.146211  4.768597
H    -3.580679  0.498124  5.214020
H    -5.019990  -0.529522  5.298961
H    -4.700218  0.384238  3.809442
Hg    3.197236  -0.277016  1.592189
