35
Energy: -571611.4662622  eV PBE+vdW (tier 2 basis)
C    1.757236  2.632585  1.138076
C    1.141564  1.703600  2.134912
O    1.734824  0.567202  2.240943
H    1.104323  3.471971  0.873690
H    2.017481  2.067979  0.231588
H    2.706695  3.009828  1.550670
N    0.068600  2.123734  2.828239
C    -1.014102  1.444359  3.616488
C    -0.638307  1.171956  5.098517
O    0.033173  0.139708  5.496080
H    -0.161798  3.093511  2.617385
H    -1.789401  2.222245  3.657210
C    -1.660598  0.235875  2.891456
C    -2.993253  -0.185481  3.544001
C    -3.750299  -1.353514  2.865062
C    -4.551213  -0.955263  1.621859
N    -5.443875  -2.095660  1.149047
H    -0.977930  -0.630034  2.854909
H    -1.804130  0.546484  1.846315
H    -3.661695  0.688157  3.611009
H    -2.803410  -0.498998  4.580862
H    -4.446029  -1.756682  3.616887
H    -3.052019  -2.169844  2.622006
H    -3.920918  -0.694155  0.763018
H    -5.226942  -0.114530  1.824257
H    -6.120413  -2.378894  1.874832
H    -4.903484  -2.935505  0.892400
H    -5.991389  -1.822182  0.318044
N    -1.095153  2.001048  6.013680
C    -0.845267  1.908869  7.458873
H    -1.715121  2.752109  5.710128
H    -1.702023  1.429087  7.952316
H    -0.731074  2.925204  7.851896
H    0.056757  1.319571  7.642326
Hg    1.469187  -0.547338  4.050020
