35
Energy: -571611.2203764  eV PBE+vdW (tier 2 basis)
C    -0.209343  -1.461093  1.280226
C    0.240972  -0.227799  1.978752
O    1.238908  -0.211217  2.785817
H    0.537167  -1.719622  0.509819
H    -1.178702  -1.368616  0.783348
H    -0.251500  -2.294190  1.994000
N    -0.373896  0.962258  1.863540
C    -1.657308  1.287481  1.274157
C    -1.487155  2.767670  0.766232
O    -0.784495  3.536384  1.409638
H    0.096850  1.758063  2.316135
H    -1.849830  0.605638  0.436471
C    -2.891744  1.236839  2.235333
C    -2.841533  2.115392  3.491911
C    -4.188191  2.096002  4.252096
C    -4.147521  2.991067  5.492259
N    -5.479344  2.997278  6.230720
H    -3.013191  0.174268  2.504155
H    -3.772057  1.489320  1.623893
H    -2.596836  3.155980  3.222408
H    -2.034916  1.774946  4.159619
H    -4.431883  1.062590  4.546026
H    -4.991164  2.435436  3.578244
H    -3.938491  4.038508  5.240614
H    -3.399990  2.656503  6.222426
H    -5.437502  3.603017  7.065035
H    -5.748123  2.055581  6.553579
H    -6.247579  3.349615  5.639949
N    -2.161097  3.096522  -0.362402
C    -1.944197  4.350207  -1.064612
H    -2.692423  2.373080  -0.846803
H    -2.878363  4.630020  -1.571066
H    -1.168302  4.243864  -1.844085
H    -1.614052  5.113227  -0.350654
Hg    3.147332  -1.409225  2.589098
