35
Energy: -571610.9385595  eV PBE+vdW (tier 2 basis)
C    -0.173264  -1.241412  0.904587
C    -0.278326  -0.338415  2.080962
O    0.539161  -0.387085  3.069194
H    -1.033610  -1.205561  0.231302
H    -0.027074  -2.274773  1.245341
H    0.718730  -0.954652  0.322294
N    -1.251871  0.576260  2.240960
C    -2.494058  0.754836  1.514720
C    -2.722796  2.312348  1.522897
O    -2.430183  2.924942  2.546847
H    -1.136704  1.205749  3.046673
H    -2.373810  0.374331  0.495596
C    -3.763316  0.093435  2.156360
C    -4.038442  0.448732  3.623279
C    -5.492615  0.245232  4.108640
C    -5.908138  -1.214580  4.304424
N    -7.289324  -1.307374  4.941340
H    -3.633216  -0.992061  2.015426
H    -4.613508  0.382995  1.518862
H    -3.817716  1.517860  3.788872
H    -3.343194  -0.092358  4.284319
H    -6.187069  0.743706  3.413640
H    -5.583567  0.771769  5.071222
H    -5.229998  -1.747521  4.982906
H    -5.973355  -1.776151  3.364311
H    -8.014674  -0.860361  4.360460
H    -7.315107  -0.848910  5.865195
H    -7.574775  -2.288802  5.081853
N    -3.249334  2.914724  0.431260
C    -3.525250  2.378066  -0.890442
H    -3.257250  3.936634  0.516713
H    -4.329022  2.979677  -1.336920
H    -3.844227  1.332186  -0.845312
H    -2.648088  2.472787  -1.552897
Hg    2.761933  -0.804901  2.979735
