35
Energy: -571610.9027351  eV PBE+vdW (tier 2 basis)
C    0.231063  0.460850  -0.027008
C    0.282286  0.404758  1.466536
O    1.309844  0.497811  2.136919
H    -0.256436  1.405150  -0.326657
H    -0.357477  -0.360197  -0.458767
H    1.248325  0.450299  -0.427758
N    -0.953074  0.235326  2.116563
C    -1.177576  -0.015618  3.500526
C    -0.762989  1.229015  4.435908
O    -1.773194  1.558052  5.127366
H    -1.777113  0.193452  1.513108
H    -2.267617  -0.060180  3.622274
C    -0.677877  -1.375208  4.146532
C    0.772102  -1.850234  4.027851
C    0.939073  -3.160659  4.846841
C    2.350162  -3.750896  4.925810
N    2.720126  -4.655832  3.753816
H    -1.351502  -2.117436  3.688876
H    -0.975117  -1.307377  5.204092
H    1.475759  -1.102497  4.422892
H    1.036954  -2.014041  2.973619
H    0.228312  -3.927814  4.498884
H    0.651132  -2.959966  5.889378
H    2.441505  -4.387933  5.813877
H    3.133188  -2.984227  4.978385
H    3.664100  -5.052265  3.886898
H    2.726909  -4.163544  2.850208
H    2.071341  -5.453280  3.671141
N    0.444072  1.728860  4.403124
C    0.935764  2.876546  5.174214
H    1.052905  1.303022  3.676564
H    1.981444  3.040572  4.891837
H    0.905892  2.670873  6.252504
H    0.378476  3.790920  4.925861
Hg    -2.147961  3.225435  6.651092
