35
Energy: -571611.4668872  eV PBE+vdW (tier 2 basis)
C    0.321392  1.386347  -0.706057
C    -0.027834  0.000216  -0.267315
O    0.375325  -0.927429  -1.062135
H    1.402648  1.538561  -0.557913
H    -0.242231  2.159963  -0.172291
H    0.141946  1.478363  -1.786768
N    -0.693209  -0.159232  0.890398
C    -1.506872  -1.263852  1.501385
C    -0.665666  -2.308499  2.284006
O    -0.060190  -3.310277  1.732231
H    -0.827414  0.727442  1.373944
H    -2.080269  -0.726275  2.269573
C    -2.555936  -1.883233  0.542335
C    -3.604576  -2.724225  1.298952
C    -4.734417  -3.346176  0.441549
C    -5.872367  -2.381955  0.092997
N    -7.046078  -3.117296  -0.541826
H    -2.079919  -2.501981  -0.237264
H    -3.021757  -1.040558  0.010886
H    -3.099146  -3.561307  1.802371
H    -4.052678  -2.116657  2.101958
H    -4.316823  -3.789286  -0.476358
H    -5.149508  -4.181523  1.026065
H    -5.581826  -1.606152  -0.625855
H    -6.279020  -1.891645  0.986623
H    -7.818955  -2.469491  -0.762007
H    -7.429730  -3.840568  0.086386
H    -6.784529  -3.586452  -1.422163
N    -0.629285  -2.213344  3.596745
C    0.108559  -3.105251  4.502271
H    -1.195122  -1.488881  4.038856
H    0.491145  -2.505924  5.335601
H    0.929672  -3.584667  3.962755
H    -0.568634  -3.875790  4.896387
Hg    0.618215  -2.900338  -0.266551
