35
Energy: -571610.5928909  eV PBE+vdW (tier 2 basis)
C    -0.693228  0.575640  0.327185
C    -0.241405  0.067453  1.647203
O    1.016648  0.160246  1.891207
H    -0.022694  1.394736  0.026701
H    -1.727270  0.928077  0.337731
H    -0.562312  -0.210733  -0.435054
N    -1.050673  -0.413875  2.623774
C    -2.104807  -1.445236  2.544626
C    -1.344591  -2.806846  2.410526
O    -0.160695  -2.844751  1.932707
H    -0.575145  -0.425076  3.529112
H    -2.589121  -1.428761  3.532729
C    -3.182741  -1.266169  1.451738
C    -4.158500  -0.075028  1.615199
C    -5.255608  -0.270284  2.687090
C    -6.597139  0.422984  2.427140
N    -6.592846  1.936800  2.622797
H    -3.773419  -2.194933  1.425128
H    -2.701015  -1.219150  0.466727
H    -4.636982  0.045831  0.631263
H    -3.595302  0.853241  1.799190
H    -4.893855  -0.016429  3.696106
H    -5.527603  -1.336854  2.733737
H    -7.360439  0.046813  3.118816
H    -6.954177  0.254086  1.403183
H    -7.537281  2.321109  2.459160
H    -5.958610  2.423177  1.974176
H    -6.326708  2.201122  3.582882
N    -1.968605  -3.929156  2.745431
C    -1.398147  -5.274230  2.719945
H    -2.955497  -3.868317  3.001791
H    -0.315925  -5.220051  2.586853
H    -1.838774  -5.840082  1.883114
H    -1.659765  -5.788686  3.654271
Hg    1.817918  -1.810492  2.568786
