35
Energy: -571610.6687294  eV PBE+vdW (tier 2 basis)
C    0.238179  0.578807  0.911608
C    -0.187024  0.247667  2.295150
O    0.595113  -0.246531  3.169345
H    0.729526  -0.295904  0.462782
H    0.987955  1.385880  0.957074
H    -0.574574  0.905443  0.257555
N    -1.464529  0.383908  2.748893
C    -2.724461  0.401309  2.007131
C    -3.591473  1.505019  2.763775
O    -4.494769  1.133240  3.496337
H    -1.555003  0.129104  3.739861
H    -2.537086  0.736911  0.979583
C    -3.398516  -0.992693  2.047920
C    -4.812816  -1.187376  1.462779
C    -4.970431  -1.006696  -0.058658
C    -6.089521  -1.830014  -0.702014
N    -7.498118  -1.431545  -0.269403
H    -3.434818  -1.312318  3.099585
H    -2.700081  -1.673148  1.534584
H    -5.526000  -0.560648  2.017782
H    -5.065653  -2.227220  1.727754
H    -4.060867  -1.352156  -0.575625
H    -5.083253  0.054405  -0.334059
H    -5.996500  -2.896739  -0.461251
H    -6.076669  -1.723815  -1.793146
H    -8.200736  -2.015303  -0.749976
H    -7.712681  -0.451551  -0.504208
H    -7.650707  -1.553388  0.741725
N    -3.283034  2.820254  2.602426
C    -2.486153  3.478111  1.579110
H    -3.933634  3.429070  3.109855
H    -2.082671  4.403759  2.014258
H    -3.102638  3.767414  0.713176
H    -1.651570  2.854913  1.251098
Hg    2.845854  0.084606  3.475305
