35
Energy: -571611.0601827  eV PBE+vdW (tier 2 basis)
C    -0.090856  -0.487819  0.227485
C    -0.013531  -0.153199  1.669648
O    1.128070  -0.259493  2.249377
H    0.361301  -1.484972  0.085234
H    0.532220  0.202423  -0.361282
H    -1.121721  -0.516002  -0.141464
N    -1.092192  0.216972  2.402058
C    -2.062534  1.253639  2.040371
C    -1.575331  2.566731  2.729022
O    -0.669580  2.588151  3.640649
H    -0.953514  0.119600  3.409817
H    -1.973732  1.419776  0.956228
C    -3.536020  0.855258  2.320450
C    -3.927831  0.502408  3.766798
C    -5.414820  0.083311  3.844939
C    -5.833077  -0.314434  5.262098
N    -7.294497  -0.738702  5.321715
H    -3.739590  -0.000779  1.660000
H    -4.179453  1.667496  1.947399
H    -3.750328  1.358251  4.437592
H    -3.307216  -0.329567  4.136589
H    -5.586715  -0.761893  3.159265
H    -6.046684  0.914112  3.492166
H    -5.731068  0.513546  5.974800
H    -5.257609  -1.168712  5.640301
H    -7.930666  0.017735  5.027498
H    -7.565051  -1.004554  6.281529
H    -7.486571  -1.552391  4.717807
N    -2.157432  3.703890  2.383254
C    -1.798245  5.038980  2.865527
H    -2.964286  3.651613  1.759168
H    -2.481577  5.342155  3.673127
H    -1.904357  5.746370  2.034434
H    -0.774169  5.033891  3.247186
Hg    1.308656  1.442193  3.673192
