35
Energy: -571611.0676325  eV PBE+vdW (tier 2 basis)
C    -0.161511  -0.649951  0.342255
C    -0.223460  0.391656  1.402732
O    0.799199  0.999404  1.854243
H    -1.099988  -1.191151  0.193971
H    0.612239  -1.384927  0.612664
H    0.152980  -0.191013  -0.607648
N    -1.394070  0.816183  1.948768
C    -2.709480  0.806142  1.341727
C    -3.101003  2.293992  1.005856
O    -2.866814  3.156774  1.846174
H    -1.265099  1.517174  2.688680
H    -2.673267  0.204647  0.426757
C    -3.832396  0.233526  2.285623
C    -3.956269  0.887265  3.666012
C    -5.324491  0.724157  4.368131
C    -5.611037  -0.686789  4.887928
N    -6.895236  -0.716428  5.707321
H    -3.616061  -0.843348  2.362997
H    -4.773678  0.330108  1.724164
H    -3.804746  1.977638  3.563966
H    -3.151717  0.539022  4.332655
H    -6.129128  1.044383  3.687199
H    -5.334109  1.425534  5.216608
H    -4.820127  -1.046972  5.558042
H    -5.750148  -1.422198  4.085860
H    -7.091636  -1.663936  6.065328
H    -7.715039  -0.424927  5.153821
H    -6.841322  -0.088851  6.524348
N    -3.702684  2.523171  -0.182309
C    -4.020380  3.861866  -0.655487
H    -3.794724  1.754326  -0.845346
H    -4.911931  3.802040  -1.293794
H    -3.199540  4.275004  -1.267415
H    -4.172812  4.522797  0.205706
Hg    2.958150  0.215874  2.024108
