35
Energy: -571610.9526403  eV PBE+vdW (tier 2 basis)
C    -0.327533  0.342906  -0.267014
C    -0.186972  0.361366  1.208738
O    0.681157  1.062575  1.823768
H    -1.162808  -0.266127  -0.622667
H    0.596198  -0.090062  -0.688289
H    -0.399967  1.369362  -0.650808
N    -0.974344  -0.348036  2.063122
C    -2.304960  -0.943476  1.915164
C    -2.112953  -2.310280  1.097747
O    -2.142421  -2.286001  -0.120611
H    -0.609064  -0.332058  3.020465
H    -2.598365  -1.209395  2.939992
C    -3.442821  -0.113025  1.291747
C    -3.862114  1.087447  2.166633
C    -5.322859  1.562489  1.988768
C    -5.631429  2.251484  0.659131
N    -7.053294  2.799882  0.650272
H    -4.286264  -0.814864  1.196677
H    -3.186308  0.181838  0.266115
H    -3.170706  1.930923  2.015496
H    -3.769044  0.814718  3.228759
H    -5.529596  2.265672  2.810877
H    -6.003002  0.707573  2.133221
H    -5.566308  1.576883  -0.203521
H    -4.977081  3.113860  0.478956
H    -7.755146  2.055203  0.778563
H    -7.271009  3.272447  -0.240483
H    -7.201257  3.488945  1.403657
N    -1.935609  -3.419498  1.852538
C    -1.966604  -4.757966  1.280091
H    -2.008520  -3.341387  2.866145
H    -1.389453  -5.423834  1.935134
H    -1.560143  -4.723567  0.261766
H    -2.996758  -5.151804  1.227144
Hg    2.869529  1.513954  1.201765
