35
Energy: -571611.1542381  eV PBE+vdW (tier 2 basis)
C    -2.437710  2.600788  0.617926
C    -1.557541  2.033106  1.686061
O    -0.343651  2.198046  1.759378
H    -3.050877  3.404560  1.061914
H    -3.126670  1.856143  0.197501
H    -1.814567  3.029839  -0.171934
N    -2.205349  1.249749  2.668505
C    -1.560786  0.420516  3.628292
C    -0.873801  1.324501  4.795403
O    -1.389535  1.030520  5.909395
H    -3.220998  1.168518  2.593647
H    -2.345390  -0.142229  4.149344
C    -0.486502  -0.598502  3.104932
C    -1.155899  -1.657307  2.205704
C    -0.179348  -2.626732  1.493346
C    0.350343  -3.769963  2.360952
N    1.109647  -4.788099  1.519162
H    -0.013126  -1.057547  3.984475
H    0.288624  -0.042989  2.560113
H    -1.714858  -1.140831  1.412637
H    -1.900007  -2.234177  2.776461
H    0.656576  -2.064113  1.049121
H    -0.746446  -3.056315  0.651372
H    -0.461433  -4.328396  2.844073
H    1.053300  -3.437730  3.134540
H    1.469319  -5.561586  2.099663
H    1.918684  -4.368805  1.036293
H    0.507865  -5.209541  0.794677
N    0.063153  2.180056  4.479642
C    0.772635  3.079042  5.397413
H    0.239164  2.260586  3.460122
H    1.517283  3.626887  4.808992
H    1.309446  2.512296  6.170053
H    0.089646  3.817140  5.840878
Hg    -1.095886  1.907204  8.019860
