35
Energy: -571611.0767920  eV PBE+vdW (tier 2 basis)
C    -0.749254  -1.091464  1.402736
C    0.183208  0.062007  1.317730
O    1.411144  -0.005256  1.688306
H    -0.709209  -1.522893  2.412225
H    -0.411297  -1.868986  0.697536
H    -1.786153  -0.848927  1.156782
N    -0.173573  1.288338  0.894336
C    -1.489841  1.879456  0.732996
C    -1.316663  2.857322  -0.500004
O    -0.323693  3.572117  -0.527984
H    0.599963  1.961943  0.808776
H    -2.223640  1.092851  0.517574
C    -1.930129  2.713824  1.978854
C    -3.308057  3.381171  1.824150
C    -3.884165  4.020757  3.109902
C    -3.244001  5.354788  3.499268
N    -4.006354  6.015149  4.641222
H    -1.139763  3.452726  2.178710
H    -1.947653  2.008878  2.825106
H    -4.039511  2.624322  1.502920
H    -3.281392  4.139504  1.026428
H    -3.814865  3.308320  3.947205
H    -4.958081  4.183008  2.928694
H    -3.262526  6.076185  2.672453
H    -2.209247  5.254904  3.848813
H    -4.986922  6.206606  4.384415
H    -3.580775  6.916981  4.905525
H    -4.023469  5.426776  5.487736
N    -2.283984  2.838522  -1.444580
C    -2.151356  3.542331  -2.712295
H    -3.050460  2.173666  -1.351698
H    -3.154313  3.820850  -3.061723
H    -1.698133  2.894989  -3.483408
H    -1.506080  4.417478  -2.574122
Hg    2.803215  -1.768076  1.506213
