35
Energy: -571610.6142246  eV PBE+vdW (tier 2 basis)
C    1.395276  -0.317940  0.963252
C    0.631685  0.741950  1.713763
O    1.155850  1.563085  2.446155
H    0.940977  -0.524987  -0.015639
H    1.389781  -1.249429  1.552679
H    2.433811  0.004647  0.843057
N    -0.781920  0.671336  1.547392
C    -1.812893  1.221103  2.382619
C    -2.942699  1.922184  1.396836
O    -4.061367  2.001397  1.953254
H    -1.054333  -0.201719  1.087602
H    -2.395529  0.392511  2.810880
C    -1.424845  2.197373  3.499980
C    -0.916558  3.599747  3.135324
C    -0.415492  4.418698  4.345266
C    0.803060  3.923330  5.123537
N    2.109863  4.019095  4.344074
H    -0.657019  1.648598  4.075235
H    -2.303937  2.276546  4.155255
H    -1.734708  4.183762  2.687056
H    -0.130255  3.528899  2.369076
H    -1.223228  4.494443  5.090114
H    -0.240417  5.455775  4.019605
H    0.726224  2.878995  5.449674
H    0.945319  4.539830  6.019280
H    2.911458  3.776792  4.946340
H    2.275564  4.975205  3.996077
H    2.124629  3.374213  3.539951
N    -2.565200  2.296097  0.195979
C    -3.407861  2.939152  -0.821002
H    -1.590669  2.104223  -0.036914
H    -2.760966  3.227625  -1.657192
H    -3.868318  3.856393  -0.428204
H    -4.163857  2.240254  -1.202583
Hg    -6.168603  2.705981  1.270081
