35
Energy: -571610.7051853  eV PBE+vdW (tier 2 basis)
C    -0.493569  1.184620  1.083889
C    -0.499765  0.488401  2.395052
O    0.584722  0.540937  3.079787
H    -1.488022  1.517120  0.777160
H    -0.048025  0.529654  0.317432
H    0.177634  2.052977  1.163562
N    -1.573215  -0.129674  2.948808
C    -2.478964  -1.141304  2.371167
C    -1.657359  -2.463417  2.389405
O    -0.381212  -2.415034  2.264110
H    -1.450117  -0.260005  3.956216
H    -3.292727  -1.235715  3.106787
C    -3.113596  -0.826213  0.995246
C    -4.106564  0.352461  1.073851
C    -4.682258  0.864326  -0.267849
C    -5.806414  0.005719  -0.852933
N    -6.472183  0.699259  -2.035205
H    -3.626420  -1.742428  0.667029
H    -2.329014  -0.647936  0.247013
H    -3.609871  1.209703  1.550571
H    -4.934013  0.090949  1.752358
H    -3.875142  0.983335  -1.008377
H    -5.077936  1.873556  -0.074460
H    -6.607073  -0.169611  -0.123100
H    -5.460686  -0.963887  -1.231670
H    -7.234704  0.124891  -2.426931
H    -5.808776  0.886202  -2.802156
H    -6.886009  1.604398  -1.762971
N    -2.240291  -3.648177  2.502710
C    -3.654356  -4.006212  2.520022
H    -1.579923  -4.432105  2.546877
H    -4.286033  -3.130804  2.692593
H    -3.816968  -4.740462  3.320520
H    -3.930148  -4.482440  1.566755
Hg    1.246620  -1.519515  3.653505
