35
Energy: -571610.9795372  eV PBE+vdW (tier 2 basis)
C    -2.157654  -1.556411  1.631781
C    -0.924596  -0.988432  2.231404
O    0.108647  -1.745619  2.298970
H    -2.319134  -2.558766  2.061855
H    -2.011795  -1.723200  0.552852
H    -3.040130  -0.936565  1.819236
N    -0.859539  0.268406  2.736335
C    -1.293614  1.496605  2.061430
C    -0.111414  1.936745  1.141483
O    1.104871  1.587345  1.367880
H    -0.062190  0.418326  3.359517
H    -2.158049  1.252748  1.426373
C    -1.663142  2.617331  3.064162
C    -2.929789  2.362202  3.908186
C    -3.304407  3.626781  4.713195
C    -4.671943  3.641210  5.402675
N    -4.698178  2.967904  6.772528
H    -1.806354  3.542939  2.486245
H    -0.794405  2.810287  3.714806
H    -2.770755  1.496359  4.570094
H    -3.766139  2.101796  3.239951
H    -3.335964  4.482189  4.021223
H    -2.513207  3.880313  5.437627
H    -5.452775  3.151326  4.807477
H    -4.989990  4.673436  5.590799
H    -5.637456  3.042613  7.194239
H    -4.040884  3.417210  7.427568
H    -4.465740  1.966455  6.733899
N    -0.362173  2.771786  0.145794
C    0.615128  3.298490  -0.808723
H    -1.308279  3.150689  0.073173
H    0.924801  4.309277  -0.500183
H    0.137198  3.365802  -1.793378
H    1.494027  2.650050  -0.840302
Hg    1.892579  -0.500815  1.788834
