35
Energy: -571611.4776702  eV PBE+vdW (tier 2 basis)
C    -0.026401  1.698042  0.205023
C    -0.495740  0.310638  0.508515
O    0.185600  -0.616915  -0.063826
H    0.173289  1.782666  -0.872840
H    0.935953  1.863798  0.714629
H    -0.746676  2.468226  0.504531
N    -1.544154  0.154915  1.335774
C    -2.492721  -0.968305  1.629848
C    -1.942821  -1.984771  2.661014
O    -1.258639  -3.032315  2.313666
H    -1.873443  1.046654  1.701689
H    -3.316226  -0.451210  2.136324
C    -3.113682  -1.611983  0.364955
C    -4.409066  -2.397478  0.655016
C    -5.130912  -2.840265  -0.637724
C    -6.439655  -3.571664  -0.325348
N    -7.182066  -3.982829  -1.589051
H    -2.396088  -2.261426  -0.163622
H    -3.326381  -0.781855  -0.324701
H    -5.088818  -1.760578  1.243877
H    -4.188634  -3.281273  1.273908
H    -4.470790  -3.496019  -1.227550
H    -5.342022  -1.953794  -1.256939
H    -7.138234  -2.942381  0.240427
H    -6.273509  -4.496784  0.240760
H    -7.435786  -3.170739  -2.171989
H    -8.060402  -4.473466  -1.357953
H    -6.626406  -4.621834  -2.177432
N    -2.215784  -1.877497  3.946058
C    -3.064050  -0.946289  4.696821
H    -1.783095  -2.614879  4.514947
H    -3.430714  -0.129422  4.071607
H    -2.466226  -0.528453  5.517985
H    -3.911960  -1.493995  5.128655
Hg    0.126259  -2.615521  0.712947
