35
Energy: -571610.8917974  eV PBE+vdW (tier 2 basis)
C    0.709982  -0.325014  -0.219243
C    0.062103  -0.851467  1.016161
O    -0.139059  -2.024305  1.279204
H    1.476583  0.422309  0.037113
H    -0.033876  0.171933  -0.861460
H    1.161620  -1.150947  -0.776435
N    -0.384952  0.108357  1.980487
C    -1.121389  -0.318525  3.088785
C    -2.735369  -0.588208  2.733433
O    -3.317762  0.426862  2.298530
H    -0.391530  1.096398  1.717981
H    -0.818002  -1.376538  3.247870
C    -1.074179  0.570495  4.338916
C    0.184295  0.343143  5.222854
C    1.415740  1.218391  4.920484
C    2.476246  1.004298  6.009217
N    3.671188  1.936100  5.867598
H    -1.953069  0.331730  4.952573
H    -1.181362  1.629013  4.059952
H    0.465168  -0.721921  5.217456
H    -0.147948  0.549214  6.252323
H    1.112634  2.277501  4.901605
H    1.839972  0.979339  3.931437
H    2.883223  -0.014408  5.996906
H    2.067976  1.197243  7.009374
H    4.354744  1.769478  6.623347
H    3.397989  2.928770  5.924539
H    4.171208  1.802747  4.976455
N    -3.214141  -1.787967  2.956792
C    -2.551286  -2.992941  3.499138
H    -4.204423  -1.902636  2.718788
H    -2.133928  -2.791945  4.492324
H    -1.785347  -3.358271  2.805695
H    -3.322122  -3.762510  3.607848
Hg    -5.580262  0.679696  1.612406
