35
Energy: -571611.1160545  eV PBE+vdW (tier 2 basis)
C    -0.584885  1.172888  1.127431
C    0.074200  0.099936  1.913861
O    1.321693  0.081884  2.168080
H    -1.653610  1.018155  0.959130
H    -0.079234  1.279757  0.157333
H    -0.460830  2.127229  1.664626
N    -0.574892  -0.995032  2.393989
C    -1.833768  -1.593731  1.986172
C    -2.666364  -1.695917  3.363283
O    -2.477246  -2.656055  4.086444
H    0.021051  -1.585949  2.986730
H    -2.355741  -0.911915  1.303406
C    -1.676798  -2.999333  1.367905
C    -3.022546  -3.596597  0.911231
C    -3.015530  -5.111752  0.604105
C    -2.320154  -5.504479  -0.699650
N    -2.533990  -6.982289  -1.004186
H    -1.206535  -3.651496  2.119372
H    -0.978145  -2.901710  0.523237
H    -3.405505  -3.042367  0.040298
H    -3.767239  -3.463369  1.709009
H    -4.069146  -5.427239  0.550455
H    -2.569441  -5.657185  1.450810
H    -1.233307  -5.359136  -0.672940
H    -2.724015  -4.959930  -1.562628
H    -2.068364  -7.258880  -1.881971
H    -3.535197  -7.207941  -1.107905
H    -2.162241  -7.588331  -0.257362
N    -3.513846  -0.673356  3.620390
C    -4.453832  -0.714697  4.734471
H    -3.672185  0.025137  2.896614
H    -5.387920  -1.233379  4.459562
H    -4.710300  0.317394  5.005105
H    -3.992922  -1.255709  5.570266
Hg    2.726697  1.855776  2.601908
