35
Energy: -571610.9396752  eV PBE+vdW (tier 2 basis)
C    -1.111021  1.620942  0.803758
C    -0.668100  0.500487  1.671148
O    0.524028  0.061978  1.700765
H    -0.874558  1.387989  -0.244425
H    -0.534968  2.521389  1.071115
H    -2.174257  1.861316  0.886698
N    -1.508225  -0.206122  2.480731
C    -2.948826  -0.402644  2.402499
C    -3.446613  -0.067457  3.895240
O    -3.634073  -0.981148  4.675705
H    -1.010304  -0.895608  3.057776
H    -3.378572  0.330256  1.708140
C    -3.301771  -1.859082  2.025039
C    -4.799565  -2.233192  1.939415
C    -5.492099  -1.893830  0.607648
C    -6.970800  -2.281693  0.515888
N    -7.208906  -3.782924  0.374164
H    -2.828726  -2.508935  2.775033
H    -2.806922  -2.067024  1.063733
H    -5.355624  -1.793488  2.780778
H    -4.831106  -3.319697  2.115301
H    -4.941316  -2.334371  -0.239712
H    -5.478292  -0.807388  0.428883
H    -7.437022  -1.830632  -0.367854
H    -7.541505  -1.970135  1.399920
H    -8.217292  -3.982642  0.282646
H    -6.871507  -4.319494  1.185580
H    -6.750271  -4.165673  -0.466037
N    -3.589324  1.247809  4.192619
C    -4.156037  1.693266  5.458597
H    -3.523512  1.929663  3.439164
H    -5.258745  1.723670  5.423317
H    -3.799040  2.711634  5.657495
H    -3.859465  0.992044  6.249018
Hg    2.521917  1.210270  1.485677
