35
Energy: -571610.7885926  eV PBE+vdW (tier 2 basis)
C    0.192887  -0.494931  -0.362728
C    -0.257697  -1.376572  0.741773
O    0.399330  -2.407802  1.113060
H    1.160854  -0.053881  -0.061410
H    -0.490877  0.319356  -0.598451
H    0.361076  -1.095864  -1.266391
N    -1.396321  -1.209122  1.474961
C    -2.685898  -0.640862  1.100766
C    -3.266383  -1.441896  -0.145177
O    -2.552713  -1.496116  -1.141850
H    -1.436993  -1.869865  2.256523
H    -3.323217  -0.854832  1.968573
C    -2.693221  0.884254  0.798778
C    -4.076598  1.545740  0.980660
C    -4.016390  3.032449  0.564838
C    -5.340525  3.800561  0.536194
N    -5.781403  4.344638  1.892927
H    -2.349251  1.061201  -0.228478
H    -1.965231  1.353168  1.476502
H    -4.400734  1.437765  2.028804
H    -4.826038  1.033848  0.356460
H    -3.634883  3.090013  -0.465768
H    -3.277396  3.578926  1.173423
H    -6.176016  3.194248  0.164444
H    -5.252623  4.683844  -0.107611
H    -5.944784  3.605641  2.590003
H    -6.663469  4.873078  1.802215
H    -5.083470  4.994474  2.284806
N    -4.483738  -2.010558  -0.063836
C    -5.357067  -2.184891  1.092572
H    -4.726478  -2.548141  -0.900778
H    -6.356940  -2.436092  0.718604
H    -5.431865  -1.268252  1.686145
H    -5.025009  -3.020632  1.728482
Hg    2.644710  -2.676957  0.987584
