35
Energy: -571610.9463312  eV PBE+vdW (tier 2 basis)
C    -0.925156  -1.535591  1.163804
C    -0.008943  -0.599294  1.862511
O    1.259618  -0.661005  1.821251
H    -1.884863  -1.658859  1.677834
H    -0.444302  -2.516907  1.057783
H    -1.123442  -1.162386  0.145345
N    -0.470290  0.480416  2.566730
C    -1.725530  1.154986  2.364174
C    -1.600159  2.083364  1.043589
O    -1.751402  1.474165  -0.009068
H    0.275210  1.002234  3.040134
H    -2.474717  0.414022  2.062721
C    -2.192776  1.894866  3.646897
C    -3.670546  2.337840  3.608693
C    -4.122320  2.845588  4.997425
C    -5.629171  2.954796  5.242203
N    -6.288967  4.189316  4.632676
H    -1.527196  2.739922  3.887623
H    -2.058477  1.173288  4.467459
H    -4.291924  1.474853  3.321930
H    -3.820128  3.105631  2.833676
H    -3.625725  3.796287  5.250349
H    -3.777089  2.133868  5.763397
H    -5.829763  3.027460  6.317883
H    -6.183196  2.091541  4.852346
H    -7.290949  4.220005  4.879317
H    -6.234043  4.208999  3.605329
H    -5.867799  5.060593  4.988069
N    -1.317256  3.377958  1.178161
C    -1.037671  4.250452  0.027263
H    -1.150345  3.748055  2.109709
H    0.029418  4.222987  -0.233244
H    -1.311524  5.275739  0.297158
H    -1.625317  3.908008  -0.831370
Hg    2.544374  -2.563524  1.731809
