35
Energy: -571611.1049258  eV PBE+vdW (tier 2 basis)
C    0.766669  1.011303  0.218690
C    0.082479  1.516076  1.444083
O    -0.108336  2.759053  1.687094
H    1.754969  1.484141  0.127760
H    0.168989  1.286988  -0.666162
H    0.894196  -0.076250  0.215801
N    -0.330675  0.636302  2.370358
C    -0.897261  0.981242  3.669497
C    0.061682  0.389116  4.753710
O    0.497943  -0.745430  4.561946
H    -0.000876  -0.327392  2.272146
H    -0.921110  2.077105  3.738430
C    -2.330428  0.418278  3.904361
C    -2.563694  -1.094336  3.759415
C    -4.036791  -1.446661  4.064314
C    -4.484726  -2.880309  3.773787
N    -4.120358  -3.885444  4.863854
H    -2.974473  0.960902  3.192470
H    -2.639458  0.756738  4.905209
H    -1.878378  -1.642185  4.429623
H    -2.322676  -1.420694  2.735300
H    -4.686072  -0.817754  3.436057
H    -4.297091  -1.173548  5.100120
H    -4.062776  -3.276918  2.841804
H    -5.577472  -2.928575  3.697577
H    -4.481203  -4.823132  4.627554
H    -4.535264  -3.625744  5.771166
H    -3.104719  -3.980010  4.999535
N    0.324677  1.133928  5.848919
C    1.266524  0.725119  6.877496
H    -0.023658  2.091916  5.880544
H    2.275346  1.128018  6.676419
H    1.333605  -0.368679  6.896495
H    0.934104  1.137169  7.839779
Hg    -0.039249  4.384132  0.079767
