35
Energy: -571610.7562247  eV PBE+vdW (tier 2 basis)
C    0.564302  1.168587  1.572708
C    0.401013  -0.306403  1.635405
O    1.377933  -1.118006  1.563554
H    1.234278  1.426345  0.741647
H    1.049699  1.505044  2.504583
H    -0.369744  1.724541  1.457963
N    -0.805797  -0.934669  1.725017
C    -2.130440  -0.425659  1.428084
C    -3.033203  -0.876658  2.683995
O    -3.512972  -2.003523  2.655067
H    -0.719424  -1.952492  1.815805
H    -2.097845  0.668730  1.424864
C    -2.768485  -0.901277  0.103372
C    -2.778443  -2.401019  -0.215764
C    -3.433854  -2.725669  -1.581341
C    -4.963124  -2.808419  -1.639705
N    -5.496608  -4.206289  -1.335667
H    -3.787395  -0.483402  0.089842
H    -2.221100  -0.360685  -0.688744
H    -3.272393  -2.954801  0.602295
H    -1.746420  -2.782650  -0.250850
H    -3.004276  -3.661735  -1.970516
H    -3.135161  -1.962565  -2.315006
H    -5.465773  -2.133320  -0.936039
H    -5.329366  -2.577184  -2.646649
H    -6.526814  -4.229099  -1.391586
H    -5.144936  -4.896667  -2.016550
H    -5.235757  -4.539428  -0.397019
N    -3.221240  0.005785  3.680107
C    -2.853976  1.418281  3.763653
H    -3.896935  -0.323096  4.375386
H    -1.797603  1.571863  3.522015
H    -3.012145  1.734437  4.801517
H    -3.492657  2.047647  3.125995
Hg    3.528293  -0.838710  2.351808
