35
Energy: -571610.8669708  eV PBE+vdW (tier 2 basis)
C    -0.446125  1.116170  -0.544368
C    -0.174733  0.998749  0.912332
O    0.975975  1.236200  1.428517
H    0.337417  0.592825  -1.108521
H    -0.400181  2.182429  -0.824173
H    -1.423559  0.735535  -0.852151
N    -1.088705  0.593475  1.813503
C    -2.373517  -0.042478  1.604368
C    -3.201045  0.331513  2.886299
O    -2.618226  0.402938  3.961118
H    -0.799872  0.649039  2.800076
H    -2.833218  0.370357  0.697450
C    -2.340825  -1.608709  1.458015
C    -1.841989  -2.430876  2.665385
C    -2.937271  -3.097521  3.528725
C    -3.509930  -4.427097  3.023941
N    -2.653189  -5.631027  3.407615
H    -1.706005  -1.786888  0.576365
H    -3.353541  -1.913016  1.154396
H    -1.222060  -1.809322  3.327777
H    -1.139761  -3.189706  2.283440
H    -3.796102  -2.418956  3.637297
H    -2.565426  -3.229488  4.556580
H    -3.617055  -4.467869  1.932437
H    -4.492395  -4.625179  3.467979
H    -3.071789  -6.507380  3.058227
H    -2.573059  -5.724683  4.431717
H    -1.697317  -5.581672  3.027949
N    -4.528353  0.535090  2.708519
C    -5.376937  1.100145  3.747795
H    -4.906307  0.503198  1.761888
H    -4.976226  0.827124  4.730652
H    -5.410164  2.201918  3.681429
H    -6.400387  0.730546  3.600089
Hg    2.458690  2.809226  0.771086
