35
Energy: -571610.9905519  eV PBE+vdW (tier 2 basis)
C    -2.981874  0.769168  0.513045
C    -2.226194  0.577136  1.790076
O    -1.112206  1.046495  2.017419
H    -3.826437  1.453218  0.708698
H    -3.401016  -0.168807  0.125331
H    -2.325688  1.228910  -0.231258
N    -2.867500  -0.195800  2.774429
C    -2.318906  -0.687036  3.997176
C    -1.958316  0.488019  5.032775
O    -2.555133  0.253384  6.127845
H    -3.803608  -0.531531  2.538522
H    -3.141301  -1.214897  4.497859
C    -1.156783  -1.768462  3.949730
C    0.162219  -1.457153  3.244051
C    1.225356  -2.588201  3.367004
C    0.969151  -3.803706  2.472361
N    2.148249  -4.768078  2.503265
H    -1.661119  -2.633119  3.490313
H    -0.982579  -2.033001  5.003870
H    0.627701  -0.562683  3.680495
H    0.004109  -1.234387  2.180410
H    1.316884  -2.902958  4.418352
H    2.189691  -2.137363  3.087273
H    0.845293  -3.518887  1.419814
H    0.096176  -4.392815  2.778534
H    1.977744  -5.586867  1.898602
H    2.333529  -5.126055  3.452495
H    3.017185  -4.322489  2.170250
N    -1.169758  1.474041  4.693779
C    -0.793463  2.621386  5.525974
H    -0.875988  1.452251  3.695964
H    -0.127803  3.256714  4.930911
H    -0.239361  2.300208  6.418384
H    -1.672624  3.224657  5.794418
Hg    -2.688453  1.419228  8.092179
