35
Energy: -571611.0675354  eV PBE+vdW (tier 2 basis)
C    0.004738  -0.968982  3.179826
C    0.182723  0.125283  2.187826
O    1.301099  0.675152  1.936513
H    0.531121  -0.698644  4.107412
H    0.480033  -1.887813  2.802573
H    -1.039008  -1.175767  3.432544
N    -0.839803  0.597317  1.423158
C    -2.035765  -0.107593  1.016730
C    -1.880399  -0.524290  -0.499147
O    -1.450643  0.312255  -1.286219
H    -0.557207  1.370832  0.809930
H    -2.147470  -1.000730  1.641516
C    -3.343251  0.760551  1.123206
C    -3.323210  2.111837  0.400756
C    -4.706278  2.713131  0.057902
C    -5.481882  3.254697  1.261412
N    -6.749930  3.972218  0.816214
H    -3.517663  0.879142  2.204083
H    -4.155480  0.126890  0.736864
H    -2.803734  1.993108  -0.568312
H    -2.729328  2.846318  0.967367
H    -5.312991  1.963314  -0.474249
H    -4.530598  3.535695  -0.652324
H    -4.901231  3.995648  1.825416
H    -5.809252  2.468595  1.953023
H    -7.274619  4.344385  1.622847
H    -7.388283  3.347386  0.300976
H    -6.540034  4.770159  0.196932
N    -2.261108  -1.775058  -0.835477
C    -2.066433  -2.321482  -2.171324
H    -2.546499  -2.418749  -0.098703
H    -2.851716  -3.065153  -2.358980
H    -2.090902  -1.504402  -2.901995
H    -1.092086  -2.832496  -2.256680
Hg    3.084109  0.998967  3.365684
