35
Energy: -571610.6724262  eV PBE+vdW (tier 2 basis)
C    -1.081014  0.650455  1.968471
C    -0.883595  -0.342125  3.055290
O    -0.334858  0.097515  4.130748
H    -1.934838  0.415247  1.328748
H    -0.158296  0.728710  1.369264
H    -1.221360  1.640148  2.428401
N    -1.292326  -1.634448  3.024461
C    -1.076541  -2.670381  1.994273
C    0.418469  -3.105232  2.142132
O    1.277690  -2.328067  2.681398
H    -1.334492  -2.035750  3.964014
H    -1.701289  -3.517299  2.316480
C    -1.448042  -2.298011  0.540092
C    -2.953876  -2.052182  0.270847
C    -3.787740  -3.333192  0.070672
C    -5.289640  -3.134180  -0.163085
N    -5.649777  -2.690485  -1.578423
H    -1.097335  -3.117620  -0.105823
H    -0.860612  -1.426813  0.223878
H    -3.003839  -1.421028  -0.629696
H    -3.393021  -1.455187  1.085430
H    -3.732186  -3.966789  0.969519
H    -3.364672  -3.945317  -0.742889
H    -5.724318  -2.383588  0.509131
H    -5.829930  -4.076219  -0.012948
H    -6.673631  -2.603249  -1.679327
H    -5.338568  -3.374072  -2.285031
H    -5.247338  -1.777057  -1.830453
N    0.800885  -4.275742  1.647677
C    2.142215  -4.850220  1.733727
H    0.119063  -4.812074  1.108836
H    2.054426  -5.917450  1.974316
H    2.728348  -4.321436  2.488265
H    2.643837  -4.757145  0.756936
Hg    1.341161  -1.246501  4.731162
