35
Energy: -571610.6594781  eV PBE+vdW (tier 2 basis)
C    0.091741  1.405215  -0.916626
C    0.023169  0.877835  0.467181
O    0.871285  1.175805  1.373486
H    1.004151  0.997368  -1.385011
H    0.203002  2.497083  -0.898198
H    -0.755897  1.120446  -1.542781
N    -0.927958  0.022189  0.925652
C    -2.305153  -0.286770  0.516985
C    -2.254548  -1.057569  -0.870530
O    -2.458482  -0.439705  -1.909083
H    -0.670420  -0.356464  1.843469
H    -2.634382  -1.018407  1.265173
C    -3.389264  0.821551  0.539658
C    -3.283718  2.042044  -0.380450
C    -4.620840  2.780521  -0.630613
C    -5.197396  3.515565  0.581786
N    -6.441908  4.305888  0.196597
H    -3.459053  1.126829  1.596596
H    -4.324242  0.278505  0.326667
H    -2.947002  1.715749  -1.376710
H    -2.528707  2.751184  -0.006774
H    -5.360213  2.061412  -1.018070
H    -4.441170  3.507988  -1.437103
H    -4.493228  4.247873  0.996660
H    -5.511726  2.840226  1.387035
H    -6.238272  5.012688  -0.526561
H    -7.186408  3.696891  -0.175503
H    -6.836296  4.806634  1.007891
N    -2.004649  -2.390075  -0.851675
C    -1.988187  -3.331932  0.260434
H    -2.108075  -2.812472  -1.780390
H    -2.998726  -3.713440  0.478646
H    -1.545145  -2.898023  1.160923
H    -1.376508  -4.192037  -0.046553
Hg    3.140509  1.556141  1.150554
