35
Energy: -571610.8001523  eV PBE+vdW (tier 2 basis)
C    0.091759  -0.317114  0.637391
C    -0.039132  -0.109693  2.101643
O    0.768998  -0.607421  2.953280
H    0.212091  -1.389560  0.430280
H    1.008934  0.188379  0.291936
H    -0.747965  0.064460  0.050925
N    -1.057268  0.579102  2.683204
C    -2.386471  0.886821  2.166238
C    -2.635211  2.395583  2.625207
O    -3.204450  2.580698  3.690441
H    -0.956367  0.651234  3.702689
H    -2.368434  0.838851  1.071334
C    -3.481467  -0.041982  2.736160
C    -4.891008  0.215280  2.168479
C    -5.915681  -0.869209  2.580010
C    -6.578383  -0.736101  3.955214
N    -7.848847  0.110743  3.920549
H    -3.473130  0.040461  3.833024
H    -3.173454  -1.068130  2.480824
H    -4.842239  0.218011  1.069488
H    -5.242525  1.216841  2.461622
H    -5.430388  -1.855801  2.560189
H    -6.696398  -0.938177  1.806452
H    -5.930086  -0.276923  4.711846
H    -6.899806  -1.713546  4.333127
H    -8.277131  0.175028  4.857035
H    -8.556093  -0.303078  3.294091
H    -7.678014  1.073148  3.597574
N    -2.200097  3.408729  1.833765
C    -1.728345  3.387921  0.458152
H    -2.488946  4.326508  2.187831
H    -2.564085  3.440649  -0.258380
H    -1.114937  2.506737  0.254053
H    -1.113748  4.285949  0.305248
Hg    3.012811  -1.004767  2.742551
