35
Energy: -571611.0857472  eV PBE+vdW (tier 2 basis)
C    0.007033  -1.403561  -0.282492
C    0.279996  -0.538670  0.895837
O    1.454637  -0.377361  1.381485
H    -1.053290  -1.596186  -0.465690
H    0.530425  -2.361323  -0.165416
H    0.415761  -0.908768  -1.179895
N    -0.676215  0.119599  1.580223
C    -2.115764  -0.016237  1.533285
C    -2.662166  1.444504  1.788087
O    -2.084369  2.147184  2.608117
H    -0.331234  0.767114  2.301061
H    -2.413937  -0.378013  0.542394
C    -2.755760  -0.949270  2.620668
C    -2.374699  -0.648916  4.075496
C    -3.341373  -1.196834  5.151551
C    -3.285015  -2.712499  5.355081
N    -4.150083  -3.136810  6.535406
H    -3.846009  -0.881553  2.479317
H    -2.476174  -1.974076  2.325358
H    -2.345773  0.443357  4.230548
H    -1.349499  -0.995454  4.280751
H    -4.371619  -0.887987  4.912769
H    -3.078670  -0.701194  6.098806
H    -2.270056  -3.058282  5.588759
H    -3.656726  -3.279209  4.492470
H    -4.111856  -4.157100  6.683648
H    -5.141209  -2.886838  6.398872
H    -3.842725  -2.691214  7.413673
N    -3.761529  1.808433  1.091421
C    -4.264034  3.174914  1.082395
H    -4.144640  1.162409  0.401929
H    -3.824454  3.758586  0.254864
H    -4.001422  3.662085  2.028398
H    -5.350149  3.141062  0.922354
Hg    3.407907  -0.255007  0.224000
