35
Energy: -571610.5654387  eV PBE+vdW (tier 2 basis)
C    0.150946  0.872685  0.332506
C    -0.105662  0.436958  1.725400
O    0.619988  0.782349  2.718169
H    0.335752  1.953791  0.301912
H    1.076790  0.376173  -0.007090
H    -0.643301  0.594368  -0.364559
N    -1.123824  -0.377588  2.102501
C    -2.450124  -0.678955  1.542773
C    -2.252490  -1.570070  0.246205
O    -2.214394  -1.029659  -0.853752
H    -0.998241  -0.703505  3.067101
H    -2.896985  -1.330697  2.303241
C    -3.486653  0.456645  1.356337
C    -3.362398  1.554988  0.290994
C    -4.601060  2.480169  0.370050
C    -4.664090  3.645092  -0.620620
N    -5.273070  3.274042  -1.970601
H    -3.578525  0.918178  2.354133
H    -4.437923  -0.078299  1.203941
H    -3.271611  1.097071  -0.706597
H    -2.459706  2.163117  0.451294
H    -4.631741  2.941264  1.368705
H    -5.528942  1.887814  0.306534
H    -3.679427  4.077006  -0.838380
H    -5.304796  4.445273  -0.231626
H    -4.741437  2.544180  -2.464382
H    -6.241683  2.936150  -1.865777
H    -5.309704  4.096154  -2.593470
N    -2.153846  -2.913007  0.405519
C    -2.397045  -3.747428  1.575289
H    -2.153380  -3.407859  -0.492403
H    -1.859351  -4.693518  1.421069
H    -3.466179  -3.995676  1.678266
H    -2.026557  -3.285487  2.494709
Hg    2.896725  1.116932  2.814139
