35
Energy: -571611.0913700  eV PBE+vdW (tier 2 basis)
C    -0.968526  -1.211544  0.701931
C    0.255679  -0.385327  0.852595
O    1.392145  -0.861482  1.163425
H    -1.864307  -0.646534  0.430992
H    -1.158176  -1.757041  1.637994
H    -0.789672  -1.966919  -0.080093
N    0.270088  0.973779  0.730164
C    -0.814391  1.932273  0.898252
C    -0.677297  2.887306  -0.381393
O    -0.142386  3.973979  -0.262331
H    1.216112  1.366655  0.807757
H    -1.774980  1.403678  0.844117
C    -0.690396  2.730045  2.213238
C    -1.828773  3.729593  2.499782
C    -1.669371  4.328062  3.914283
C    -2.793205  5.242332  4.405495
N    -2.698234  6.676086  3.889284
H    0.277114  3.254527  2.211643
H    -0.654100  1.982642  3.021425
H    -2.802525  3.218651  2.434763
H    -1.824392  4.520631  1.734761
H    -0.698539  4.841152  4.012641
H    -1.632781  3.506581  4.645719
H    -2.764231  5.331143  5.497897
H    -3.789587  4.881443  4.120826
H    -3.463906  7.252275  4.272223
H    -2.759238  6.737039  2.863953
H    -1.814401  7.122789  4.176021
N    -1.156335  2.384671  -1.547278
C    -1.223027  3.180297  -2.764189
H    -1.696833  1.521749  -1.519861
H    -2.155063  3.769949  -2.814070
H    -1.215157  2.497802  -3.623863
H    -0.374793  3.875835  -2.784802
Hg    2.320749  -2.903123  0.607318
