35
Energy: -571610.8278008  eV PBE+vdW (tier 2 basis)
C    0.310300  0.335456  0.734429
C    -0.257685  0.029940  2.070844
O    0.432474  0.093338  3.144636
H    -0.380253  0.184386  -0.094328
H    1.207704  -0.274934  0.568163
H    0.615452  1.397823  0.739165
N    -1.545219  -0.346026  2.315290
C    -2.479264  -1.111108  1.494674
C    -1.831169  -2.507472  1.107528
O    -0.739914  -2.497352  0.550252
H    -1.736323  -0.388080  3.320694
H    -3.324229  -1.304537  2.170524
C    -3.001499  -0.393973  0.213169
C    -4.324579  -0.997762  -0.304943
C    -4.779057  -0.395685  -1.657863
C    -5.610883  0.892834  -1.625490
N    -7.114636  0.626936  -1.612027
H    -2.248018  -0.460874  -0.582188
H    -3.124664  0.669783  0.463920
H    -5.112490  -0.892858  0.459389
H    -4.192582  -2.078551  -0.457920
H    -5.326729  -1.165749  -2.223617
H    -3.895106  -0.188550  -2.277774
H    -5.439426  1.497139  -2.523648
H    -5.407209  1.522652  -0.750598
H    -7.648221  1.510099  -1.594976
H    -7.416756  0.073634  -0.797920
H    -7.410573  0.115289  -2.457546
N    -2.533746  -3.617522  1.404924
C    -2.019646  -4.963793  1.175485
H    -3.381830  -3.525589  1.961240
H    -2.868500  -5.632822  0.986694
H    -1.484298  -5.337893  2.064114
H    -1.324503  -4.947881  0.328877
Hg    2.215658  1.444029  3.520657
