35
Energy: -571611.5530142  eV PBE+vdW (tier 2 basis)
C    -1.634240  -3.458978  0.891585
C    -0.752911  -2.371048  1.416234
O    0.249534  -2.078568  0.674085
H    -1.086168  -4.412513  0.949833
H    -1.833459  -3.281075  -0.174790
H    -2.581714  -3.538958  1.436437
N    -1.060036  -1.798197  2.595383
C    -0.570421  -0.539546  3.204310
C    0.671658  -0.781400  4.110682
O    1.870142  -0.686373  3.636511
H    -1.856981  -2.223568  3.067389
H    -0.210977  0.110263  2.388811
C    -1.724468  0.200444  3.922153
C    -2.800832  0.820053  3.002537
C    -3.935675  1.447615  3.842385
C    -5.150910  1.991742  3.083148
N    -4.989569  3.421887  2.574241
H    -1.270787  0.999937  4.526863
H    -2.212839  -0.490205  4.632675
H    -3.227800  0.051834  2.339245
H    -2.324282  1.570233  2.351095
H    -3.537114  2.223312  4.516786
H    -4.344996  0.675805  4.511887
H    -6.025360  2.025283  3.743583
H    -5.413609  1.384594  2.207825
H    -4.816056  4.082272  3.347105
H    -5.852434  3.736613  2.102482
H    -4.222741  3.526878  1.896072
N    0.529546  -1.052745  5.388828
C    1.628849  -1.312534  6.332435
H    -0.408765  -1.007967  5.784209
H    1.944733  -0.371108  6.802784
H    2.476715  -1.751784  5.799313
H    1.262774  -1.997540  7.103780
Hg    2.003192  -1.102659  1.512098
