35
Energy: -571610.8371473  eV PBE+vdW (tier 2 basis)
C    -0.284340  0.317047  -0.144701
C    -0.222384  0.267172  1.337874
O    0.721197  -0.324282  1.980935
H    -0.207849  -0.700987  -0.551320
H    0.584902  0.885029  -0.515088
H    -1.185750  0.795488  -0.535953
N    -1.160459  0.783910  2.150362
C    -2.540548  1.164794  1.882158
C    -2.774574  2.373697  2.875158
O    -2.406355  2.216768  4.034687
H    -0.933096  0.748313  3.154391
H    -2.642848  1.465921  0.834532
C    -3.527125  0.015614  2.254469
C    -5.032929  0.333857  2.169204
C    -5.849964  -0.849433  2.736020
C    -7.351182  -0.631871  2.941082
N    -8.197918  -0.856266  1.690209
H    -3.282386  -0.294695  3.281971
H    -3.282767  -0.830094  1.593128
H    -5.313350  0.552777  1.126139
H    -5.264087  1.233550  2.760747
H    -5.463152  -1.085014  3.739086
H    -5.678495  -1.763782  2.144548
H    -7.590074  0.379333  3.293725
H    -7.740810  -1.345593  3.676527
H    -9.199514  -0.725636  1.902581
H    -8.091736  -1.816295  1.329876
H    -7.965824  -0.208578  0.925334
N    -3.352041  3.514296  2.433378
C    -3.706924  3.910202  1.080346
H    -3.349479  4.254632  3.141911
H    -2.842043  4.333539  0.542492
H    -4.464028  4.701451  1.146741
H    -4.117220  3.069223  0.511602
Hg    2.890516  -0.474110  1.427790
