36
Energy: -574589.747822 eV PBE+vdW (tier 2 basis)
C    -0.862568  -1.634294  -0.571009
C    -0.347252  -0.690298  0.455863
O    0.488625  0.223754  0.036550
H    -0.261350  -2.557173  -0.558190
H    -0.749321  -1.184450  -1.563224
H    -1.910718  -1.900816  -0.394825
N    -0.672023  -0.744026  1.737854
C    -1.389501  -1.751429  2.521727
C    -2.196536  -0.865196  3.510143
O    -1.734267  0.266828  3.746787
H    -0.665883  0.117977  2.342384
H    -2.045351  -2.344486  1.871853
C    -0.393069  -2.697941  3.268025
C    0.097391  -2.291904  4.674962
C    1.038692  -1.088591  4.868537
N    2.425064  -1.347096  4.437550
C    3.183394  -0.594204  3.634811
N    4.309631  -1.085968  3.102854
N    2.876076  0.710845  3.293516
H    0.452809  -2.895427  2.591349
H    -0.901328  -3.665059  3.385538
H    -0.772510  -2.094378  5.318174
H    0.570800  -3.179975  5.122356
H    1.062332  -0.837731  5.938594
H    0.662848  -0.198088  4.353172
H    2.854466  -2.187313  4.824633
H    5.006646  -0.431707  2.759653
H    4.591758  -2.054833  3.214300
H    2.323829  1.177987  4.017483
N    -3.288534  -1.388677  4.067096
C    -4.128017  -0.685255  5.039818
H    -3.591015  -2.309839  3.762992
H    -4.180257  -1.256256  5.974290
H    -5.140090  -0.560879  4.637267
H    -3.690621  0.297570  5.231976
Hg    1.783194  0.758003  1.560752
