36
Energy: -574589.520279 eV PBE+vdW (tier 2 basis)
C    -0.109575  -0.128770  0.087657
C    -0.178481  -0.178606  1.565942
O    0.913012  -0.420258  2.216398
H    0.462039  0.758652  -0.221638
H    -1.095497  -0.137422  -0.385103
H    0.467947  -0.999891  -0.256840
N    -1.336461  -0.023039  2.235348
C    -2.332240  1.031468  1.994817
C    -1.575169  2.350062  1.727481
O    -0.433283  2.517033  2.201654
H    -1.286817  -0.322362  3.208789
H    -2.952989  0.766164  1.128313
C    -3.280117  1.140902  3.226338
C    -2.694278  1.149613  4.661985
C    -2.474933  2.460358  5.445683
N    -1.409874  3.404951  5.051410
C    -0.085156  3.205433  5.028364
N    0.724483  4.152460  4.549005
N    0.523824  2.060237  5.484359
H    -3.959679  0.280472  3.161895
H    -3.914467  2.025267  3.076901
H    -1.800042  0.511588  4.751520
H    -3.429556  0.618765  5.284547
H    -2.333872  2.193395  6.504339
H    -3.398558  3.051290  5.416389
H    -1.716599  4.366528  4.926688
H    1.716581  4.098028  4.753136
H    0.388518  4.955476  4.030061
H    -0.033441  1.558385  6.177992
N    -2.194118  3.286509  0.994317
C    -3.473416  3.189632  0.282335
H    -1.641070  4.127305  0.841311
H    -3.663433  4.151539  -0.201695
H    -4.308293  2.990100  0.964647
H    -3.444990  2.419579  -0.499823
Hg    0.940387  0.784111  3.929489
