36
Energy: -574590.124041 eV PBE+vdW (tier 2 basis)
C    -0.177115  -1.173005  0.602496
C    -0.213097  -0.717190  2.009732
O    0.857654  -0.862507  2.722847
H    0.496962  -0.522418  0.026356
H    -1.167872  -1.207360  0.141277
H    0.271073  -2.177954  0.579741
N    -1.324540  -0.223816  2.579522
C    -2.178261  0.819411  1.999722
C    -1.238813  1.886658  1.375385
O    -0.047046  1.945571  1.750913
H    -1.264482  -0.165613  3.596517
H    -2.829900  0.384315  1.230699
C    -3.079522  1.409591  3.121797
C    -2.423295  1.748459  4.478296
C    -1.430016  2.926461  4.507380
N    -0.725374  3.019294  5.791926
C    0.602076  2.961550  6.009492
N    1.083446  3.528263  7.129337
N    1.467310  2.384588  5.150914
H    -3.882371  0.685238  3.315424
H    -3.575393  2.302288  2.716787
H    -1.941984  0.861988  4.930134
H    -3.247767  1.964832  5.173670
H    -1.966663  3.873031  4.345588
H    -0.675263  2.863095  3.716959
H    -1.284029  3.299775  6.593940
H    1.996031  3.281563  7.495923
H    0.571968  4.253634  7.621116
H    2.443988  2.612896  5.322645
N    -1.735197  2.727835  0.462670
C    -3.077634  2.797767  -0.115067
H    -1.061009  3.420934  0.138598
H    -2.991456  3.056492  -1.175699
H    -3.685193  3.565236  0.382838
H    -3.591684  1.834528  -0.045495
Hg    1.166883  0.773739  3.953413
