36
Energy: -574587.787976 eV PBE+vdW (tier 2 basis)
C    -0.633883  -0.397921  0.350345
C    -0.427795  -0.068900  1.795384
O    0.663182  -0.377708  2.344823
H    -0.191415  0.395327  -0.271672
H    -1.692120  -0.519745  0.095802
H    -0.088777  -1.320359  0.118376
N    -1.402950  0.531770  2.525126
C    -2.234076  1.644024  2.062186
C    -1.425548  2.927829  2.388951
O    -0.547080  2.898337  3.286214
H    -1.136330  0.646898  3.505147
H    -2.368427  1.547527  0.976553
C    -3.604024  1.639094  2.774524
C    -4.432562  0.384217  2.459663
C    -5.704284  0.232178  3.299709
N    -6.733226  1.205360  2.956909
C    -7.807756  1.544211  3.733400
N    -7.995017  0.937735  4.925832
N    -8.673360  2.496081  3.418255
H    -4.152046  2.550044  2.494887
H    -3.427816  1.714760  3.859786
H    -3.823918  -0.511900  2.646098
H    -4.692621  0.351555  1.388622
H    -5.467191  0.348484  4.370287
H    -6.101373  -0.791151  3.167309
H    -6.769971  1.539683  1.998163
H    -8.782490  1.263028  5.479880
H    -7.543128  0.073633  5.198309
H    -8.514130  2.891291  2.483585
N    -1.682215  4.069274  1.738398
C    -2.732116  4.367720  0.771715
H    -1.098943  4.850902  2.041290
H    -2.335384  5.067764  0.027868
H    -3.598691  4.836816  1.258906
H    -3.054530  3.461773  0.249229
Hg    1.551084  1.365619  3.769824
