36
Energy: -574587.599497 eV PBE+vdW (tier 2 basis)
C    -1.221284  1.470627  -0.481609
C    -0.432261  0.873812  0.637912
O    0.781381  1.194196  0.760009
H    -2.280413  1.591815  -0.240149
H    -1.111581  0.846551  -1.380452
H    -0.783915  2.448678  -0.715653
N    -0.983649  0.060363  1.594831
C    -1.789732  -1.140315  1.365883
C    -0.784767  -2.175192  0.756928
O    0.023201  -1.769377  -0.108406
H    -0.335944  -0.054689  2.377585
H    -2.090844  -1.482868  2.367492
C    -3.063391  -0.952586  0.517820
C    -4.011962  -2.156384  0.592226
C    -5.403253  -1.913687  -0.032778
N    -5.412746  -1.756905  -1.481154
C    -5.410314  -0.576112  -2.166250
N    -5.484824  -0.610006  -3.518219
N    -5.276206  0.625551  -1.621195
H    -2.795872  -0.742688  -0.525643
H    -3.570465  -0.060862  0.916928
H    -4.198643  -2.423596  1.644731
H    -3.560638  -3.040430  0.116424
H    -5.886130  -1.040173  0.427095
H    -6.046354  -2.773219  0.198567
H    -5.408466  -2.616091  -2.026094
H    -5.514077  0.286020  -3.995270
H    -5.784572  -1.428593  -4.036458
H    -5.415331  0.611809  -0.605588
N    -0.818157  -3.425365  1.222171
C    0.108659  -4.477902  0.808669
H    -1.494866  -3.652389  1.946751
H    0.509438  -4.234662  -0.179001
H    -0.428694  -5.431529  0.768386
H    0.934034  -4.571826  1.528392
Hg    2.296327  -0.655045  0.472102
