36
Energy: -574587.952195 eV PBE+vdW (tier 2 basis)
C    0.372718  0.970342  0.275405
C    0.120603  0.480499  1.667045
O    1.092466  0.091355  2.366330
H    -0.498182  0.847205  -0.377119
H    1.227554  0.424247  -0.140029
H    0.661992  2.032007  0.309196
N    -1.138797  0.429454  2.175056
C    -2.149622  1.474269  2.009467
C    -1.888499  2.494459  3.149066
O    -1.277873  2.128584  4.183852
H    -1.158237  0.033433  3.117152
H    -1.997738  1.951889  1.032445
C    -3.573683  0.887193  2.100192
C    -3.896162  -0.091697  0.963659
C    -5.291308  -0.707064  1.110141
N    -5.573155  -1.624357  0.026839
C    -6.718809  -2.339763  -0.178975
N    -7.748468  -2.234293  0.686760
N    -6.676919  -3.094119  -1.268030
H    -4.295299  1.716740  2.098768
H    -3.681232  0.391853  3.078682
H    -3.147684  -0.898430  0.945690
H    -3.835127  0.430523  -0.004375
H    -6.062917  0.086247  1.123819
H    -5.372820  -1.244811  2.074160
H    -4.876407  -1.798654  -0.695802
H    -8.594825  -2.768156  0.525134
H    -7.729046  -1.648861  1.513788
H    -7.541374  -3.629022  -1.418970
N    -2.338791  3.750652  3.042490
C    -3.181860  4.348194  2.013177
H    -2.120608  4.331533  3.853564
H    -2.870353  5.388287  1.865280
H    -4.239213  4.343940  2.313605
H    -3.074116  3.820655  1.060472
Hg    1.021346  0.917287  4.650459
