36
Energy: -574590.736268 eV PBE+vdW (tier 2 basis)
C    -1.283859  1.643534  0.063808
C    -1.840208  0.493751  0.845094
O    -2.397405  -0.421621  0.150431
H    -0.808550  2.404406  0.691560
H    -2.093288  2.105323  -0.517026
H    -0.550166  1.258478  -0.657098
N    -1.700503  0.528025  2.176930
C    -2.094733  -0.411203  3.256750
C    -1.340235  -1.746775  3.094462
O    -1.653467  -2.562156  2.198788
H    -1.216262  1.359056  2.505024
H    -1.722984  0.070943  4.170914
C    -3.631138  -0.526612  3.421677
C    -4.113583  -1.605067  4.410825
C    -4.456987  -2.986996  3.831567
N    -5.679196  -2.988274  3.003082
C    -5.838464  -3.583872  1.798761
N    -7.031620  -4.130761  1.512833
N    -4.847620  -3.630522  0.893131
H    -4.135333  -0.657221  2.448626
H    -3.973510  0.461634  3.757179
H    -4.998285  -1.219496  4.937153
H    -3.364239  -1.761438  5.201928
H    -4.622611  -3.683638  4.666474
H    -3.638603  -3.404460  3.235445
H    -6.544887  -2.827727  3.512600
H    -7.304336  -4.332860  0.557161
H    -7.670837  -4.423917  2.244230
H    -5.000978  -4.262941  0.111314
N    -0.346947  -1.970858  3.958534
C    0.504161  -3.160796  3.944769
H    -0.143043  -1.261810  4.656648
H    1.540045  -2.876513  3.722987
H    0.141518  -3.844444  3.173599
H    0.469638  -3.653050  4.923587
Hg    -3.480484  -2.134120  0.640255
