36
Energy: -574589.760925 eV PBE+vdW (tier 2 basis)
C    0.008009  1.125201  2.629694
C    -0.673420  0.235941  3.625378
O    -0.374117  0.232672  4.831092
H    0.093079  2.137259  3.041625
H    -0.497933  1.164914  1.658744
H    1.032838  0.756777  2.478669
N    -1.655759  -0.599333  3.141669
C    -2.345468  -1.493510  4.048334
C    -1.568119  -2.820669  4.198258
O    -0.819643  -3.016614  5.237813
H    -1.887654  -0.576981  2.153350
H    -2.169032  -1.006809  5.014739
C    -3.878691  -1.524976  3.938711
C    -4.526849  -0.285651  4.600433
C    -4.373728  -0.161973  6.145553
N    -3.492139  0.938665  6.580116
C    -2.355529  0.878009  7.294885
N    -1.541713  1.930862  7.343982
N    -1.946456  -0.225390  8.024314
H    -4.253744  -2.441111  4.419704
H    -4.210331  -1.575747  2.892456
H    -5.598980  -0.314712  4.369486
H    -4.146782  0.628597  4.119910
H    -4.006357  -1.096091  6.590359
H    -5.358627  0.014321  6.596733
H    -3.790992  1.866887  6.283874
H    -0.800306  1.935388  8.037237
H    -1.635005  2.739101  6.738159
H    -2.743418  -0.733807  8.418250
N    -1.570028  -3.771054  3.286523
C    -2.250542  -3.815353  1.993101
H    -0.971513  -4.570367  3.507866
H    -2.864732  -4.721852  1.937839
H    -1.505232  -3.840850  1.188504
H    -2.897405  -2.946491  1.861380
Hg    -1.006160  -1.575507  6.766546
