36
Energy: -574589.111347 eV PBE+vdW (tier 2 basis)
C    -1.471143  0.166573  -0.675398
C    -1.200751  1.080554  0.495859
O    -0.086111  1.774350  0.234399
H    -1.337758  0.716614  -1.615538
H    -2.483087  -0.245984  -0.632413
H    -0.735080  -0.648682  -0.676493
N    -2.011774  1.085423  1.515390
C    -2.054521  2.117158  2.563224
C    -1.219112  1.756456  3.818423
O    0.009538  2.127647  3.954441
H    -3.544859  -0.002200  1.412028
H    -1.618948  3.080011  2.217975
C    -3.520414  2.442415  2.921903
C    -4.336590  3.100581  1.795029
C    -4.902129  2.189150  0.695933
N    -5.862294  1.191399  1.182300
C    -5.636911  -0.123874  1.327228
N    -6.684650  -0.951753  1.477873
N    -4.390565  -0.609471  1.340545
H    -3.508542  3.136821  3.774560
H    -4.037427  1.530420  3.265432
H    -3.734971  3.879372  1.300843
H    -5.175594  3.636341  2.261971
H    -4.113605  1.662993  0.149250
H    -5.430593  2.811022  -0.038850
H    -6.813274  1.509578  1.341738
H    -6.557679  -1.917939  1.752771
H    -7.625550  -0.664719  1.235837
H    -4.248485  -1.609414  1.261791
N    -1.766701  1.068722  4.799663
C    -1.070615  0.670895  6.028291
H    -2.758852  0.861431  4.725890
H    -0.045794  0.370321  5.789674
H    -1.610353  -0.168155  6.475575
H    -1.041881  1.506985  6.738725
Hg    0.772580  2.553984  1.969496
