36
Energy: -574588.424873 eV PBE+vdW (tier 2 basis)
C    -0.684984  0.500352  2.709816
C    -1.276730  -0.177025  3.903188
O    -0.604306  -0.245387  4.973084
H    -1.419478  1.123179  2.189650
H    -0.304192  -0.256287  2.005957
H    0.166312  1.107211  3.034043
N    -2.523267  -0.725257  3.877511
C    -3.099566  -1.597745  2.836507
C    -2.223939  -2.867675  2.736834
O    -1.819922  -3.474756  3.838724
H    -2.866941  -0.936678  4.814066
H    -4.053312  -1.927427  3.277948
C    -3.408538  -0.933254  1.488620
C    -4.642539  -1.569422  0.804230
C    -4.531230  -1.687600  -0.713916
N    -3.579864  -2.753312  -1.057456
C    -3.401656  -3.255381  -2.282108
N    -3.934927  -2.654037  -3.352555
N    -2.670876  -4.374520  -2.443718
H    -2.523231  -0.993255  0.839297
H    -3.603109  0.132479  1.661997
H    -5.534929  -0.973195  1.032896
H    -4.840711  -2.573824  1.208193
H    -4.205778  -0.726790  -1.147455
H    -5.515454  -1.936727  -1.137230
H    -3.026372  -3.131637  -0.279905
H    -3.946192  -3.104944  -4.259659
H    -4.326379  -1.722337  -3.297933
H    -2.429251  -4.710831  -3.368225
N    -2.015350  -3.428502  1.591226
C    -1.052204  -4.489830  1.399196
H    -2.544503  -5.021376  -1.675946
H    -1.557955  -5.466085  1.483917
H    -0.225527  -4.466943  2.120099
H    -0.652216  -4.421405  0.377036
Hg    -0.757790  -2.548706  5.555342
