36
Energy: -574587.913205 eV PBE+vdW (tier 2 basis)
C    0.107786  0.068698  0.424068
C    -0.227013  -0.133244  1.867424
O    0.652760  -0.399027  2.730662
H    0.619296  1.037867  0.320758
H    -0.756379  0.067357  -0.245521
H    0.808374  -0.711938  0.106333
N    -1.495532  -0.048405  2.336768
C    -2.770529  -0.057499  1.632583
C    -3.602581  1.116464  2.269700
O    -4.116112  0.943600  3.371237
H    -1.558694  -0.163661  3.352405
H    -2.593551  0.148478  0.569835
C    -3.506883  -1.397810  1.822505
C    -4.884557  -1.449884  1.150047
C    -5.642220  -2.741026  1.545732
N    -7.001009  -2.789863  1.029384
C    -7.415468  -3.247142  -0.187483
N    -6.540247  -3.820122  -1.042796
N    -8.665032  -3.140972  -0.622962
H    -3.619831  -1.562379  2.904728
H    -2.854919  -2.195894  1.436789
H    -4.792155  -1.393852  0.054971
H    -5.495448  -0.593110  1.468897
H    -5.714269  -2.804283  2.639835
H    -5.093570  -3.637534  1.219892
H    -7.732328  -2.387076  1.608650
H    -6.932812  -4.193663  -1.902088
H    -5.600843  -4.094537  -0.786292
H    -9.300051  -2.737932  0.077628
N    -3.662995  2.254568  1.556493
C    -4.416175  3.425255  2.005279
H    -3.262482  2.270790  0.624404
H    -5.448443  3.402416  1.631009
H    -3.921333  4.328442  1.633526
H    -4.436820  3.432136  3.099780
Hg    2.977328  0.337684  2.770175
