36
Energy: -574589.812384 eV PBE+vdW (tier 2 basis)
C    -2.134870  1.310992  4.075733
C    -0.926627  0.435270  4.185327
O    0.215550  1.069982  4.281675
H    -3.053346  0.802347  4.387523
H    -2.247936  1.642312  3.032648
H    -1.991659  2.213863  4.680148
N    -0.879274  -0.882512  4.188351
C    -1.948113  -1.777292  3.789641
C    -2.612879  -2.314256  5.053366
O    -1.994397  -2.088505  6.182005
H    -1.216442  -1.509449  5.937789
H    -2.719943  -1.289866  3.171272
C    -1.300949  -2.931596  2.950885
C    -0.233304  -3.729041  3.719592
C    0.799557  -4.494148  2.871300
N    1.558294  -3.706507  1.877456
C    2.268431  -2.582600  2.073829
N    2.612665  -1.834147  1.008169
N    2.648278  -2.136686  3.296573
H    -0.860750  -2.427011  2.079207
H    -2.079917  -3.601207  2.560836
H    0.290332  -3.060085  4.413928
H    -0.709705  -4.492613  4.352913
H    0.301721  -5.276471  2.285434
H    1.496538  -5.018298  3.542511
H    1.591586  -4.103294  0.942124
H    3.419198  -1.223031  1.086221
H    2.283418  -2.047472  0.073210
H    2.632890  -2.861126  4.013830
N    -3.728757  -2.992194  5.106866
C    -4.618798  -3.356778  4.001381
H    -4.015907  -3.290624  6.042600
H    -5.652729  -3.178945  4.315972
H    -4.499177  -4.419226  3.755748
H    -4.408914  -2.747349  3.118599
Hg    1.616704  -0.449085  3.927214
