36
Energy: -574590.451287 eV PBE+vdW (tier 2 basis)
C    0.198859  0.171951  0.358499
C    0.055422  -0.039005  1.834497
O    1.152811  -0.208304  2.467200
H    0.833479  1.052224  0.188134
H    -0.758074  0.312222  -0.154998
H    0.722226  -0.689697  -0.076624
N    -1.187736  -0.023236  2.337501
C    -1.729046  -0.163787  3.713221
C    -1.181772  0.972848  4.603045
O    -0.030534  0.908703  5.091717
H    -1.898003  0.127098  1.626359
H    -2.807391  -0.011691  3.590285
C    -1.517316  -1.579368  4.295005
C    -1.817700  -1.722058  5.796999
C    -1.129037  -2.938955  6.447972
N    0.333939  -2.909430  6.283226
C    1.214710  -2.108508  6.933189
N    1.091907  -1.921233  8.252121
N    2.203511  -1.538530  6.223177
H    -0.480427  -1.892795  4.092000
H    -2.133992  -2.274981  3.708517
H    -2.900011  -1.817032  5.963280
H    -1.495655  -0.822400  6.340997
H    -1.473017  -3.883202  6.007933
H    -1.388954  -2.982448  7.512326
H    0.706933  -3.345231  5.446059
H    1.610493  -1.192908  8.730903
H    0.606753  -2.600863  8.829557
H    3.008475  -1.179295  6.734147
N    -1.970107  2.024688  4.842360
C    -3.328817  2.295541  4.362626
H    -1.531996  2.740088  5.421619
H    -4.041290  1.537633  4.711615
H    -3.364614  2.372767  3.268553
H    -3.642509  3.259317  4.773275
Hg    1.663481  -0.721125  4.421709
