36
Energy: -574588.432257 eV PBE+vdW (tier 2 basis)
C    -1.605799  0.095747  -1.559071
C    -0.507979  0.198055  -0.553019
O    0.697782  0.243948  -0.941478
H    -1.768405  1.075324  -2.033613
H    -2.543667  -0.273644  -1.133540
H    -1.271680  -0.580570  -2.356870
N    -0.773889  0.240682  0.778328
C    -1.846554  1.020960  1.404188
C    -1.184435  2.293436  1.987553
O    -0.301050  2.962647  1.270356
H    0.044095  0.065675  1.363741
H    -2.498408  1.364008  0.585220
C    -2.676369  0.216724  2.415923
C    -4.100099  0.768176  2.557785
C    -4.933853  0.145347  3.681117
N    -4.334642  0.136753  5.036753
C    -4.169535  1.200327  5.842740
N    -4.286370  1.049142  7.169380
N    -3.878637  2.403341  5.328850
H    -2.157486  0.214571  3.386899
H    -2.713672  -0.827665  2.074718
H    -4.662534  0.581902  1.629635
H    -4.081322  1.861512  2.662427
H    -5.127782  -0.910704  3.457572
H    -5.909867  0.649074  3.728988
H    -4.336028  -0.763286  5.505964
H    -3.918510  1.738651  7.815147
H    -4.790713  0.265894  7.569368
H    -3.960675  3.234328  5.902935
N    -1.601970  2.790755  3.105367
C    -0.916209  3.866336  3.784295
H    -3.386071  2.486171  4.437066
H    -1.073260  3.755436  4.866606
H    -1.370117  4.829783  3.498131
H    0.158082  3.907678  3.566570
Hg    1.475750  2.182256  0.179439
