36
Energy: -574590.396858 eV PBE+vdW (tier 2 basis)
C    -1.201919  0.157392  -0.251818
C    -1.378138  -0.459726  1.102053
O    -0.902059  -1.640731  1.218231
H    -1.675387  -0.490966  -1.001311
H    -0.130166  0.192740  -0.489014
H    -1.623825  1.164945  -0.328308
N    -2.007277  0.275362  2.029951
C    -2.418771  0.037054  3.439920
C    -1.168956  -0.085609  4.330740
O    -0.502756  -1.144076  4.350646
H    -2.287856  1.185369  1.674824
H    -2.945786  0.958855  3.712700
C    -3.439606  -1.113070  3.563250
C    -3.980451  -1.449250  4.967573
C    -3.120869  -2.320353  5.908019
N    -2.612897  -3.505452  5.203217
C    -1.382571  -4.049627  5.333142
N    -0.829755  -4.158490  6.544360
N    -0.754474  -4.455462  4.210931
H    -3.047022  -2.023842  3.083591
H    -4.293354  -0.824584  2.934569
H    -4.941851  -1.962214  4.817879
H    -4.234141  -0.529407  5.515145
H    -3.744278  -2.607838  6.766733
H    -2.250499  -1.775503  6.294721
H    -3.154125  -3.854662  4.417830
H    0.159314  -4.353658  6.657805
H    -1.406826  -4.176011  7.379643
H    0.032652  -5.095000  4.310441
N    -0.818765  0.965653  5.080622
C    -1.442882  2.289627  5.175605
H    0.036084  0.819096  5.615907
H    -0.879289  2.873400  5.908831
H    -2.479628  2.226131  5.528420
H    -1.402124  2.827355  4.219742
Hg    -0.753702  -3.027098  2.747084
