36
Energy: -574590.265873 eV PBE+vdW (tier 2 basis)
C    0.654958  0.149834  0.481562
C    -0.033368  -0.237787  1.753441
O    0.610237  -1.058838  2.493323
H    0.804553  -0.749537  -0.131171
H    1.652309  0.540047  0.724959
H    0.106160  0.898191  -0.099634
N    -1.230142  0.317364  1.998596
C    -2.180711  0.244274  3.140715
C    -1.481111  0.668765  4.453500
O    -0.804416  -0.141478  5.122212
H    -1.531901  0.940198  1.254175
H    -2.931546  1.010332  2.903154
C    -2.918017  -1.111038  3.223647
C    -3.828862  -1.297434  4.463571
C    -3.774918  -2.703920  5.112743
N    -2.922918  -2.791842  6.314958
C    -1.599811  -2.996764  6.374354
N    -0.915658  -2.637195  7.463457
N    -0.880664  -3.601025  5.373189
H    -2.193197  -1.935897  3.166505
H    -3.507921  -1.215096  2.302934
H    -4.867936  -1.103839  4.169176
H    -3.597878  -0.554203  5.239677
H    -3.467301  -3.467698  4.387013
H    -4.776294  -2.999512  5.444875
H    -3.389029  -2.569378  7.192038
H    -0.000739  -3.046912  7.621166
H    -1.313537  -2.063813  8.199235
H    -1.456270  -4.238256  4.819147
N    -1.648444  1.944853  4.813626
C    -1.028755  2.556244  5.988601
H    -2.244046  2.536237  4.241613
H    -0.579522  3.514539  5.705323
H    -0.254132  1.885639  6.368583
H    -1.778856  2.731924  6.770084
Hg    -0.024314  -2.252981  4.078653
