36
Energy: -574588.920559 eV PBE+vdW (tier 2 basis)
C    1.624515  0.679270  1.189188
C    1.103855  0.518633  2.597392
O    2.012026  1.034268  3.437256
H    0.847948  0.438091  0.458863
H    2.492063  0.022302  1.043754
H    1.972250  1.708778  1.035972
N    -0.052447  -0.043335  2.797804
C    -0.822200  -0.003742  4.052774
C    -0.576132  -1.212646  4.988476
O    0.307594  -1.182554  5.929904
H    -1.270540  -0.261056  1.216462
H    -0.570663  0.879761  4.679055
C    -2.306101  0.145459  3.665641
C    -2.586700  1.463718  2.916149
C    -3.644550  1.329209  1.797233
N    -3.134052  1.479989  0.423515
C    -2.475038  0.553710  -0.289679
N    -2.539929  0.592981  -1.629435
N    -1.771724  -0.414223  0.321007
H    -2.936180  0.080814  4.563527
H    -2.576037  -0.704005  3.016080
H    -1.661106  1.851788  2.469526
H    -2.917450  2.223435  3.635000
H    -4.410968  2.103706  1.902571
H    -4.164765  0.362903  1.864979
H    -3.453869  2.294661  -0.090397
H    -1.870364  0.097469  -2.206346
H    -3.275295  1.099696  -2.109305
H    -1.451291  -1.197972  -0.237303
N    -1.297648  -2.306660  4.856319
C    -1.146777  -3.510067  5.681380
H    -2.050419  -2.289367  4.173629
H    -1.677964  -3.388686  6.634118
H    -0.085995  -3.685926  5.884435
H    -1.567916  -4.358683  5.135496
Hg    1.744362  0.341463  5.383105
