36
Energy: -574590.231568 eV PBE+vdW (tier 2 basis)
C    -0.222902  -0.401971  -0.855911
C    -0.067738  0.006540  0.570413
O    1.113001  0.486139  0.867556
H    -0.089373  0.473295  -1.505782
H    -1.199027  -0.859181  -1.046126
H    0.570300  -1.118094  -1.111355
N    -1.062063  -0.163768  1.405355
C    -1.145192  -0.014575  2.853606
C    -2.421942  -0.859768  3.191228
O    -3.176492  -1.148403  2.260513
H    -1.962374  -0.594271  1.083135
H    -0.256818  -0.476127  3.315150
C    -1.288793  1.467065  3.304612
C    -0.465866  1.797223  4.560363
C    -0.014016  3.272945  4.621893
N    1.263277  3.453062  5.312637
C    2.480924  3.493214  4.749091
N    3.501366  3.988106  5.469993
N    2.722019  3.094266  3.481069
H    -2.349652  1.711687  3.448264
H    -0.969951  2.111726  2.467681
H    0.437852  1.161797  4.587773
H    -1.017549  1.537774  5.474564
H    -0.754830  3.896895  5.136058
H    0.086819  3.699549  3.612909
H    1.230501  3.605926  6.316446
H    4.466092  3.810036  5.214569
H    3.343034  4.598308  6.265241
H    3.613142  3.419046  3.111333
N    -2.621855  -1.162409  4.480805
C    -3.790564  -1.910373  4.952653
H    -1.885609  -0.965628  5.150278
H    -4.554312  -1.890340  4.170925
H    -4.183857  -1.442242  5.861353
H    -3.522172  -2.952656  5.165704
Hg    1.818672  1.733152  2.287275
