36
Energy: -574587.89344 eV PBE+vdW (tier 2 basis)
C    -0.828385  1.900460  1.725457
C    -0.819223  0.604250  2.486933
O    0.171213  -0.154804  2.330159
H    -0.921842  1.676429  0.653731
H    0.134558  2.405560  1.867289
H    -1.642208  2.570410  2.025408
N    -1.875061  0.355350  3.292819
C    -2.193771  -0.858560  4.064447
C    -1.118611  -1.157069  5.132066
O    -0.268567  -2.086775  5.023237
H    -2.580529  1.084912  3.311115
H    -3.083699  -0.574444  4.638859
C    -2.568071  -2.074573  3.192650
C    -3.958344  -1.946441  2.536523
C    -5.109305  -2.651238  3.296466
N    -5.211091  -2.360862  4.722191
C    -5.462078  -1.152277  5.309831
N    -5.814921  -0.101309  4.509144
N    -5.268460  -0.900343  6.588663
H    -2.514449  -2.980902  3.812563
H    -1.819577  -2.206287  2.395716
H    -3.943446  -2.408988  1.540750
H    -4.195546  -0.887852  2.358539
H    -4.988975  -3.738095  3.217309
H    -6.061889  -2.413819  2.792638
H    -5.064656  -3.132073  5.365620
H    -6.137978  0.713737  5.025379
H    -6.314883  -0.279671  3.643216
H    -5.087354  -1.748972  7.136818
N    -1.142369  -0.446323  6.262512
C    -2.145546  0.516188  6.706704
H    -0.410909  -0.701901  6.927688
H    -1.884662  0.832572  7.720371
H    -3.159432  0.072953  6.741336
H    -2.157071  1.402392  6.059645
Hg    0.845644  -2.313785  2.994621
