36
Energy: -574589.164436 eV PBE+vdW (tier 2 basis)
C    -0.699520  2.090644  -0.424033
C    -0.121483  1.816758  0.933209
O    0.654157  2.684775  1.430011
H    -1.240199  3.045949  -0.386323
H    -1.381746  1.305973  -0.768520
H    0.118402  2.214225  -1.145139
N    -0.478677  0.670630  1.545055
C    -0.259899  0.288689  2.953578
C    1.005904  -0.571685  3.102256
O    2.173143  -0.016308  3.393265
H    -1.053142  0.035523  0.996705
H    -0.116347  1.224196  3.514801
C    -1.518712  -0.424626  3.472802
C    -1.522368  -0.634762  4.992527
C    -2.788380  -1.368147  5.447005
N    -2.795969  -1.532297  6.905840
C    -3.573699  -2.384921  7.590055
N    -3.372112  -2.562346  8.903577
N    -4.536265  -3.076507  6.967748
H    -1.591694  -1.398792  2.963433
H    -2.391933  0.176346  3.177054
H    -1.466336  0.342501  5.499854
H    -0.640900  -1.218041  5.295490
H    -2.823559  -2.367091  4.987077
H    -3.682861  -0.808167  5.125850
H    -2.255623  -0.867642  7.450824
H    -4.056367  -3.033952  9.483176
H    -2.528268  -2.237481  9.359458
H    -4.878753  -2.804905  6.055147
N    0.932856  -1.847186  3.022556
C    2.016238  -2.789676  2.935628
H    -5.023205  -3.831702  7.436189
H    1.627106  -3.721736  2.503572
H    2.391042  -3.034770  3.941659
H    2.851581  -2.422051  2.324169
Hg    2.421220  2.044007  2.781182
