36
Energy: -574588.508355 eV PBE+vdW (tier 2 basis)
C    0.621972  -1.502445  1.363192
C    -0.097310  -1.842991  2.625683
O    0.545398  -2.343606  3.595640
H    1.200385  -0.577045  1.501660
H    -0.054405  -1.398105  0.509197
H    1.351225  -2.297300  1.159532
N    -1.434365  -1.640940  2.752279
C    -2.170492  -0.442091  2.345440
C    -1.876325  0.644489  3.408189
O    -1.714625  0.298742  4.667404
H    -1.827247  -2.087246  3.583545
H    -1.786512  -0.102979  1.374863
C    -3.680905  -0.801032  2.243343
C    -4.549220  -0.065357  1.211489
C    -4.892690  1.411180  1.474123
N    -3.895821  2.367236  0.991596
C    -3.962565  3.062637  -0.146289
N    -4.870163  2.782963  -1.092854
N    -3.087174  4.062386  -0.359601
H    -4.135875  -0.718095  3.242903
H    -3.716594  -1.866859  1.976715
H    -5.501258  -0.615145  1.180901
H    -4.112197  -0.170802  0.205910
H    -5.019179  1.593641  2.550717
H    -5.860159  1.660659  1.019424
H    -3.057787  2.449324  1.589368
H    -5.069763  3.440042  -1.837707
H    -5.427719  1.939804  -1.063179
H    -3.014769  4.511489  -1.264519
N    -1.939378  1.894682  3.074302
C    -1.464153  2.955532  3.930970
H    -2.610797  4.507288  0.414160
H    -1.053632  3.759096  3.302537
H    -0.715109  2.628037  4.661743
H    -2.317168  3.396574  4.474458
Hg    -0.190529  -1.131278  5.494889
