36
Energy: -574588.003945 eV PBE+vdW (tier 2 basis)
C    0.373808  -1.728233  1.996314
C    -0.106803  -0.536238  2.773709
O    0.397487  0.585514  2.542383
H    0.064593  -1.612806  0.948261
H    -0.013982  -2.677384  2.383766
H    1.469944  -1.746171  2.009597
N    -1.075894  -0.740428  3.703779
C    -1.735339  0.328546  4.439741
C    -0.813010  0.984953  5.503195
O    -0.529227  2.209466  5.391028
H    -1.428182  -1.687764  3.798466
H    -1.914287  1.154357  3.731695
C    -3.109109  -0.082305  5.004376
C    -4.187542  -0.210585  3.912857
C    -5.616392  -0.352631  4.450812
N    -5.860186  -1.634829  5.097875
C    -6.846216  -1.899431  6.014013
N    -7.707629  -0.919113  6.370373
N    -6.978084  -3.054956  6.640969
H    -3.410584  0.699495  5.717827
H    -3.027721  -1.010963  5.588007
H    -4.179181  0.692991  3.285619
H    -3.966641  -1.046786  3.229877
H    -6.325137  -0.208070  3.615266
H    -5.818192  0.443041  5.185465
H    -5.420376  -2.457513  4.695738
H    -8.387633  -1.159450  7.086361
H    -7.879496  -0.091932  5.812387
H    -6.326724  -3.773517  6.304231
N    -0.330764  0.311856  6.548897
C    -0.613061  -1.043571  7.013494
H    0.249593  0.887397  7.161330
H    -1.488379  -1.065169  7.676495
H    0.256405  -1.393006  7.580262
H    -0.761461  -1.726084  6.172809
Hg    0.023765  2.923509  3.180078
