36
Energy: -574589.00723 eV PBE+vdW (tier 2 basis)
C    2.275189  -1.274611  0.565252
C    1.314524  -0.280239  1.142953
O    1.017986  0.749489  0.471993
H    1.910347  -1.576453  -0.425576
H    2.404275  -2.166673  1.188099
H    3.248476  -0.790320  0.411443
N    0.789550  -0.542307  2.358606
C    -0.300840  0.184654  3.016542
C    0.211504  1.214190  4.032243
O    1.082934  2.133936  3.665791
H    1.154259  -1.360265  2.837490
H    -0.788091  0.769640  2.218162
C    -1.371810  -0.770046  3.572318
C    -0.906238  -1.876341  4.532508
C    -2.122500  -2.636012  5.088530
N    -1.780160  -3.789579  5.927350
C    -1.760732  -3.824670  7.267596
N    -1.730489  -5.005947  7.900041
N    -1.771324  -2.693723  7.985830
H    -1.889334  -1.223706  2.714058
H    -2.111358  -0.132270  4.080707
H    -0.317710  -1.445412  5.355168
H    -0.260699  -2.603484  4.014037
H    -2.739783  -3.018819  4.263933
H    -2.775157  -1.967872  5.668042
H    -1.589224  -4.665548  5.451181
H    -1.502235  -5.071176  8.885153
H    -1.974895  -5.867553  7.426350
H    -1.581901  -1.795572  7.561881
N    -0.137647  1.166743  5.268829
C    0.041131  2.216336  6.237576
H    -1.973549  -2.707739  8.978397
H    -0.746610  2.122771  6.998742
H    0.011723  3.221131  5.796311
H    1.000751  2.082036  6.762169
Hg    1.161853  2.801342  1.587419
