36
Energy: -574587.714108 eV PBE+vdW (tier 2 basis)
C    -2.898851  1.272217  2.508450
C    -3.845864  0.460769  3.335885
O    -4.394751  1.008526  4.329189
H    -2.992843  1.064471  1.438499
H    -1.867295  1.073454  2.833792
H    -3.102805  2.331865  2.695918
N    -4.202170  -0.821030  3.014219
C    -3.300516  -1.918392  2.649115
C    -2.382205  -2.156854  3.888089
O    -2.167263  -1.202412  4.670474
H    -4.977559  -1.133283  3.600665
H    -3.959963  -2.791051  2.529943
C    -2.501876  -1.750895  1.340761
C    -3.410855  -1.575965  0.113068
C    -2.665063  -1.392455  -1.211945
N    -2.000641  -2.603701  -1.646122
C    -1.109490  -2.740683  -2.675436
N    -0.753714  -1.664289  -3.407627
N    -0.670897  -3.981086  -2.826728
H    -1.876568  -2.648330  1.226155
H    -1.796943  -0.913493  1.427017
H    -4.056067  -0.696482  0.245459
H    -4.101352  -2.430420  0.023244
H    -1.912703  -0.587658  -1.127229
H    -3.387813  -1.068545  -1.985235
H    -2.281523  -3.505709  -1.265892
H    -0.076629  -1.770516  -4.154699
H    -1.218460  -0.765758  -3.340804
H    0.005892  -4.076167  -3.593990
N    -1.852926  -3.366569  4.106954
C    -1.933749  -4.580422  3.302334
H    -1.287109  -3.414391  4.955525
H    -2.848168  -4.593551  2.700098
H    -1.954238  -5.446578  3.972393
H    -1.060593  -4.675816  2.641259
Hg    -3.777952  -0.058700  6.395972
