36
Energy: -574589.932238 eV PBE+vdW (tier 2 basis)
C    0.653663  -0.606096  1.198386
C    -0.328244  0.225019  1.968663
O    -0.115033  1.444751  2.012350
H    -0.939356  2.660413  0.754893
H    0.242103  -1.324134  0.481258
H    1.463913  0.013667  0.808723
N    -1.417765  -0.305331  2.606194
C    -2.304774  -1.435273  2.262445
C    -1.684425  -2.791788  2.659953
O    -0.561904  -3.111567  2.217175
H    -1.863253  0.407259  3.182651
H    -3.192477  -1.270819  2.890126
C    -2.768260  -1.442124  0.787646
C    -3.778706  -0.340658  0.417677
C    -3.301183  1.111119  0.297835
N    -2.443033  1.313006  -0.889248
C    -1.725914  2.433540  -1.135981
N    -1.566934  2.841902  -2.403017
N    -1.163518  3.114464  -0.135168
H    -3.254581  -2.411531  0.606185
H    -1.896163  -1.428382  0.117722
H    -4.600069  -0.341557  1.150562
H    -4.258417  -0.627236  -0.531947
H    -2.752668  1.436757  1.187197
H    -4.184736  1.762560  0.213644
H    -2.743146  0.809505  -1.720802
H    -0.865374  3.531098  -2.649822
H    -2.200401  2.550403  -3.138403
H    -0.746244  4.022057  -0.307682
N    -2.426978  -3.582122  3.440316
C    -2.020446  -4.920890  3.864998
H    -3.319527  -3.234522  3.777571
H    -2.891501  -5.584093  3.844866
H    -1.612107  -4.898031  4.883804
H    -1.258117  -5.295063  3.176174
Hg    1.706015  -2.017320  2.487161
