36
Energy: -574589.961367 eV PBE+vdW (tier 2 basis)
C    0.355322  0.909189  0.025433
C    0.079715  -0.027060  1.166207
O    0.680596  -1.047723  1.398736
H    0.649810  1.906003  0.383590
H    -0.525356  1.024654  -0.623043
H    1.173546  0.494000  -0.569249
N    -0.968712  0.325515  2.112052
C    -2.110925  1.200054  1.842366
C    -1.610392  2.649759  1.774141
O    -0.745582  3.089078  2.618758
H    -1.239053  -0.547306  2.564032
H    -2.599547  0.945588  0.887178
C    -3.163498  1.109068  2.994836
C    -3.435704  -0.277141  3.614966
C    -2.514376  -0.791822  4.741823
N    -2.493571  0.046087  5.958854
C    -1.380709  0.422939  6.636850
N    -1.426899  0.456820  7.975981
N    -0.251506  0.766968  5.990100
H    -4.105540  1.500316  2.588881
H    -2.900071  1.814328  3.804630
H    -3.466442  -1.056052  2.836492
H    -4.460664  -0.250267  4.012614
H    -1.470359  -0.933430  4.438633
H    -2.873179  -1.790565  5.031365
H    -3.342058  0.014353  6.519686
H    -0.743276  0.977248  8.516025
H    -2.099039  -0.095540  8.499457
H    0.586957  0.836646  6.562751
N    -2.098953  3.454832  0.856838
C    -1.769023  4.875302  0.696877
H    -2.739611  3.045462  0.178937
H    -2.690103  5.429884  0.489122
H    -1.074370  5.002616  -0.143152
H    -1.307088  5.248534  1.613638
Hg    -0.321783  1.789511  4.218746
