36
Energy: -574589.570837 eV PBE+vdW (tier 2 basis)
C    0.829347  3.446195  2.066028
C    0.029937  2.909233  3.213768
O    0.046933  3.412131  4.344207
H    0.467833  4.458526  1.837842
H    0.769282  2.835058  1.158768
H    1.877071  3.545838  2.374508
N    -0.759718  1.803455  2.970225
C    -1.732369  1.344747  3.948688
C    -1.041419  0.506715  5.093048
O    -1.181831  -0.770176  5.358961
H    -0.700376  1.341716  2.068529
H    -2.118930  2.242478  4.458260
C    -2.876715  0.569951  3.308570
C    -3.852307  1.155095  2.283517
C    -4.795481  0.029583  1.792127
N    -5.692509  -0.530889  2.827986
C    -5.458002  -1.513126  3.716412
N    -6.228225  -1.610198  4.808842
N    -4.466471  -2.459257  3.593930
H    -3.515212  0.263072  4.155113
H    -2.439699  -0.325709  2.827893
H    -3.332208  1.549945  1.399188
H    -4.427208  1.988028  2.712493
H    -4.212635  -0.785598  1.341716
H    -5.450546  0.408320  0.999178
H    -6.596485  -0.067421  2.904522
H    -6.274643  -2.503935  5.289562
H    -6.925960  -0.913356  5.050628
H    -4.185623  -2.605382  2.621569
N    -0.205666  1.192572  5.825819
C    0.599273  0.668381  6.927960
H    -0.062343  2.182925  5.487663
H    0.898672  1.509803  7.558718
H    1.499105  0.173087  6.539327
H    0.020670  -0.052526  7.513770
Hg    -2.759596  -1.911040  4.645829
