36
Energy: -574590.010631 eV PBE+vdW (tier 2 basis)
C    -0.535626  -1.535133  -0.154836
C    -0.363421  -0.806635  1.126053
O    0.775602  -0.228873  1.326190
H    -0.835171  -0.816748  -0.935467
H    -1.280198  -2.334123  -0.088099
H    0.433680  -1.945001  -0.464510
N    -1.335701  -0.751488  2.048946
C    -2.756678  -0.515345  1.752417
C    -2.837981  0.925639  1.172120
O    -1.940243  1.746887  1.446890
H    -1.065086  -0.306904  2.929274
H    -3.079211  -1.255239  1.007642
C    -3.638142  -0.675076  3.015478
C    -3.765973  0.504005  4.010912
C    -2.754132  0.630118  5.161079
N    -1.425163  1.169245  4.794323
C    -1.152350  2.490674  4.546893
N    -2.042620  3.435312  4.842414
N    0.033669  2.778042  3.984715
H    -3.332195  -1.596665  3.534060
H    -4.651472  -0.881768  2.645884
H    -3.848401  1.460683  3.473672
H    -4.737494  0.373942  4.508781
H    -2.559685  -0.353449  5.607964
H    -3.199060  1.229006  5.971670
H    -0.634305  0.679435  5.208149
H    -1.931124  4.386773  4.507256
H    -2.787385  3.268400  5.511766
H    0.333017  3.750935  3.958847
N    -3.913941  1.202064  0.428508
C    -4.195467  2.509447  -0.164547
H    -4.578886  0.455184  0.246948
H    -5.095013  2.947626  0.285161
H    -4.353573  2.400577  -1.243618
H    -3.339360  3.164875  0.013103
Hg    0.596868  1.424820  2.567630
