36
Energy: -574588.271325 eV PBE+vdW (tier 2 basis)
C    -0.310598  -0.149418  -0.085946
C    -0.261266  -0.052296  1.411993
O    0.822487  0.275799  1.954754
H    -0.219812  0.861833  -0.506623
H    -1.235783  -0.609355  -0.451879
H    0.552891  -0.725929  -0.437628
N    -1.395254  -0.327984  2.098761
C    -1.572060  -0.133092  3.532875
C    -0.825328  -1.203391  4.370594
O    0.125598  -0.842626  5.123564
H    -2.216435  -0.559646  1.546808
H    -1.059386  0.803826  3.808148
C    -3.054899  0.021145  3.920527
C    -3.627529  1.387301  3.516467
C    -5.146939  1.514513  3.743623
N    -5.553473  1.597209  5.139543
C    -6.158683  0.574728  5.823463
N    -6.803834  0.885044  6.974185
N    -6.042665  -0.636711  5.309840
H    -3.137485  -0.114680  5.008072
H    -3.655032  -0.784346  3.474352
H    -3.461585  1.573587  2.443914
H    -3.101615  2.192241  4.052643
H    -5.675280  0.667163  3.292572
H    -5.495313  2.432411  3.248684
H    -5.534352  2.515648  5.574255
H    -7.178927  0.148109  7.558858
H    -7.034334  1.836827  7.238596
H    -6.553598  -1.330155  5.867161
N    -1.164989  -2.491373  4.354311
C    -2.294602  -3.161829  3.711996
H    -0.585717  -3.066912  4.967262
H    -2.044013  -4.223685  3.623937
H    -2.465087  -2.771938  2.704594
H    -3.210606  -3.068410  4.309973
Hg    1.561259  0.780672  4.185729
