36
Energy: -574587.675914 eV PBE+vdW (tier 2 basis)
C    0.428201  1.168323  0.355369
C    0.259151  0.398331  1.627128
O    1.276141  0.135501  2.323370
H    0.422018  2.246299  0.578916
H    -0.352454  0.938057  -0.377357
H    1.413003  0.938370  -0.067361
N    -0.963643  -0.035015  2.026686
C    -2.199059  0.750878  1.969100
C    -2.099345  1.776185  3.130480
O    -1.500622  1.469994  4.188723
H    -0.915963  -0.613598  2.867376
H    -2.246788  1.267444  0.999864
C    -3.395230  -0.213906  2.150556
C    -4.797259  0.360952  1.876828
C    -5.269194  0.296594  0.419880
N    -5.564340  -1.071372  0.012344
C    -5.749689  -1.509324  -1.269845
N    -5.740491  -0.618410  -2.288509
N    -5.870233  -2.783475  -1.604291
H    -3.359762  -0.594444  3.182290
H    -3.208388  -1.079524  1.496780
H    -4.874527  1.403983  2.214673
H    -5.527380  -0.176285  2.500866
H    -4.510425  0.702229  -0.272409
H    -6.172812  0.923004  0.305373
H    -5.767959  -1.750406  0.740682
H    -5.857321  -1.005824  -3.221111
H    -5.911318  0.372107  -2.164278
H    -5.929529  -3.413642  -0.795194
N    -2.689319  2.966884  2.971475
C    -2.703537  4.016795  3.989533
H    -3.197535  3.142128  2.109382
H    -2.644203  4.992996  3.497697
H    -1.848138  3.877736  4.656418
H    -3.625371  3.967623  4.584765
Hg    0.898946  0.498474  4.679087
