36
Energy: -574588.068756 eV PBE+vdW (tier 2 basis)
C    -1.755833  -2.875639  2.080120
C    -1.174507  -1.686465  2.790348
O    -0.152152  -1.148311  2.266649
H    -2.508571  -3.380642  2.695414
H    -0.950469  -3.572800  1.821333
H    -2.210355  -2.537973  1.138426
N    -1.766758  -1.289820  3.927036
C    -1.432308  -0.069977  4.646996
C    -0.064783  -0.168525  5.376274
O    0.879457  0.606490  5.027745
H    -2.654989  -1.793688  4.203983
H    -1.267596  0.739135  3.911989
C    -2.567884  0.403532  5.573957
C    -3.800435  0.957461  4.812268
C    -5.179788  0.449320  5.319783
N    -5.828121  -0.518391  4.435599
C    -5.279011  -1.712958  4.087571
N    -5.724344  -2.331483  2.970874
N    -4.266310  -2.267027  4.754487
H    -2.154593  1.186719  6.224426
H    -2.859454  -0.411675  6.247770
H    -3.729474  0.729467  3.739142
H    -3.791722  2.051730  4.883497
H    -5.880129  1.286318  5.407042
H    -5.090729  0.027927  6.334254
H    -6.640124  -0.190600  3.919405
H    -5.549914  -3.327156  2.889221
H    -6.487159  -1.956804  2.417843
H    -4.268269  -1.927163  5.721557
N    0.154383  -1.011521  6.379318
C    -0.757863  -1.925647  7.065613
H    1.096195  -0.938645  6.769585
H    -1.499423  -2.333632  6.374059
H    -1.252515  -1.429564  7.911187
H    -0.161970  -2.757768  7.455836
Hg    1.005042  0.814032  2.724480
