36
Energy: -574587.740292 eV PBE+vdW (tier 2 basis)
C    0.157037  1.146141  -0.134519
C    -0.070101  0.264564  1.051830
O    0.825657  -0.581000  1.319681
H    0.863863  1.945436  0.135259
H    -0.772875  1.575646  -0.544769
H    0.640874  0.555722  -0.923241
N    -1.193662  0.338622  1.805842
C    -1.821470  1.579305  2.266182
C    -1.015013  2.037835  3.515883
O    -0.337136  1.217031  4.180184
H    -1.229649  -0.391797  2.520239
H    -1.729464  2.330749  1.469831
C    -3.298669  1.338912  2.650853
C    -4.209272  0.736693  1.568485
C    -4.842732  1.731053  0.571014
N    -3.901895  2.388510  -0.329753
C    -3.226526  1.807678  -1.366498
N    -3.501100  0.529245  -1.710322
N    -2.224390  2.399281  -2.004064
H    -3.722508  2.283016  3.024870
H    -3.301815  0.658130  3.517075
H    -5.054249  0.248088  2.073634
H    -3.679472  -0.063091  1.031379
H    -5.371643  2.525761  1.111579
H    -5.611399  1.204349  -0.019056
H    -3.782931  3.392783  -0.245571
H    -3.025932  0.181614  -2.538496
H    -4.369793  0.074292  -1.453835
H    -2.139600  3.395414  -1.768047
N    -1.113466  3.318337  3.881618
C    -0.468637  3.881732  5.068510
H    -1.755074  3.918835  3.370926
H    -0.253941  4.939023  4.885306
H    0.460156  3.338242  5.264867
H    -1.123597  3.791556  5.945759
Hg    1.224123  -0.816056  3.667364
