36
Energy: -574588.781452 eV PBE+vdW (tier 2 basis)
C    0.917809  -2.537728  3.592072
C    0.568477  -1.101140  3.784643
O    1.310991  -0.329486  4.536605
H    1.999640  -2.656754  3.458313
H    0.378459  -2.966937  2.743849
H    0.638350  -3.102726  4.497202
N    -0.433986  -0.560284  3.128229
C    -1.061661  0.662613  3.521033
C    -1.028715  1.013514  5.019070
O    -1.130547  0.113298  5.897703
H    -4.776965  -2.576344  -1.250593
H    -0.557589  1.476910  2.965508
C    -2.544193  0.634384  3.032014
C    -2.678506  0.555648  1.507667
C    -4.152809  0.488932  1.079457
N    -4.345676  0.516747  -0.375141
C    -4.584186  -0.532658  -1.173808
N    -5.019140  -0.327478  -2.425317
N    -4.398687  -1.786954  -0.740793
H    -3.044062  1.538179  3.411977
H    -3.034133  -0.223100  3.516109
H    -2.128285  -0.318825  1.131345
H    -2.211938  1.439179  1.044429
H    -4.709968  1.344800  1.485581
H    -4.648854  -0.407723  1.477038
H    -4.317647  1.426599  -0.824644
H    -5.408198  0.562774  -2.712171
H    -4.998742  -1.066422  -3.118212
H    -3.874348  -1.984965  0.100476
N    -0.966451  2.304746  5.369833
C    -0.830071  3.475890  4.508394
H    -1.056457  2.468692  6.371614
H    -0.017176  3.334300  3.782927
H    -0.574691  4.336039  5.133810
H    -1.761659  3.703983  3.973894
Hg    1.044348  -0.664836  6.709031
