36
Energy: -574588.442765 eV PBE+vdW (tier 2 basis)
C    0.019401  0.677901  -0.143323
C    0.332815  -0.102978  1.089439
O    1.546455  -0.431716  1.285966
H    -0.864213  1.310132  -0.029886
H    -0.108522  -0.001208  -0.999229
H    0.895331  1.298734  -0.372500
N    -0.584543  -0.410879  2.048581
C    -1.918767  -1.044561  1.983638
C    -1.747119  -2.509423  2.450902
O    -0.732517  -3.244649  2.034836
H    -0.129409  -0.580025  2.946897
H    -2.543566  -0.541876  2.733229
C    -2.595931  -0.967594  0.601095
C    -3.991178  -1.607510  0.535594
C    -5.048065  -0.879482  1.381603
N    -6.329064  -1.583108  1.434345
C    -6.687866  -2.455966  2.387777
N    -7.961773  -2.870072  2.457820
N    -5.789753  -2.906132  3.272504
H    -1.959041  -1.463417  -0.144704
H    -2.672195  0.089765  0.312178
H    -3.940427  -2.664741  0.830574
H    -4.311620  -1.602253  -0.515533
H    -5.244549  0.121561  0.974778
H    -4.715076  -0.729702  2.417740
H    -6.989713  -1.420723  0.681209
H    -8.228015  -3.664206  3.027099
H    -8.703833  -2.388991  1.963777
H    -4.777550  -2.787707  3.147133
N    -2.703738  -3.057936  3.131241
C    -2.560557  -4.357149  3.751997
H    -6.104017  -3.387482  4.106220
H    -1.520048  -4.626528  3.968897
H    -2.992828  -5.132457  3.097714
H    -3.149880  -4.365067  4.680155
Hg    1.385531  -2.628936  2.051665
