36
Energy: -574590.686082 eV PBE+vdW (tier 2 basis)
C    -0.921433  -0.390380  -0.066504
C    -0.627355  -0.578893  1.389576
O    0.558082  -0.979234  1.656928
H    -1.927521  -0.004220  -0.260408
H    -0.793469  -1.350562  -0.584170
H    -0.180920  0.302126  -0.489164
N    -1.607378  -0.293754  2.256833
C    -1.699752  -0.283649  3.740522
C    -0.581246  0.591025  4.355486
O    0.553564  0.113400  4.590056
H    -2.462186  0.004420  1.794359
H    -2.658169  0.217130  3.936763
C    -1.782130  -1.694708  4.358805
C    -1.854016  -1.693139  5.905783
C    -0.900095  -2.685196  6.593465
N    0.486071  -2.396657  6.196947
C    1.417620  -3.288018  5.813538
N    1.485216  -4.487385  6.405101
N    2.263562  -2.940100  4.820699
H    -0.920842  -2.293945  4.022022
H    -2.659158  -2.196182  3.929766
H    -2.873256  -1.928846  6.236859
H    -1.644378  -0.688227  6.304669
H    -1.133974  -3.720496  6.307232
H    -1.019858  -2.604077  7.682889
H    0.678512  -1.428547  5.930422
H    2.043768  -5.238626  6.015106
H    1.109474  -4.627030  7.337634
H    3.101053  -3.501896  4.684444
N    -0.903480  1.855815  4.626008
C    0.018888  2.843437  5.187356
H    -1.854696  2.162242  4.441127
H    -0.303594  3.127944  6.196497
H    0.030979  3.735937  4.551154
H    1.019722  2.407797  5.231488
Hg    1.467134  -1.844214  3.300198
