36
Energy: -574590.172755 eV PBE+vdW (tier 2 basis)
C    1.153202  -0.545044  -0.057423
C    0.851197  -0.288751  1.379412
O    1.903977  -0.195670  2.150388
H    1.761085  0.276176  -0.459705
H    0.242206  -0.660948  -0.653049
H    1.756483  -1.460488  -0.135931
N    -0.394853  -0.204219  1.781116
C    -0.962004  -0.161526  3.125776
C    -2.413387  -0.703323  2.883911
O    -2.864735  -0.617208  1.741323
H    -1.180303  -0.316585  1.102354
H    -0.401780  -0.853044  3.777524
C    -0.989325  1.269101  3.733054
C    -0.904371  1.260991  5.264010
C    -0.601048  2.607766  5.920139
N    0.642428  3.329428  5.510268
C    1.914308  3.006191  5.846785
N    2.714583  3.951907  6.352086
N    2.386518  1.750091  5.668941
H    -1.893937  1.792702  3.391646
H    -0.159430  1.860395  3.303765
H    -0.175224  0.510845  5.612494
H    -1.866446  0.938309  5.689488
H    -0.584488  2.476813  7.011471
H    -1.407651  3.315484  5.693036
H    0.494879  4.331725  5.419185
H    3.725882  3.856247  6.345335
H    2.337556  4.784254  6.796598
H    3.258357  1.545678  6.156301
N    -3.074195  -1.171324  3.952207
C    -4.448024  -1.676696  3.873198
H    -2.564669  -1.322982  4.816143
H    -4.455417  -2.767502  3.752864
H    -4.940298  -1.220340  3.010288
H    -4.985886  -1.407971  4.788032
Hg    2.092427  0.733446  3.937367
