36
Energy: -574587.508336 eV PBE+vdW (tier 2 basis)
C    -1.702913  0.461544  -0.441129
C    -0.485233  0.333717  0.417092
O    0.648488  0.542684  -0.106244
H    -2.166361  -0.528331  -0.579611
H    -1.408719  0.837199  -1.425349
H    -2.443988  1.133168  0.006824
N    -0.555297  0.012319  1.732698
C    -1.449332  -0.987164  2.342975
C    -1.146561  -2.345233  1.661375
O    -0.083386  -2.530956  1.008864
H    0.340466  0.114720  2.207136
H    -1.063099  -1.089516  3.369697
C    -2.937630  -0.556494  2.436195
C    -3.570082  -0.611668  3.841147
C    -3.693115  -1.970392  4.536136
N    -4.467504  -2.923816  3.752048
C    -4.808497  -4.203821  4.151906
N    -4.262488  -4.707609  5.280025
N    -5.628760  -4.816829  3.323735
H    -3.542880  -1.103751  1.698733
H    -2.992199  0.493922  2.127771
H    -4.572370  -0.162482  3.771902
H    -3.005344  0.044243  4.519456
H    -4.168982  -1.809050  5.521536
H    -2.701287  -2.412942  4.739024
H    -5.150295  -2.563190  3.084250
H    -4.494929  -5.652493  5.566622
H    -3.754485  -4.143150  5.952461
H    -5.901878  -5.753644  3.643637
N    -2.024846  -3.335656  1.801183
C    -1.816478  -4.680908  1.259179
H    -2.914959  -3.148195  2.267013
H    -0.857327  -5.085344  1.601636
H    -1.820396  -4.662117  0.162360
H    -2.632879  -5.319760  1.606897
Hg    2.043418  -1.302917  0.348279
