36
Energy: -574590.559239 eV PBE+vdW (tier 2 basis)
C    0.060355  -0.985157  0.635384
C    -0.027626  -0.339660  1.985339
O    0.927020  0.317837  2.453281
H    0.193884  -0.198655  -0.120015
H    -0.813701  -1.590068  0.372299
H    0.959903  -1.613098  0.598309
N    -1.182175  -0.514407  2.678365
C    -1.516396  -0.016734  4.022788
C    -1.826589  1.498546  3.944025
O    -0.955795  2.436560  3.815754
H    -1.905338  -1.060413  2.220222
H    -2.472152  -0.507263  4.247215
C    -0.551109  -0.379113  5.192820
C    0.296794  -1.662242  5.053561
C    1.739358  -1.511923  5.577968
N    2.435711  -0.451134  4.832520
C    3.124711  0.588720  5.342847
N    3.905834  0.417592  6.416493
N    2.991262  1.792260  4.743931
H    -1.170706  -0.432206  6.097887
H    0.128206  0.466483  5.384503
H    0.341297  -1.990424  4.006342
H    -0.172275  -2.490462  5.599894
H    2.263306  -2.471364  5.467607
H    1.749053  -1.248519  6.644925
H    2.148401  -0.336431  3.856622
H    4.280427  1.207985  6.929966
H    4.273776  -0.500170  6.646455
H    3.665179  2.522593  4.963114
N    -3.097284  1.856756  3.960739
C    -3.572321  3.240906  3.849968
H    -3.797339  1.122802  4.027716
H    -4.637899  3.258374  4.091664
H    -3.421093  3.613959  2.829301
H    -3.023859  3.880051  4.550116
Hg    1.092179  2.199023  4.114075
