36
Energy: -574588.430121 eV PBE+vdW (tier 2 basis)
C    -0.357627  -0.011134  -0.057318
C    -0.262503  0.156157  1.433032
O    0.724705  0.793834  1.884317
H    -0.362976  0.982936  -0.523971
H    -1.251656  -0.562475  -0.369293
H    0.541369  -0.529475  -0.414491
N    -1.247435  -0.381847  2.184434
C    -1.510263  -0.160884  3.611550
C    -0.782734  -1.238684  4.450369
O    0.418365  -1.083264  4.818022
H    -1.958181  -0.897989  1.672230
H    -1.034548  0.793006  3.889942
C    -3.020093  -0.049077  3.876707
C    -3.641802  1.219378  3.275534
C    -5.178026  1.274199  3.387467
N    -5.690039  1.487276  4.734695
C    -6.263827  0.505042  5.499571
N    -7.019322  0.894758  6.555465
N    -6.012668  -0.744834  5.154335
H    -3.179415  -0.062366  4.963983
H    -3.546368  -0.934086  3.479739
H    -3.409672  1.289115  2.201855
H    -3.201914  2.112974  3.744581
H    -5.623575  0.349597  3.003233
H    -5.540891  2.106083  2.767478
H    -5.779449  2.449310  5.049324
H    -7.380265  0.204033  7.202057
H    -7.347728  1.846691  6.677272
H    -6.515130  -1.406637  5.755854
N    -1.427541  -2.354174  4.761500
C    -0.822542  -3.461097  5.510173
H    -2.411058  -2.422888  4.516519
H    -1.467100  -4.338348  5.411369
H    -0.720738  -3.198497  6.570675
H    0.169212  -3.684687  5.103216
Hg    1.678357  0.723261  4.026751
