36
Energy: -574588.437851 eV PBE+vdW (tier 2 basis)
C    0.807684  0.985695  -0.128217
C    0.834485  0.597615  1.321726
O    1.985307  0.491710  1.849625
H    -0.201078  0.986851  -0.555241
H    1.437462  0.283167  -0.690924
H    1.261062  1.979599  -0.240112
N    -0.345555  0.392782  1.934451
C    -0.719909  -0.275564  3.203035
C    -0.706113  0.617757  4.450742
O    0.299956  1.301277  4.871546
H    -1.142028  0.602846  1.340142
H    -1.780674  -0.502838  3.050309
C    -0.011299  -1.629336  3.464267
C    -0.707858  -2.830015  2.802833
C    -2.115908  -3.145232  3.346873
N    -3.211428  -2.459824  2.655334
C    -4.201620  -1.745817  3.292374
N    -5.423038  -1.760360  2.705688
N    -3.898668  -1.072182  4.385253
H    0.016132  -1.796427  4.551672
H    1.035347  -1.597761  3.128185
H    -0.078372  -3.712179  2.981609
H    -0.742565  -2.707500  1.709308
H    -2.198504  -2.906223  4.414349
H    -2.287810  -4.228381  3.249142
H    -3.461737  -2.843392  1.747320
H    -6.151482  -1.134457  3.028244
H    -5.716184  -2.514904  2.094674
H    -4.738589  -0.669934  4.810912
N    -1.818783  0.615874  5.147525
C    -1.983734  1.281701  6.438140
H    -2.614612  -0.006151  4.797311
H    -2.814341  0.802332  6.964714
H    -2.216839  2.344755  6.293504
H    -1.068693  1.200770  7.034649
Hg    2.304615  0.852539  4.047329
