36
Energy: -574587.586857 eV PBE+vdW (tier 2 basis)
C    0.027299  0.027281  0.366263
C    0.044417  0.200626  1.851595
O    1.118579  0.572272  2.397799
H    0.868684  0.589722  -0.052703
H    -0.906467  0.367699  -0.090205
H    0.189418  -1.033088  0.121919
N    -1.067717  0.051178  2.636779
C    -2.029229  -1.057240  2.606652
C    -1.228571  -2.337503  2.996246
O    0.005225  -2.366848  2.777794
H    -0.876204  0.374001  3.586355
H    -2.739677  -0.830291  3.415814
C    -2.813881  -1.240298  1.290484
C    -3.598140  0.002463  0.833334
C    -4.959914  0.238329  1.533399
N    -5.981912  -0.723604  1.176472
C    -6.811577  -0.715413  0.087493
N    -6.750837  0.288403  -0.812878
N    -7.616202  -1.766897  0.040427
H    -3.495363  -2.093736  1.419288
H    -2.125812  -1.551244  0.495276
H    -3.767388  -0.073103  -0.249963
H    -2.998172  0.910862  0.989815
H    -5.315818  1.252915  1.295766
H    -4.856022  0.209988  2.626457
H    -6.181794  -1.514241  1.784605
H    -7.417422  0.310711  -1.576496
H    -6.181431  1.117430  -0.685878
H    -8.245059  -1.755858  -0.772075
N    -1.853768  -3.380265  3.555996
C    -3.271855  -3.577753  3.831043
H    -1.229397  -4.157290  3.777242
H    -3.772142  -2.619749  4.009260
H    -3.373240  -4.186885  4.735525
H    -3.767861  -4.104045  3.002952
Hg    1.960362  -1.075591  3.922615
