36
Energy: -574588.030672 eV PBE+vdW (tier 2 basis)
C    -1.059653  2.568463  1.830411
C    -0.551693  1.193909  2.131731
O    0.642621  0.978856  2.478138
H    -1.985684  2.588145  1.249078
H    -0.287680  3.125502  1.288663
H    -1.244034  3.087454  2.783701
N    -1.340484  0.097847  2.048957
C    -2.660324  -0.078003  1.456962
C    -3.500417  -0.843393  2.546000
O    -3.262535  -2.032748  2.736652
H    -0.871789  -0.766186  2.335147
H    -3.103191  0.908780  1.274037
C    -2.602172  -0.905617  0.160419
C    -3.986540  -1.136768  -0.466346
C    -3.993975  -2.144586  -1.617495
N    -3.296876  -1.667700  -2.792956
C    -3.022074  -2.374678  -3.930573
N    -3.392745  -3.667312  -4.029444
N    -2.381853  -1.661686  -4.846819
H    -2.139683  -1.874655  0.400758
H    -1.928766  -0.386708  -0.538256
H    -4.427929  -0.186875  -0.808431
H    -4.674410  -1.539370  0.290686
H    -5.042445  -2.378512  -1.886112
H    -3.534929  -3.096335  -1.292033
H    -3.047747  -0.684385  -2.884938
H    -3.167244  -4.190780  -4.867717
H    -3.948186  -4.145381  -3.328832
H    -2.173508  -2.199244  -5.697746
N    -4.413751  -0.117259  3.212615
C    -5.291975  -0.698087  4.228499
H    -4.578697  0.842824  2.928928
H    -5.520038  0.066569  4.978121
H    -4.776825  -1.542005  4.698246
H    -6.230271  -1.057148  3.785021
Hg    2.107741  2.453242  3.744471
