36
Energy: -574589.56912 eV PBE+vdW (tier 2 basis)
C    0.431978  -0.860744  0.717113
C    -0.455854  -0.164141  1.695724
O    0.010732  0.913857  2.209001
H    0.660752  -0.177600  -0.111877
H    -0.009565  -1.781561  0.321172
H    1.385758  -1.096388  1.208995
N    -1.652420  -0.714808  1.972266
C    -2.624347  -0.220847  2.953856
C    -2.147482  -0.515905  4.395587
O    -1.625089  0.439675  5.010678
H    -1.856459  -1.586397  1.488055
H    -2.511898  0.863302  2.919485
C    -4.116168  -0.372995  2.579346
C    -4.671610  0.974429  2.058060
C    -5.303826  1.961763  3.070868
N    -4.662845  2.207452  4.385692
C    -3.548813  2.897087  4.697845
N    -3.162728  2.965228  5.974575
N    -2.760341  3.545710  3.786410
H    -4.684225  -0.718703  3.454045
H    -4.248712  -1.142370  1.806177
H    -5.479159  0.781454  1.337997
H    -3.888451  1.475851  1.467171
H    -6.300111  1.589884  3.336833
H    -5.474320  2.921483  2.561279
H    -5.268057  1.998068  5.175913
H    -2.442096  3.629709  6.234096
H    -3.548464  2.376142  6.703542
H    -3.254099  3.775145  2.921615
N    -2.269715  -1.733461  4.932224
C    -2.785016  -2.961530  4.333770
H    -1.877280  -1.811919  5.870715
H    -3.544050  -3.406922  4.987870
H    -1.973973  -3.687707  4.192776
H    -3.251765  -2.759620  3.365861
Hg    -1.110945  2.378171  3.262203
