36
Energy: -574589.756822 eV PBE+vdW (tier 2 basis)
C    0.353736  1.046637  1.356853
C    -0.436513  0.794263  2.585673
O    0.232357  0.784362  3.703293
H    0.877341  2.006091  1.436952
H    -0.260630  1.016716  0.452526
H    1.117388  0.255306  1.286450
N    -1.723001  0.413429  2.561584
C    -2.794915  1.033982  1.766948
C    -2.362980  2.505058  1.490363
O    -1.607324  3.052105  2.303400
H    -2.062738  0.017222  3.437105
H    -2.981431  0.457182  0.851817
C    -4.054771  1.116872  2.665620
C    -4.587326  -0.195290  3.283905
C    -5.029909  -0.028403  4.749937
N    -3.860023  0.135928  5.633773
C    -3.587706  1.141686  6.499852
N    -4.569787  1.890846  7.007179
N    -2.297194  1.372262  6.822532
H    -4.851558  1.595018  2.081707
H    -3.801802  1.833854  3.464206
H    -3.852211  -1.016280  3.230588
H    -5.447659  -0.563606  2.709875
H    -5.610181  -0.900939  5.078342
H    -5.671332  0.855883  4.853585
H    -3.250054  -0.673886  5.716916
H    -5.520671  1.539766  7.068974
H    -4.372953  2.769556  7.475800
H    -2.102653  1.924860  7.655672
N    -2.875481  3.117765  0.412939
C    -3.753928  2.564213  -0.618383
H    -2.615595  4.099202  0.334496
H    -3.331553  1.655404  -1.064702
H    -3.850883  3.307676  -1.414404
H    -4.760756  2.351820  -0.233910
Hg    -0.904983  1.113478  5.368472
