36
Energy: -574589.3473 eV PBE+vdW (tier 2 basis)
C    0.297411  -0.004107  1.049618
C    0.132081  0.161804  2.533452
O    0.993152  -0.103111  3.367685
H    1.351985  0.124342  0.787460
H    -0.320185  0.688215  0.464671
H    0.008481  -1.028234  0.770702
N    -1.093401  0.651180  2.970521
C    -1.426166  0.748150  4.364791
C    -0.199543  1.291273  5.249633
O    0.115278  0.668565  6.273420
H    -1.768638  0.988289  2.289915
H    -2.202125  1.522910  4.459874
C    -2.000564  -0.544119  4.995932
C    -1.181435  -1.827475  4.854171
C    -1.902256  -3.068721  5.404629
N    -2.062932  -3.110916  6.865462
C    -1.263914  -3.759171  7.724496
N    -1.685807  -3.994898  8.976052
N    -0.045214  -4.171936  7.352807
H    -2.979768  -0.681755  4.507788
H    -2.194727  -0.318080  6.053595
H    -0.200129  -1.703422  5.333892
H    -0.985557  -2.036899  3.793150
H    -1.372995  -3.980556  5.096988
H    -2.911459  -3.148813  4.977535
H    -2.897359  -2.688736  7.258571
H    -1.045863  -4.305657  9.697295
H    -2.668697  -3.957992  9.218260
H    0.386627  -3.848114  6.497443
N    0.258220  2.508184  4.947018
C    0.219410  3.270809  3.732747
H    0.466883  -4.850481  7.903789
H    1.034567  3.008120  3.044383
H    0.242916  4.342368  3.962626
H    -0.741831  3.080530  3.222019
Hg    1.799564  2.617314  6.551964
