36
Energy: -574589.950493 eV PBE+vdW (tier 2 basis)
C    -0.572509  0.412122  -0.581314
C    -0.546642  -0.161805  0.785371
O    0.593499  -0.660163  1.171805
H    0.092341  1.284099  -0.626283
H    -1.579616  0.686423  -0.906700
H    -0.166193  -0.344260  -1.270018
N    -1.636500  -0.290770  1.546023
C    -2.762516  0.649364  1.625834
C    -2.169292  2.088193  1.549281
O    -0.969694  2.254066  1.804747
H    -1.553810  -0.909480  2.351822
H    -3.450552  0.458269  0.791245
C    -3.514924  0.408112  2.963421
C    -3.043607  1.188091  4.208556
C    -1.631854  0.986893  4.770880
N    -1.455260  -0.342221  5.417329
C    -0.281239  -0.822211  5.902369
N    -0.275750  -1.466494  7.075618
N    0.867010  -0.674393  5.211670
H    -3.536858  -0.677811  3.151544
H    -4.565852  0.679392  2.801290
H    -3.776277  0.999356  5.009589
H    -3.127411  2.266416  4.009467
H    -1.442543  1.767826  5.522663
H    -0.881504  1.133009  3.983100
H    -2.272869  -0.653089  5.939372
H    0.496782  -2.065733  7.349508
H    -1.012243  -1.330486  7.761220
H    1.728971  -0.895206  5.705902
N    -3.004252  3.091606  1.233596
C    -4.435386  3.046417  0.937501
H    -2.562090  4.009387  1.252383
H    -4.683713  3.896921  0.295029
H    -5.043876  3.115006  1.849805
H    -4.702019  2.134504  0.391963
Hg    0.858461  -0.707872  3.190591
