36
Energy: -574588.883077 eV PBE+vdW (tier 2 basis)
C    0.414861  0.017166  1.324671
C    -0.201435  0.536517  2.602207
O    0.190718  1.818489  2.766271
H    0.073339  -1.008799  1.157817
H    1.509205  0.047403  1.394631
H    0.124614  0.653786  0.478736
N    -0.963732  -0.242294  3.298776
C    -1.792207  0.180505  4.416798
C    -1.044368  0.133904  5.771672
O    -0.728385  1.238206  6.368297
H    -5.895460  -2.786968  -0.198489
H    -2.113683  1.245351  4.346824
C    -3.117960  -0.615841  4.418634
C    -4.011170  -0.222072  3.234748
C    -5.323768  -1.019928  3.232279
N    -6.263244  -0.612996  2.180799
C    -6.481885  -1.235735  1.014048
N    -7.567281  -0.925620  0.290911
N    -5.632711  -2.166487  0.557997
H    -3.645874  -0.428945  5.367063
H    -2.895175  -1.688927  4.367489
H    -3.462661  -0.381289  2.293816
H    -4.247679  0.852780  3.284246
H    -5.849259  -0.891704  4.188988
H    -5.139684  -2.098887  3.132035
H    -6.835662  0.204266  2.368369
H    -7.653277  -1.207854  -0.678455
H    -8.352825  -0.432494  0.698515
H    -4.706373  -2.275974  0.947851
N    -0.694755  -0.990401  6.369843
C    -0.875855  -2.374321  5.927598
H    -0.203545  -0.852087  7.254631
H    -1.806043  -2.798398  6.326449
H    -0.034226  -2.957394  6.315544
H    -0.861018  -2.422903  4.835241
Hg    -0.142260  2.544098  4.695354
