36
Energy: -574589.006138 eV PBE+vdW (tier 2 basis)
C    0.594863  -1.021137  0.580265
C    0.161772  -0.300466  1.819486
O    0.975776  0.527928  2.336177
H    0.879919  -0.275218  -0.174400
H    -0.184537  -1.669862  0.165535
H    1.493676  -1.612240  0.798909
N    -1.066985  -0.554732  2.306220
C    -1.821740  0.215039  3.310070
C    -1.771751  -0.403138  4.718770
O    -0.604413  -0.602994  5.302019
H    -1.587056  -1.277225  1.815808
H    -1.306367  1.187890  3.396731
C    -3.242095  0.516018  2.815860
C    -4.112786  -0.712220  2.481578
C    -5.568374  -0.482703  2.926388
N    -6.385169  -1.695568  2.941039
C    -6.439066  -2.553757  3.970562
N    -7.369298  -3.519054  3.985543
N    -5.569377  -2.445543  4.984023
H    -3.172215  1.187330  1.949674
H    -3.716216  1.102111  3.617253
H    -3.727737  -1.605482  2.994224
H    -4.093198  -0.932055  1.404768
H    -6.069790  0.238803  2.269658
H    -5.587500  -0.048771  3.936713
H    -6.953198  -1.904137  2.126762
H    -7.333684  -4.277493  4.655760
H    -8.167049  -3.495451  3.361597
H    -5.718626  -2.963002  5.841382
N    -2.845521  -0.754179  5.346737
C    -2.838640  -1.060017  6.767121
H    -4.745634  -1.842454  4.932279
H    -3.839481  -0.853354  7.169962
H    -2.093406  -0.481715  7.327516
H    -2.629886  -2.129978  6.927582
Hg    1.076542  0.573904  4.610900
