36
Energy: -574588.42113 eV PBE+vdW (tier 2 basis)
C    0.216320  -0.538366  0.889475
C    -0.226526  -0.051569  2.232963
O    0.573769  0.541685  2.992697
H    0.312680  -1.635244  0.903708
H    1.201782  -0.116862  0.671516
H    -0.489343  -0.260824  0.098292
N    -1.515333  -0.234329  2.669648
C    -2.351298  -1.428107  2.522882
C    -1.626578  -2.652879  3.128840
O    -0.477953  -2.545957  3.747883
H    -1.673931  0.272094  3.539707
H    -3.216102  -1.239649  3.178710
C    -2.882361  -1.712178  1.101266
C    -3.623914  -0.531216  0.451147
C    -5.108957  -0.380181  0.796988
N    -5.916856  -1.403060  0.114096
C    -7.235808  -1.588579  0.285763
N    -7.855102  -2.597618  -0.342574
N    -7.930393  -0.791749  1.107384
H    -3.526874  -2.599658  1.180137
H    -2.049986  -2.019306  0.457401
H    -3.527356  -0.600181  -0.643498
H    -3.129463  0.413180  0.718268
H    -5.440581  0.623935  0.486819
H    -5.276507  -0.472302  1.881678
H    -5.496290  -1.849681  -0.695328
H    -8.866000  -2.649519  -0.389325
H    -7.336345  -3.316915  -0.831307
H    -7.566462  0.104454  1.405295
N    -2.073041  -3.835726  2.910700
C    -1.876276  -5.057349  3.615848
H    -8.897857  -0.991265  1.334034
H    -1.101506  -5.655730  3.108067
H    -2.800059  -5.655812  3.540765
H    -1.618692  -4.909593  4.673228
Hg    0.652004  -0.962099  4.973710
