36
Energy: -574589.520986 eV PBE+vdW (tier 2 basis)
C    -1.493607  2.026609  -1.878507
C    -1.343325  0.600761  -1.433626
O    -0.975251  -0.314983  -2.126932
H    -0.804239  2.690988  -1.338594
H    -2.518758  2.392881  -1.723967
H    -1.263395  2.077904  -2.946229
N    -1.619154  0.272319  -0.039283
C    -2.474632  1.044530  0.868184
C    -1.732657  2.340962  1.215534
O    -0.470319  2.311488  1.466526
H    -1.821964  -0.728067  -0.026641
H    -3.442823  1.277232  0.405206
C    -2.704053  0.282528  2.232952
C    -2.538182  -1.251984  2.232384
C    -2.161298  -1.847903  3.592289
N    -0.863364  -1.423379  4.210302
C    0.394885  -1.768507  3.796725
N    1.204176  -2.391212  4.661804
N    0.830687  -1.453866  2.564221
H    -3.709305  0.542523  2.588516
H    -2.021567  0.705176  2.990536
H    -1.786859  -1.605815  1.513878
H    -3.476336  -1.737111  1.927914
H    -2.172199  -2.943803  3.502534
H    -2.915169  -1.579439  4.342653
H    -0.936420  -1.401451  5.225069
H    2.210693  -2.420607  4.526068
H    0.834859  -2.912978  5.451320
H    1.700594  -1.895920  2.270812
N    -2.360979  3.494868  1.301468
C    -3.777512  3.775007  1.024295
H    -1.775735  4.285035  1.576579
H    -3.969432  4.814293  1.304090
H    -4.433674  3.133506  1.622497
H    -4.002688  3.658165  -0.042916
Hg    0.300715  0.352328  1.729497
