36
Energy: -574588.017428 eV PBE+vdW (tier 2 basis)
C    -1.368671  0.918540  -0.264004
C    -0.992344  0.308682  1.056496
O    -0.041748  -0.522248  1.079006
H    -2.315997  1.468050  -0.237310
H    -1.427691  0.124444  -1.018757
H    -0.562699  1.596163  -0.579422
N    -1.714000  0.681877  2.132688
C    -1.751621  0.138713  3.501977
C    -0.683344  0.778122  4.402277
O    0.503103  0.990411  4.018614
H    -2.416861  1.389454  1.940775
H    -2.730695  0.459961  3.882292
C    -1.718974  -1.404900  3.607747
C    -2.840428  -2.099973  2.825594
C    -2.792987  -3.631191  3.007582
N    -3.831630  -4.338592  2.274269
C    -3.748966  -4.713416  0.963311
N    -4.789264  -5.379937  0.410012
N    -2.735296  -4.450432  0.150663
H    -1.804693  -1.645490  4.678940
H    -0.743064  -1.792007  3.284463
H    -2.762415  -1.869939  1.752794
H    -3.821898  -1.727048  3.156680
H    -2.916630  -3.894715  4.066788
H    -1.810748  -4.026556  2.708274
H    -4.706247  -4.504407  2.764749
H    -4.691731  -5.656978  -0.561900
H    -5.559354  -5.766942  0.943636
H    -1.930873  -4.051627  0.645402
N    -1.021325  1.140707  5.641161
C    -2.348993  1.178967  6.258960
H    -0.245650  1.525980  6.181482
H    -2.997632  1.921542  5.775172
H    -2.222910  1.470874  7.305282
H    -2.827274  0.192217  6.238601
Hg    1.749772  -0.393544  2.604265
