36
Energy: -574589.183159 eV PBE+vdW (tier 2 basis)
C    -0.956320  0.624366  2.962877
C    -0.362778  -0.766517  2.824132
O    0.877491  -0.863854  3.004047
H    -1.012368  1.071062  1.959521
H    -0.272458  1.232508  3.561074
H    -1.952234  0.623362  3.410989
N    -1.104995  -1.877436  2.593388
C    -2.184898  -2.136800  1.659534
C    -1.569806  -2.406252  0.232755
O    -0.515109  -3.077764  0.112021
H    -4.615493  -3.314440  7.130979
H    -2.576674  -3.128317  1.949079
C    -3.382902  -1.161177  1.690741
C    -4.129628  -1.084457  3.036557
C    -4.978910  -2.327362  3.359622
N    -5.951587  -2.098016  4.434082
C    -5.844506  -2.470885  5.718204
N    -6.931930  -2.468702  6.499995
N    -4.666432  -2.856663  6.228405
H    -4.109601  -1.498676  0.934518
H    -3.070367  -0.151609  1.396147
H    -4.800816  -0.214609  2.989581
H    -3.428589  -0.886589  3.860426
H    -4.366178  -3.196340  3.635438
H    -5.558210  -2.628556  2.474915
H    -6.814617  -1.630029  4.173940
H    -6.856329  -2.512368  7.509846
H    -7.866659  -2.433749  6.109915
H    -3.792123  -2.621947  5.778249
N    -2.202514  -1.957518  -0.847429
C    -1.731546  -2.221214  -2.211410
H    -3.057654  -1.426935  -0.734516
H    -0.668799  -1.968675  -2.294048
H    -2.311018  -1.604060  -2.902855
H    -1.863671  -3.279784  -2.466586
Hg    0.729274  -3.138330  2.180777
