36
Energy: -574589.904887 eV PBE+vdW (tier 2 basis)
C    0.520321  -1.362120  0.702125
C    0.247309  -0.392749  1.812537
O    0.943494  -0.345813  2.838007
H    -0.114761  -1.222538  -0.179389
H    0.372141  -2.379966  1.089145
H    1.575053  -1.283185  0.411867
N    -0.822598  0.456961  1.642038
C    -1.387200  1.321595  2.689037
C    -0.411430  2.478590  3.014626
O    -0.689241  3.743584  2.777786
H    -1.330441  0.400302  0.766115
H    -2.264687  1.790007  2.213668
C    -1.864017  0.476984  3.904005
C    -2.659201  1.113296  5.060325
C    -4.153245  1.445689  4.838546
N    -4.322508  2.848696  4.424805
C    -5.131377  3.373989  3.468183
N    -6.301738  2.809588  3.170515
N    -4.651539  4.450900  2.811772
H    -0.978141  -0.003076  4.338442
H    -2.456680  -0.343192  3.471701
H    -2.142802  1.998253  5.469781
H    -2.624363  0.380425  5.877904
H    -4.708032  1.267451  5.770120
H    -4.594021  0.804740  4.062729
H    -3.851887  3.536171  5.009029
H    -6.814277  3.062186  2.330926
H    -6.783854  2.224555  3.847042
H    -5.274996  5.041605  2.263896
N    0.764465  2.182578  3.488674
C    1.825091  3.140024  3.799354
H    0.974603  1.138145  3.458211
H    2.414024  3.354684  2.897364
H    2.479729  2.690352  4.551409
H    1.400059  4.073983  4.178331
Hg    -2.630776  4.306063  2.634810
