36
Energy: -574587.817466 eV PBE+vdW (tier 2 basis)
C    -2.053951  0.411089  0.794848
C    -1.342129  0.286245  2.114028
O    -0.086344  0.169473  2.085667
H    -2.858239  1.156164  0.842354
H    -2.490520  -0.567733  0.534641
H    -1.339761  0.693035  0.016373
N    -2.108049  0.313151  3.222939
C    -1.721015  0.045723  4.618971
C    -0.664857  1.063630  5.116055
O    0.555986  0.775647  5.288155
H    -3.116625  0.294771  3.045053
H    -2.625048  0.290480  5.195089
C    -1.361099  -1.435249  4.900048
C    -2.434934  -2.234251  5.663235
C    -3.836559  -2.310710  5.028065
N    -3.834666  -2.863527  3.681918
C    -4.192505  -2.224487  2.525978
N    -4.895849  -1.030966  2.639154
N    -3.825448  -2.591982  1.328632
H    -0.445852  -1.482116  5.506354
H    -1.134368  -1.931749  3.945804
H    -2.566108  -1.821691  6.675264
H    -2.050523  -3.253887  5.813138
H    -4.311169  -1.322840  4.994346
H    -4.474017  -2.937248  5.672976
H    -3.420385  -3.785291  3.560686
H    -5.240435  -0.734677  1.725804
H    -5.636588  -1.008891  3.338185
H    -3.345302  -3.497383  1.293923
N    -1.071746  2.287929  5.448387
C    -2.434464  2.817168  5.516730
H    -0.320390  2.896577  5.777400
H    -2.368104  3.880933  5.761886
H    -3.017466  2.324270  6.307013
H    -2.943946  2.719184  4.551261
Hg    1.641424  -0.345397  3.582301
