36
Energy: -574587.909296 eV PBE+vdW (tier 2 basis)
C    -1.162001  -0.863747  -0.579955
C    -0.964272  -1.007205  0.903763
O    -0.002856  -1.717384  1.301627
H    -2.127047  -0.422005  -0.851923
H    -1.063580  -1.850146  -1.049359
H    -0.350897  -0.238869  -0.980120
N    -1.849623  -0.370094  1.700571
C    -2.058548  -0.415448  3.158318
C    -1.119556  0.551483  3.900089
O    0.114048  0.637071  3.641078
H    -2.523818  0.198023  1.196955
H    -3.079967  -0.034827  3.288141
C    -1.995858  -1.823196  3.801858
C    -2.912252  -2.898981  3.200047
C    -4.409850  -2.729115  3.531959
N    -5.226715  -3.850563  3.094918
C    -5.418922  -5.004094  3.806500
N    -6.207194  -5.967955  3.274674
N    -4.878680  -5.290362  4.980262
H    -2.226062  -1.689246  4.870832
H    -0.964831  -2.200733  3.765921
H    -2.581263  -3.869807  3.596667
H    -2.778127  -2.962184  2.110503
H    -4.828658  -1.833302  3.052156
H    -4.549208  -2.589869  4.614828
H    -5.607423  -3.803598  2.154125
H    -6.333154  -6.811774  3.825584
H    -6.784349  -5.840133  2.451484
H    -4.363435  -4.503429  5.386846
N    -1.625642  1.338773  4.851433
C    -3.026346  1.548295  5.223011
H    -0.928209  1.921807  5.315652
H    -3.048917  2.242713  6.067506
H    -3.498167  0.611341  5.544553
H    -3.599945  1.997518  4.401340
Hg    1.495724  -1.156671  3.020348
