36
Energy: -574588.12011 eV PBE+vdW (tier 2 basis)
C    -0.524016  -0.813568  -0.082601
C    -0.368371  -0.422236  1.358101
O    0.780747  -0.305690  1.842848
H    -1.546272  -1.120613  -0.331782
H    0.173991  -1.626338  -0.312992
H    -0.244092  0.044470  -0.710497
N    -1.497334  -0.216816  2.084486
C    -1.502756  0.306303  3.442997
C    -0.851107  -0.682314  4.444242
O    0.116559  -0.312338  5.157710
H    -2.384498  -0.282396  1.591434
H    -0.852986  1.196737  3.479387
C    -2.937882  0.704598  3.847389
C    -3.125998  1.196555  5.291754
C    -2.484384  2.567905  5.601114
N    -2.785869  3.039609  6.945251
C    -3.922168  3.670908  7.369370
N    -4.879451  4.024910  6.482535
N    -4.178511  3.953799  8.638044
H    -3.604202  -0.160046  3.697299
H    -3.277092  1.476575  3.138631
H    -2.741396  0.457009  6.009965
H    -4.207065  1.259916  5.478873
H    -2.807361  3.324063  4.867689
H    -1.390046  2.516642  5.527569
H    -2.121116  2.818414  7.679722
H    -5.673154  4.535091  6.859650
H    -4.763499  3.994361  5.478157
H    -3.409492  3.701261  9.270667
N    -1.369699  -1.904054  4.545520
C    -0.872645  -2.940834  5.448626
H    -2.194137  -2.120731  3.989936
H    -1.455913  -2.957016  6.379165
H    -0.964184  -3.913638  4.954276
H    0.173996  -2.733729  5.689091
Hg    1.844109  0.742930  3.789694
