36
Energy: -574589.163111 eV PBE+vdW (tier 2 basis)
C    0.150861  0.958239  1.477855
C    1.182810  -0.061756  1.929478
O    2.389133  0.207818  1.720267
H    -0.624801  1.117555  2.231821
H    -0.314018  0.599881  0.548814
H    0.667071  1.897441  1.264916
N    0.842248  -1.180656  2.612807
C    -0.214552  -2.157903  2.425675
C    0.247425  -3.164002  1.308479
O    1.411771  -3.623924  1.325947
H    -7.170946  0.329074  3.221349
H    -0.192518  -2.765879  3.347141
C    -1.656981  -1.596331  2.332617
C    -2.716114  -2.605824  2.813849
C    -4.152256  -2.069422  2.848568
N    -4.358167  -1.123066  3.955168
C    -5.431322  -0.323304  4.094705
N    -5.483760  0.543718  5.114978
N    -6.430340  -0.363114  3.205854
H    -1.890480  -1.234348  1.319726
H    -1.692432  -0.711310  2.982094
H    -2.446230  -2.980517  3.815082
H    -2.733805  -3.502174  2.177649
H    -4.842209  -2.922321  2.952682
H    -4.387852  -1.552193  1.906145
H    -3.798980  -1.271917  4.790315
H    -6.345713  1.016171  5.362195
H    -4.673642  0.736705  5.691062
H    -6.554840  -1.150563  2.582124
N    -0.613297  -3.539733  0.362826
C    -0.264923  -4.500664  -0.689012
H    -1.545172  -3.144956  0.360784
H    -1.084554  -4.538051  -1.411250
H    -0.107450  -5.498249  -0.261608
H    0.655267  -4.186409  -1.194162
Hg    2.899438  -2.059548  2.518145
