36
Energy: -574587.715349 eV PBE+vdW (tier 2 basis)
C    0.631139  0.493378  0.742998
C    0.188268  0.294815  2.158227
O    1.050210  0.065164  3.047733
H    0.914166  1.546593  0.592380
H    -0.142948  0.212179  0.021017
H    1.533608  -0.104095  0.569639
N    -1.127157  0.338553  2.495083
C    -2.086307  1.330451  2.000781
C    -1.788792  2.615838  2.817410
O    -1.423361  2.499665  4.014718
H    -1.281451  0.120871  3.481328
H    -1.907983  1.485913  0.929766
C    -3.512620  0.787827  2.241410
C    -4.657892  1.675641  1.736434
C    -6.050493  1.102783  2.026614
N    -6.350714  -0.083114  1.235980
C    -7.324211  -1.004987  1.508982
N    -8.136974  -0.831177  2.573958
N    -7.496224  -2.121327  0.817433
H    -3.633129  0.622631  3.324455
H    -3.554538  -0.204093  1.767665
H    -4.562531  1.866316  0.655137
H    -4.624075  2.660026  2.224508
H    -6.808572  1.883316  1.831506
H    -6.133306  0.833823  3.092824
H    -5.915146  -0.170980  0.322271
H    -8.809522  -1.571392  2.754838
H    -8.251715  0.048723  3.061564
H    -6.886714  -2.183664  -0.007115
N    -1.915849  3.832342  2.270621
C    -2.392903  4.232901  0.951679
H    -1.669659  4.587644  2.913446
H    -1.710408  4.986201  0.539980
H    -3.396036  4.675632  1.015678
H    -2.423072  3.380827  0.267823
Hg    0.700168  1.344485  5.077932
