36
Energy: -574587.818017 eV PBE+vdW (tier 2 basis)
C    0.894670  1.833186  1.206795
C    0.582181  0.865390  2.313884
O    1.533885  0.554734  3.087937
H    1.323093  2.745881  1.640469
H    1.664217  1.396834  0.556342
H    0.007644  2.093410  0.616930
N    -0.684401  0.432357  2.407148
C    -1.247526  -0.595118  3.296575
C    -1.128562  -0.151476  4.782226
O    -0.272117  -0.615889  5.587356
H    -1.311280  0.733168  1.645862
H    -2.324811  -0.559642  3.085396
C    -0.779927  -2.052496  3.029717
C    -1.909416  -2.999132  2.556927
C    -2.013045  -3.229401  1.029158
N    -1.928286  -2.037659  0.191648
C    -2.695846  -0.912435  0.280360
N    -3.874567  -0.983350  0.965824
N    -2.290519  0.274859  -0.129388
H    -0.377185  -2.476077  3.962197
H    0.045701  -2.045500  2.304651
H    -2.868600  -2.651694  2.966373
H    -1.757781  -3.997382  2.988895
H    -2.946823  -3.778299  0.820281
H    -1.198953  -3.884461  0.697723
H    -1.121019  -1.961508  -0.418383
H    -4.474380  -0.171565  0.840650
H    -4.368824  -1.869868  1.004399
H    -1.489430  0.220204  -0.767613
N    -2.015492  0.727379  5.243488
C    -3.178988  1.300372  4.563203
H    -1.884149  0.973652  6.225583
H    -3.666654  1.987325  5.260477
H    -3.906060  0.524359  4.289480
H    -2.878581  1.869194  3.675259
Hg    1.865607  -0.998683  4.771409
