36
Energy: -574588.083888 eV PBE+vdW (tier 2 basis)
C    -1.165928  1.219833  0.163609
C    -1.211951  1.015559  1.641951
O    -0.155604  0.993408  2.352209
H    -0.564769  2.112004  -0.054563
H    -2.159617  1.318720  -0.284007
H    -0.647156  0.368548  -0.302393
N    -2.411942  0.860231  2.233662
C    -2.576821  0.687945  3.670513
C    -1.491713  -0.229590  4.267645
O    -1.154078  -1.290070  3.656677
H    -3.261633  1.092865  1.641746
H    -2.445830  1.676203  4.142714
C    -3.981344  0.166559  4.061898
C    -4.367725  -1.254993  3.589609
C    -5.561954  -1.310382  2.601478
N    -5.243748  -0.570437  1.394459
C    -5.647933  0.719984  1.096401
N    -6.942129  1.033280  1.306890
N    -4.686195  1.517489  0.682743
H    -4.716047  0.915358  3.728186
H    -4.028085  0.207809  5.158218
H    -4.655142  -1.865163  4.456787
H    -3.511825  -1.764828  3.124893
H    -6.463517  -0.883526  3.056516
H    -5.775047  -2.359294  2.351051
H    -4.392867  -0.842414  0.906781
H    -7.658086  0.314593  1.321998
H    -7.261740  1.986377  1.176911
H    -5.016461  2.445260  0.398871
N    -0.992068  0.073501  5.463348
C    -1.238102  1.258112  6.287860
H    -0.334866  -0.615954  5.828377
H    -0.541317  1.236185  7.130216
H    -2.260261  1.270117  6.685471
H    -1.050221  2.176807  5.714815
Hg    0.943956  -1.073003  2.563724
