36
Energy: -574587.958535 eV PBE+vdW (tier 2 basis)
C    -0.120355  0.489300  -0.355691
C    -0.061686  0.162440  1.102297
O    1.034405  -0.221046  1.599782
H    0.226266  1.522167  -0.513605
H    -1.126998  0.368823  -0.769804
H    0.580879  -0.162521  -0.890244
N    -1.161844  0.249495  1.887880
C    -2.143793  1.334531  1.852429
C    -1.568497  2.447721  2.761816
O    -0.728846  2.164937  3.657752
H    -0.996494  -0.085859  2.838632
H    -2.220436  1.696883  0.818364
C    -3.518648  0.840674  2.353308
C    -4.127786  -0.216316  1.424907
C    -5.341262  -0.960061  2.018504
N    -6.561259  -0.170918  2.116871
C    -7.076666  0.308706  3.292961
N    -8.364928  0.727256  3.296099
N    -6.252667  0.338448  4.325811
H    -4.193260  1.701282  2.457606
H    -3.396296  0.436144  3.370187
H    -3.379068  -0.992702  1.206619
H    -4.400603  0.232300  0.456920
H    -5.107338  -1.336075  3.020243
H    -5.568114  -1.821868  1.373901
H    -7.132337  -0.092859  1.278911
H    -8.752767  1.160031  4.125840
H    -9.020570  0.497624  2.556492
H    -6.709457  0.705442  5.168580
N    -1.984847  3.711136  2.623485
C    -3.044336  4.246420  1.776215
H    -1.546708  4.360025  3.279198
H    -3.986911  4.340924  2.333439
H    -3.205074  3.612122  0.899374
H    -2.745704  5.242515  1.430677
Hg    1.478733  0.827674  3.704582
