36
Energy: -574587.779095 eV PBE+vdW (tier 2 basis)
C    -1.008122  0.610429  -0.569716
C    -0.903993  0.155207  0.851168
O    0.022599  -0.621715  1.181103
H    -0.643638  1.646189  -0.657672
H    -2.046150  0.544693  -0.935433
H    -0.365457  -0.019424  -1.193268
N    -1.823998  0.550169  1.789157
C    -2.278240  1.940491  1.945394
C    -1.117356  2.687352  2.648244
O    -0.326379  2.054533  3.396843
H    -1.633468  0.123686  2.699111
H    -2.462902  2.361069  0.948780
C    -3.550955  2.035970  2.820971
C    -4.919920  1.810327  2.164939
C    -5.298818  0.357150  1.784293
N    -4.657732  -0.116782  0.579268
C    -5.017351  0.125499  -0.720045
N    -6.197645  0.720988  -0.993491
N    -4.097686  -0.246926  -1.597192
H    -3.577088  3.050257  3.245705
H    -3.424715  1.371017  3.690628
H    -5.040782  2.462925  1.286672
H    -5.678465  2.138497  2.890564
H    -6.390979  0.290659  1.671972
H    -5.033086  -0.333978  2.595115
H    -3.786874  -0.635180  0.653405
H    -6.479949  0.835830  -1.960433
H    -6.931797  0.820157  -0.300876
H    -4.385506  -0.078259  -2.568415
N    -0.979584  4.009390  2.501037
C    -1.893028  4.964021  1.881989
H    -0.190509  4.399176  3.020041
H    -2.487161  4.488175  1.095915
H    -1.304192  5.770465  1.431050
H    -2.569117  5.404973  2.628834
Hg    1.172866  -0.022316  3.244026
