36
Energy: -574588.712979 eV PBE+vdW (tier 2 basis)
C    0.567970  1.550027  1.701121
C    0.028144  0.988874  2.972097
O    0.831581  0.647148  3.945574
H    1.016699  0.736842  1.106432
H    1.366060  2.272884  1.909715
H    -0.221640  2.017366  1.107119
N    -1.270402  0.921305  3.177565
C    -1.852517  0.092633  4.185116
C    -1.097829  -1.206433  4.535404
O    -0.474190  -1.848949  3.647145
H    -5.987233  0.158206  -1.322878
H    -1.880345  0.702929  5.109743
C    -3.344446  -0.170515  3.825937
C    -3.543653  -0.906750  2.494892
C    -5.012947  -1.221559  2.180052
N    -5.861742  -0.051046  1.911039
C    -6.223069  0.404066  0.702532
N    -7.230748  1.282677  0.597685
N    -5.588324  -0.000782  -0.405259
H    -3.832043  0.814541  3.798381
H    -3.803655  -0.739826  4.648207
H    -3.010235  -1.868866  2.509096
H    -3.096120  -0.311840  1.683272
H    -5.477265  -1.759167  3.018945
H    -5.084730  -1.899299  1.318752
H    -6.282364  0.414043  2.708456
H    -7.398633  1.791742  -0.262103
H    -7.893378  1.422114  1.350988
H    -4.720618  -0.517852  -0.361165
N    -1.160150  -1.655171  5.795604
C    -1.783874  -1.024607  6.956660
H    -0.709415  -2.557568  5.939938
H    -1.428985  -1.533765  7.857232
H    -2.878617  -1.098123  6.927806
H    -1.491751  0.032257  7.032023
Hg    1.930918  -1.249187  3.627373
