36
Energy: -574590.389931 eV PBE+vdW (tier 2 basis)
C    0.161013  -0.765802  0.791167
C    -0.331800  -0.148426  2.067530
O    0.153890  0.833188  2.606925
H    -0.116978  -0.111031  -0.047085
H    -0.240241  -1.768207  0.602563
H    1.255992  -0.805132  0.813023
N    -1.439871  -0.777008  2.677531
C    -2.070995  -0.083057  3.772334
C    -1.437855  -0.437257  5.123621
O    -1.630589  0.305326  6.175212
H    -1.987100  -1.441971  2.137544
H    -1.778733  0.983087  3.648366
C    -3.610306  -0.241938  3.769331
C    -4.315402  0.640063  2.724709
C    -4.391150  2.145988  3.011008
N    -5.372529  2.510011  4.058617
C    -5.206259  3.400237  5.061480
N    -6.247692  4.155596  5.435713
N    -4.025946  3.530731  5.701063
H    -4.027592  -0.044755  4.772875
H    -3.854602  -1.298890  3.586120
H    -5.334254  0.255390  2.570954
H    -3.815804  0.527920  1.750898
H    -4.689267  2.665025  2.088314
H    -3.417462  2.573800  3.285784
H    -6.343087  2.340786  3.802786
H    -6.271659  4.615080  6.340274
H    -7.026209  4.335833  4.809459
H    -3.912207  4.359152  6.280881
N    -0.671142  -1.488752  5.214189
C    0.061266  -1.951591  6.393937
H    -0.543392  -1.984084  4.327468
H    1.137042  -1.917029  6.183787
H    -0.229362  -2.985158  6.614925
H    -0.170021  -1.311184  7.247432
Hg    -2.780182  1.969059  5.973578
