36
Energy: -574590.042739 eV PBE+vdW (tier 2 basis)
C    -1.818576  -1.575038  -0.098669
C    -1.170967  -1.270360  1.217848
O    0.010819  -1.549609  1.465919
H    -1.331838  -0.962117  -0.870406
H    -2.896076  -1.377941  -0.119190
H    -1.629399  -2.623298  -0.358346
N    -1.948294  -0.655530  2.173036
C    -1.378509  -0.037379  3.370501
C    -1.025019  -1.104833  4.451977
O    -1.429882  -1.145998  5.699988
H    -2.924910  -0.488292  1.958757
H    -0.386825  0.346074  3.072642
C    -2.218997  1.184331  3.789189
C    -3.759275  1.008458  3.892274
C    -4.497562  1.610475  5.118739
N    -3.950722  2.855139  5.680035
C    -3.508109  3.028862  6.946295
N    -3.582440  4.250981  7.491748
N    -2.990419  2.008836  7.656965
H    -2.006369  1.955752  3.036882
H    -1.783580  1.630078  4.701821
H    -4.037622  -0.056539  3.885361
H    -4.209657  1.436455  2.988080
H    -4.567268  0.886331  5.941053
H    -5.540143  1.805638  4.831947
H    -4.155929  3.709419  5.168545
H    -3.047047  4.495222  8.317987
H    -4.229343  4.950943  7.142838
H    -2.860568  2.163725  8.653693
N    -0.226645  -2.052537  4.048886
C    0.275181  -3.157426  4.862897
H    0.050956  -1.972404  3.023918
H    1.196356  -3.525111  4.402417
H    -0.460284  -3.972429  4.889393
H    0.474433  -2.823265  5.885925
Hg    -2.130424  0.420691  6.753730
