36
Energy: -574589.648766 eV PBE+vdW (tier 2 basis)
C    0.377336  -0.714346  0.156524
C    0.284805  -0.464063  1.620348
O    1.359282  -0.707265  2.355655
H    1.226025  -0.171182  -0.279667
H    0.595257  -1.785427  0.016184
H    -0.546518  -0.472220  -0.378320
N    -0.852751  -0.080799  2.150730
C    -1.333286  -0.117380  3.542726
C    -2.880829  -0.091705  3.328507
O    -3.288006  0.349147  2.243174
H    -1.694925  0.104335  1.550775
H    -0.994455  -1.067042  3.979970
C    -0.897638  1.019495  4.500811
C    -1.462924  2.441665  4.343898
C    -1.028661  3.286848  3.137877
N    0.427496  3.274169  2.888446
C    1.432865  3.599345  3.745177
N    1.255472  4.531993  4.680968
N    2.583183  2.904959  3.630541
H    0.203436  1.041560  4.551185
H    -1.185676  0.675577  5.503983
H    -1.211114  2.977976  5.270481
H    -2.562295  2.412345  4.320411
H    -1.402438  4.314990  3.254851
H    -1.479504  2.907109  2.213154
H    0.721946  3.094722  1.934058
H    0.540537  5.245771  4.573419
H    1.913579  4.650379  5.445224
H    3.438859  3.256895  4.056963
N    -3.690035  -0.496917  4.314060
C    -3.357813  -1.104736  5.600404
H    -4.679481  -0.400587  4.088715
H    -3.347933  -0.361610  6.409475
H    -2.389046  -1.613983  5.559253
H    -4.113876  -1.860779  5.837057
Hg    2.247092  0.994514  3.019015
