36
Energy: -574588.088164 eV PBE+vdW (tier 2 basis)
C    0.383259  0.523293  0.283285
C    -0.328160  0.576885  1.604375
O    -0.284572  1.666503  2.239756
H    -0.041785  1.293725  -0.374700
H    0.299384  -0.453541  -0.205989
H    1.440189  0.776196  0.435297
N    -0.975177  -0.534588  2.013330
C    -1.959868  -0.653805  3.097984
C    -1.256128  -1.112587  4.397294
O    -0.621338  -0.284432  5.122548
H    -0.890973  -1.337724  1.395190
H    -2.340407  0.359186  3.306217
C    -3.134925  -1.531868  2.643498
C    -4.335774  -1.501830  3.610595
C    -5.272838  -2.742424  3.516088
N    -5.132216  -3.675186  4.630877
C    -4.082520  -4.514512  4.889815
N    -3.182826  -4.761678  3.854482
N    -3.796828  -5.022002  6.054459
H    -2.779487  -2.561105  2.483581
H    -3.454624  -1.170959  1.655522
H    -4.931969  -0.602537  3.407052
H    -4.002316  -1.413702  4.654425
H    -5.130348  -3.271145  2.561877
H    -6.318890  -2.417728  3.526465
H    -5.787489  -3.561876  5.399842
H    -2.588596  -5.557261  4.090606
H    -3.595068  -4.873530  2.929048
H    -4.502910  -4.851940  6.778156
N    -1.298768  -2.388955  4.743110
C    -0.649364  -2.934495  5.939465
H    -1.830666  -3.049597  4.165831
H    0.408169  -3.149416  5.739116
H    -1.165781  -3.858325  6.217818
H    -0.714026  -2.211874  6.759040
Hg    -0.488770  1.946997  4.527629
