36
Energy: -574590.183865 eV PBE+vdW (tier 2 basis)
C    -1.049745  -0.534386  1.519472
C    -1.430254  0.220982  2.739511
O    -0.857999  -0.136358  3.846244
H    -0.174447  -0.046821  1.059205
H    -1.861106  -0.585124  0.786308
H    -0.735792  -1.544295  1.807463
N    -2.319093  1.216842  2.708008
C    -2.533609  2.145912  1.585195
C    -1.219275  2.948894  1.419311
O    -0.515120  3.166951  2.430103
H    -2.587857  1.608103  3.612380
H    -2.757498  1.552254  0.690443
C    -3.739715  3.087307  1.865213
C    -3.493513  4.461728  2.531004
C    -3.358604  4.579822  4.055686
N    -2.141459  3.935937  4.579422
C    -1.756779  3.954597  5.873326
N    -2.349323  4.759405  6.759366
N    -0.773541  3.108331  6.261376
H    -4.501961  2.511427  2.412878
H    -4.194419  3.295391  0.888243
H    -4.368615  5.078111  2.282067
H    -2.645991  4.974805  2.051440
H    -4.234198  4.141813  4.559095
H    -3.348941  5.658110  4.284602
H    -1.409896  3.715406  3.871953
H    -2.887571  5.566168  6.461302
H    -2.195080  4.654619  7.756514
H    -0.338418  3.238118  7.171441
N    -0.904020  3.413728  0.208042
C    -1.624598  3.222433  -1.054104
H    -0.054026  3.975837  0.185466
H    -2.602037  3.720766  -1.044277
H    -1.752672  2.157889  -1.287658
H    -1.028135  3.667761  -1.854897
Hg    -0.661251  1.389457  5.213347
