36
Energy: -574588.091406 eV PBE+vdW (tier 2 basis)
C    1.131592  0.969069  0.726183
C    0.588408  0.405675  2.009255
O    1.295929  -0.473808  2.579547
H    2.079793  1.480778  0.938599
H    0.441445  1.661262  0.231394
H    1.360575  0.138033  0.046105
N    -0.598225  0.881372  2.435593
C    -1.536110  0.452091  3.502931
C    -1.114712  1.018608  4.874529
O    -0.090024  0.626543  5.520871
H    -0.971644  1.617904  1.843964
H    -2.461433  0.971905  3.224596
C    -1.851590  -1.056971  3.484401
C    -3.068855  -1.538031  4.286533
C    -4.482269  -1.112313  3.791167
N    -4.954326  0.136986  4.376151
C    -4.785630  1.398898  3.880144
N    -4.610329  1.550704  2.529255
N    -4.637437  2.467656  4.636673
H    -0.985858  -1.645320  3.850485
H    -1.952555  -1.350223  2.428788
H    -2.971099  -1.276137  5.351377
H    -3.047309  -2.636056  4.253106
H    -5.195620  -1.894006  4.084233
H    -4.517906  -1.055789  2.696824
H    -5.158171  0.101566  5.372256
H    -4.680068  2.519907  2.226206
H    -5.071782  0.893367  1.906782
H    -4.898211  2.299249  5.614690
N    -1.854588  1.986041  5.389538
C    -1.553046  2.643063  6.665548
H    -2.716691  2.296013  4.897807
H    -2.344957  3.369475  6.866399
H    -0.590945  3.166048  6.606897
H    -1.504989  1.908324  7.478115
Hg    1.233160  -1.074415  4.777403
