36
Energy: -574588.709332 eV PBE+vdW (tier 2 basis)
C    1.368953  1.183758  1.666085
C    0.795965  0.440388  2.838796
O    1.309492  0.664996  3.996071
H    2.441037  1.352167  1.807350
H    0.883647  2.168704  1.590889
H    1.172389  0.637364  0.738262
N    -0.215260  -0.416966  2.601736
C    -0.933181  -0.839272  3.732885
C    -0.081328  -1.712577  4.772630
O    -0.085491  -1.397269  5.977863
H    -4.573404  -2.511371  -1.800366
H    -1.160181  0.037855  4.406146
C    -2.315204  -1.459483  3.431107
C    -2.416368  -2.553646  2.361219
C    -3.892646  -2.827061  2.026839
N    -4.098533  -3.928420  1.079335
C    -4.370982  -3.819222  -0.229368
N    -4.844903  -4.880167  -0.897664
N    -4.175764  -2.665326  -0.881300
H    -2.940120  -0.605677  3.122918
H    -2.742914  -1.814114  4.381312
H    -1.959972  -3.488960  2.714343
H    -1.871450  -2.246981  1.456121
H    -4.383307  -1.929384  1.624826
H    -4.446533  -3.089236  2.939213
H    -4.100518  -4.869089  1.461124
H    -4.859279  -4.901722  -1.910697
H    -5.249505  -5.673712  -0.414861
H    -3.625618  -1.916461  -0.482867
N    0.553275  -2.806225  4.350779
C    0.824930  -3.282360  2.998644
H    0.984596  -3.336448  5.108863
H    0.403408  -4.284116  2.854385
H    1.912939  -3.333930  2.859806
H    0.425720  -2.586012  2.256476
Hg    0.142698  1.067435  5.942381
