36
Energy: -574589.892407 eV PBE+vdW (tier 2 basis)
C    -0.967120  -2.068070  -0.615933
C    -0.608742  -2.343263  0.808173
O    0.271731  -3.292884  0.954460
H    -0.063847  -1.796358  -1.177563
H    -1.715260  -1.274350  -0.707207
H    -1.360265  -2.990647  -1.065832
N    -1.193852  -1.638970  1.755384
C    -1.369912  -1.787590  3.208313
C    -2.925729  -1.559474  3.348503
O    -3.472279  -0.895371  2.466382
H    -1.987662  -1.030903  1.446791
H    -1.099534  -2.805591  3.534275
C    -0.655618  -0.677409  4.018863
C    0.867490  -0.786696  4.202004
C    1.281942  -1.656670  5.408324
N    2.712035  -2.009045  5.388434
C    3.237683  -3.012207  4.675601
N    4.523160  -3.022646  4.333201
N    2.489286  -4.110767  4.262753
H    -1.138330  -0.621460  5.006435
H    -0.892246  0.277095  3.529060
H    1.283668  0.220643  4.340751
H    1.339075  -1.156112  3.273162
H    0.692895  -2.580611  5.473745
H    1.097542  -1.119655  6.346547
H    3.350737  -1.325528  5.793016
H    4.928817  -3.895228  4.005797
H    5.151749  -2.242574  4.504976
H    1.837753  -4.396059  5.000299
N    -3.521381  -2.063244  4.435940
C    -4.942787  -1.868249  4.735901
H    -2.975278  -2.621882  5.083093
H    -5.391056  -1.294441  3.920807
H    -5.059568  -1.316722  5.676323
H    -5.444856  -2.839148  4.817578
Hg    1.350414  -3.745873  2.608737
