36
Energy: -574588.760184 eV PBE+vdW (tier 2 basis)
C    1.637907  0.362238  1.286189
C    0.965743  -0.053065  2.584492
O    1.816875  -0.842226  3.263459
H    1.401895  1.412100  1.079030
H    1.263974  -0.268969  0.467207
H    2.722925  0.239774  1.341188
N    -0.230543  0.376192  2.816168
C    -1.325218  -0.025828  3.716297
C    -1.269156  0.386873  5.212251
O    -0.583369  -0.223967  6.123745
H    -0.814553  1.792954  -0.466945
H    -2.179027  0.553163  3.338259
C    -1.754650  -1.513881  3.595580
C    -1.774031  -2.077654  2.163558
C    -2.667172  -1.367987  1.138760
N    -2.073908  -0.112143  0.661158
C    -2.426541  0.516154  -0.463608
N    -3.486552  0.115189  -1.178435
N    -1.706058  1.568565  -0.888378
H    -2.753409  -1.605276  4.049659
H    -1.103214  -2.172900  4.193621
H    -2.138159  -3.111429  2.237229
H    -0.752522  -2.153613  1.762960
H    -3.665231  -1.179612  1.571233
H    -2.797677  -2.043670  0.280462
H    -1.318487  0.294836  1.244727
H    -3.678422  0.497059  -2.096883
H    -4.129532  -0.583121  -0.829197
H    -2.011623  2.144093  -1.663254
N    -2.031561  1.378128  5.640234
C    -2.969332  2.223759  4.894005
H    -1.967071  1.547962  6.645862
H    -2.513846  2.587166  3.967141
H    -3.202835  3.088706  5.521844
H    -3.904028  1.689330  4.681441
Hg    1.098918  -1.129244  5.172774
