36
Energy: -574587.626487 eV PBE+vdW (tier 2 basis)
C    0.041961  -0.539028  2.182330
C    -0.457078  0.076178  3.445381
O    0.363487  0.188645  4.401865
H    0.773510  0.122668  1.697613
H    -0.777631  -0.804417  1.481977
H    0.577274  -1.465209  2.437174
N    -1.744510  0.457141  3.598904
C    -2.516610  1.241346  2.631104
C    -2.248264  2.723994  2.996975
O    -1.835339  3.034981  4.146603
H    -1.971314  0.721212  4.560007
H    -2.122666  1.032377  1.628172
C    -4.015970  0.886700  2.726230
C    -4.319350  -0.592304  2.420801
C    -4.839114  -0.910969  1.004899
N    -4.061407  -0.379029  -0.119500
C    -2.835817  -0.822891  -0.516874
N    -2.269543  -0.261503  -1.618312
N    -2.100400  -1.722865  0.126151
H    -4.589893  1.549301  2.063989
H    -4.350291  1.129106  3.745806
H    -5.102387  -0.946660  3.104697
H    -3.436897  -1.204183  2.659374
H    -5.845749  -0.492417  0.885476
H    -4.944873  -2.001880  0.898259
H    -4.566296  0.232977  -0.754772
H    -1.428439  -0.716112  -1.962039
H    -2.812994  0.256005  -2.301078
H    -2.634396  -2.179105  0.873521
N    -2.492133  3.688233  2.104472
C    -3.109742  3.587527  0.787514
H    -2.299194  4.629087  2.452477
H    -2.915367  2.604613  0.343678
H    -2.672638  4.355312  0.139705
H    -4.194351  3.756626  0.842473
Hg    0.046051  2.164833  5.658819
