36
Energy: -574587.475577 eV PBE+vdW (tier 2 basis)
C    -0.617185  1.197793  0.368421
C    -0.328835  0.370053  1.602957
O    0.858551  0.038734  1.803184
H    -1.345621  1.993891  0.540841
H    -1.015979  0.520575  -0.402424
H    0.323601  1.612994  -0.002598
N    -1.301975  0.024160  2.521845
C    -2.607867  -0.573534  2.216721
C    -2.427854  -2.031550  1.674602
O    -1.548753  -2.795825  2.164974
H    -1.533790  1.639980  3.884813
H    -3.061357  -0.740396  3.208805
C    -3.613582  0.309559  1.436000
C    -3.763515  1.730836  1.998094
C    -4.213300  1.826988  3.469628
N    -3.859846  3.108094  4.090434
C    -2.583503  3.522454  4.322972
N    -1.632830  2.365642  4.635624
N    -1.995159  4.631075  4.442132
H    -4.592337  -0.193600  1.484140
H    -3.342493  0.380609  0.374144
H    -2.810653  2.269827  1.892740
H    -4.476712  2.278545  1.366725
H    -3.791670  1.014873  4.081854
H    -5.300000  1.714682  3.562135
H    -4.521743  3.869096  3.956967
H    -0.728642  2.839311  4.786283
H    -1.905795  1.898540  5.512227
H    -2.554735  5.465230  4.246822
N    -3.247077  -2.481871  0.734871
C    -3.215369  -3.859379  0.228175
H    -3.969304  -1.863554  0.381439
H    -3.654783  -4.547835  0.960809
H    -2.179870  -4.158509  0.035777
H    -3.790620  -3.898845  -0.700461
Hg    0.076610  -1.616393  3.392586
