36
Energy: -574587.952093 eV PBE+vdW (tier 2 basis)
C    -1.783839  1.882231  0.268989
C    -1.203011  1.327344  1.538942
O    0.032342  1.402024  1.725955
H    -1.537089  2.949570  0.199708
H    -2.869505  1.750019  0.198590
H    -1.302538  1.387423  -0.584433
N    -2.059775  0.757719  2.424218
C    -1.671839  0.236398  3.728696
C    -0.816381  -1.055722  3.621325
O    0.375052  -1.042673  4.043285
H    -3.045695  0.752466  2.179818
H    -0.973403  0.956948  4.184581
C    -2.873614  0.080059  4.684448
C    -3.236397  1.332710  5.506005
C    -3.826254  2.539394  4.770568
N    -5.096090  2.231875  4.142672
C    -5.914011  3.099830  3.464383
N    -5.515751  4.381816  3.286383
N    -7.025788  2.545777  3.019214
H    -2.626836  -0.710472  5.407079
H    -3.744110  -0.299277  4.127495
H    -2.345840  1.681759  6.048056
H    -3.946460  1.022716  6.287524
H    -3.131763  2.929929  4.003985
H    -3.957505  3.352067  5.509719
H    -5.574315  1.359610  4.360349
H    -4.755344  4.798871  3.812018
H    -6.137420  5.027122  2.811709
H    -7.632980  3.206150  2.519851
N    -1.300747  -2.196927  3.131341
C    -2.665573  -2.559046  2.754941
H    -0.618921  -2.957620  3.141292
H    -3.251128  -2.875779  3.628362
H    -2.607969  -3.399518  2.055707
H    -3.168585  -1.732014  2.246362
Hg    1.645365  0.872187  3.496485
