36
Energy: -574587.783863 eV PBE+vdW (tier 2 basis)
C    1.940455  2.604949  1.470596
C    1.515291  1.186963  1.273072
O    2.348939  0.364165  0.801676
H    1.411777  3.095472  2.292049
H    1.783832  3.164705  0.537030
H    3.019032  2.605863  1.669138
N    0.289073  0.713814  1.655652
C    -1.014939  1.290004  1.323074
C    -1.169363  1.042558  -0.214659
O    -0.167611  1.222849  -0.944469
H    0.278071  -0.308303  1.634797
H    -1.749022  0.668372  1.858029
C    -1.239190  2.759386  1.730598
C    -2.720948  3.155896  1.700688
C    -3.020779  4.481427  2.432790
N    -2.565259  5.682866  1.746913
C    -1.496047  6.441091  2.148843
N    -1.406778  7.707909  1.678774
N    -0.626871  5.854578  2.953871
H    -0.652556  3.431523  1.092086
H    -0.859047  2.874020  2.755479
H    -3.323090  2.392848  2.219980
H    -3.100581  3.210595  0.668798
H    -2.569559  4.474546  3.430797
H    -4.110204  4.573171  2.552592
H    -3.172301  6.063253  1.025043
H    -0.580502  8.262080  1.869823
H    -2.185148  8.189849  1.241141
H    0.131946  6.492273  3.221194
N    -2.353590  0.622607  -0.663393
C    -2.627907  0.280382  -2.057865
H    -3.102717  0.486000  0.010906
H    -3.644900  0.599262  -2.310726
H    -2.553353  -0.805299  -2.211955
H    -1.906941  0.792423  -2.700610
Hg    1.686707  -0.534818  -1.325116
