36
Energy: -574587.572478 eV PBE+vdW (tier 2 basis)
C    -0.202384  0.192944  0.066599
C    -0.168654  0.173832  1.562121
O    0.901209  0.505796  2.140905
H    0.006011  -0.816971  -0.316059
H    0.602914  0.847073  -0.285022
H    -1.159698  0.545661  -0.327977
N    -1.266653  -0.108836  2.328500
C    -2.188018  -1.238579  2.166725
C    -1.336064  -2.525491  2.395606
O    -0.109051  -2.486964  2.141620
H    -1.079170  0.101004  3.310168
H    -2.901004  -1.136920  2.998431
C    -2.996861  -1.289946  0.854725
C    -3.887743  -0.054946  0.660769
C    -4.615709  -0.011053  -0.700752
N    -5.645240  -1.027039  -0.882925
C    -6.928528  -0.986695  -0.413650
N    -7.361894  0.081763  0.292950
N    -7.800790  -1.972688  -0.569396
H    -3.618677  -2.196136  0.892917
H    -2.322050  -1.426837  -0.000971
H    -3.284814  0.862786  0.725415
H    -4.621144  0.008575  1.479255
H    -3.897077  -0.136601  -1.521331
H    -5.062453  0.985656  -0.842654
H    -5.432706  -1.818434  -1.481446
H    -8.341615  0.070982  0.562767
H    -6.865174  0.962623  0.342662
H    -7.441497  -2.735647  -1.156273
N    -1.912340  -3.637353  2.866318
C    -3.313875  -3.907247  3.166565
H    -1.257580  -4.409892  2.997934
H    -3.367964  -4.556497  4.047184
H    -3.804079  -4.421287  2.327655
H    -3.854770  -2.981850  3.388800
Hg    1.819948  -1.297576  3.429553
