36
Energy: -574590.177309 eV PBE+vdW (tier 2 basis)
C    -1.318702  2.275729  -0.969053
C    -0.919140  1.371548  0.148677
O    0.328522  1.502724  0.517491
H    -1.178885  3.321308  -0.663838
H    -2.357140  2.114073  -1.275047
H    -0.654888  2.098463  -1.826671
N    -1.798281  0.533825  0.645685
C    -1.695359  -0.569231  1.601127
C    -2.921080  -1.460624  1.187304
O    -3.836660  -0.905804  0.577376
H    -2.761620  0.497591  0.239152
H    -0.749415  -1.115069  1.443952
C    -1.825625  -0.088286  3.068583
C    -1.382214  -1.125535  4.115484
C    -0.853192  -0.508678  5.422891
N    0.346025  0.315958  5.179937
C    1.584160  -0.149916  4.900102
N    2.103741  -1.142028  5.628356
N    2.276838  0.410513  3.886171
H    -2.862293  0.230316  3.248053
H    -1.228510  0.835655  3.169445
H    -0.586600  -1.770580  3.702869
H    -2.216418  -1.794699  4.365836
H    -0.623671  -1.298513  6.147608
H    -1.596727  0.143103  5.897633
H    0.186269  1.284117  4.919479
H    1.765357  -1.323832  6.568901
H    2.939571  -1.636948  5.334580
H    3.287645  0.277672  3.866790
N    -2.905243  -2.744010  1.571001
C    -4.001511  -3.673356  1.282340
H    -2.057006  -3.125589  1.975166
H    -4.182660  -4.307397  2.156615
H    -3.756775  -4.304628  0.418834
H    -4.900325  -3.093370  1.057360
Hg    1.297130  0.909638  2.184388
