36
Energy: -574590.179507 eV PBE+vdW (tier 2 basis)
C    0.386237  0.992260  -0.203357
C    -0.207537  0.560394  1.105409
O    0.354499  -0.293705  1.817164
H    -0.252482  1.668226  -0.781766
H    0.612534  0.102947  -0.804732
H    1.344800  1.490758  -0.003116
N    -1.384099  1.143541  1.464253
C    -2.180434  0.935842  2.682373
C    -1.428018  1.478713  3.927524
O    -0.532794  0.852713  4.602565
H    -1.750899  1.837139  0.820409
H    -3.023045  1.623935  2.540543
C    -2.839066  -0.467507  2.915590
C    -3.042807  -1.399693  1.700502
C    -2.020911  -2.538127  1.499222
N    -2.028291  -3.542523  2.577963
C    -1.136462  -3.663630  3.574225
N    -1.436872  -4.375394  4.663807
N    0.123052  -3.094806  3.552149
H    -3.819681  -0.249023  3.358220
H    -2.322228  -1.020060  3.717162
H    -3.062609  -0.821022  0.765995
H    -4.043934  -1.845857  1.781736
H    -1.003982  -2.148761  1.389426
H    -2.258402  -3.066389  0.566916
H    -2.833345  -4.167035  2.596268
H    -0.676815  -4.659239  5.274470
H    -2.357177  -4.767151  4.836241
H    0.477976  -3.034282  2.592487
N    -1.724966  2.705489  4.316743
C    -1.082684  3.391753  5.444298
H    -2.437155  3.212522  3.798837
H    -1.548027  4.373774  5.557632
H    -0.009864  3.512133  5.252213
H    -1.219011  2.811880  6.364482
Hg    0.016929  -1.111549  4.123631
