36
Energy: -574588.916274 eV PBE+vdW (tier 2 basis)
C    2.330591  -2.172429  1.927206
C    1.559221  -1.043329  2.582995
O    1.888326  0.102454  1.983238
H    1.688246  -2.677548  1.192814
H    2.636280  -2.884832  2.703263
H    3.219924  -1.801589  1.410411
N    0.736583  -1.330998  3.548587
C    -0.312417  -0.450530  4.077103
C    0.144510  0.435219  5.262373
O    0.539123  1.650159  5.093039
H    0.164677  -3.338040  3.520162
H    -0.677270  0.281148  3.321904
C    -1.523093  -1.335413  4.437548
C    -2.089815  -2.031095  3.191773
C    -2.861672  -3.321593  3.469253
N    -2.172919  -4.343077  4.297302
C    -1.013389  -4.981771  4.040957
N    -0.888572  -6.265636  4.411267
N    0.016980  -4.357731  3.455888
H    -2.300620  -0.733374  4.928590
H    -1.190487  -2.099061  5.161048
H    -1.283486  -2.234183  2.474843
H    -2.785012  -1.358301  2.668926
H    -3.161789  -3.775620  2.513473
H    -3.781823  -3.097332  4.022684
H    -2.791898  -4.845568  4.926448
H    0.020295  -6.706509  4.496521
H    -1.700443  -6.851925  4.568789
H    0.804633  -4.911292  3.139027
N    0.112533  -0.044752  6.489158
C    0.529618  0.692891  7.685774
H    -0.278654  -0.974275  6.614542
H    -0.289572  1.326187  8.049650
H    1.389132  1.325651  7.445078
H    0.803196  -0.028938  8.460314
Hg    1.248176  1.795139  3.036017
