36
Energy: -574588.051972 eV PBE+vdW (tier 2 basis)
C    0.655197  1.336504  0.396820
C    0.617145  0.476883  1.624972
O    1.695607  -0.064835  2.004620
H    1.439506  2.094847  0.523753
H    -0.298757  1.835172  0.192685
H    0.944142  0.719576  -0.464288
N    -0.557566  0.344291  2.267474
C    -0.779697  -0.175795  3.622658
C    -1.204820  -1.662146  3.547448
O    -0.572732  -2.408830  2.732892
H    -1.353719  0.796536  1.827098
H    0.217373  -0.228420  4.095699
C    -1.596446  0.846514  4.434443
C    -2.938516  1.287864  3.829938
C    -3.803858  1.996016  4.892650
N    -5.103209  2.425960  4.401458
C    -6.190337  1.599023  4.338131
N    -7.390768  2.148258  4.034690
N    -5.976118  0.314922  4.574666
H    -0.948305  1.724601  4.569811
H    -1.743649  0.442360  5.444208
H    -3.512185  0.433971  3.440079
H    -2.781596  1.981088  2.988943
H    -3.287696  2.889933  5.267682
H    -3.964902  1.322189  5.743889
H    -5.217398  3.402876  4.151005
H    -8.205994  1.556520  3.930653
H    -7.549892  3.149687  4.007666
H    -6.844177  -0.227461  4.511444
N    -2.134302  -2.261288  4.294860
C    -3.139422  -1.798118  5.256783
H    -2.144565  -3.266224  4.110951
H    -3.669644  -2.686219  5.611651
H    -3.877748  -1.122595  4.806638
H    -2.666752  -1.320604  6.122262
Hg    1.766551  -2.310824  2.586198
