36
Energy: -574589.742085 eV PBE+vdW (tier 2 basis)
C    -0.247891  -0.220089  -1.064122
C    0.077837  -0.213763  0.386049
O    1.338602  -0.305561  0.696978
H    0.456335  0.439611  -1.587976
H    -1.274763  0.097147  -1.268176
H    -0.089869  -1.231152  -1.467690
N    -0.837339  -0.122382  1.338781
C    -2.300655  -0.139375  1.367500
C    -2.616471  0.555592  2.718323
O    -1.745550  0.513939  3.621395
H    -0.532728  0.079899  2.310516
H    -2.706545  0.451776  0.536269
C    -2.905138  -1.574506  1.299531
C    -2.250870  -2.744266  2.066377
C    -2.232386  -2.749760  3.616358
N    -1.036874  -2.100372  4.176262
C    0.177312  -2.634943  4.261204
N    0.413857  -3.932234  4.073398
N    1.338332  -1.862774  4.487460
H    -2.914738  -1.865729  0.239343
H    -3.962794  -1.496863  1.590006
H    -1.227379  -2.916571  1.695975
H    -2.814509  -3.635464  1.755407
H    -2.292769  -3.780537  3.990146
H    -3.102842  -2.232384  4.038283
H    -1.116062  -1.072026  4.233973
H    1.345340  -4.278069  4.286173
H    -0.322239  -4.613055  3.917361
H    1.165312  -1.112089  5.166387
N    -3.796860  1.146494  2.884409
C    -4.845830  1.380636  1.886011
H    -3.924481  1.568184  3.803667
H    -5.176482  0.447354  1.416019
H    -4.513559  2.088858  1.115767
H    -5.706876  1.816863  2.399506
Hg    1.666978  -0.947301  2.661530
