36
Energy: -574590.30996 eV PBE+vdW (tier 2 basis)
C    -1.053896  1.081448  0.861331
C    -0.693536  0.590988  2.228388
O    0.547152  0.642308  2.534976
H    -0.536982  0.470003  0.109787
H    -0.676981  2.107433  0.747902
H    -2.131010  1.071989  0.664433
N    -1.690520  0.171877  3.021086
C    -1.748123  -0.178355  4.462054
C    -0.805151  0.719666  5.292441
O    0.354819  0.344276  5.581641
H    -2.600057  0.193129  2.566563
H    -2.772313  0.095302  4.743750
C    -1.588268  -1.687057  4.818584
C    -0.714658  -2.564999  3.903561
C    0.183835  -3.600129  4.608518
N    0.994662  -3.140248  5.756501
C    2.287994  -2.747117  5.727183
N    3.077414  -3.061462  6.766298
N    2.784243  -2.064065  4.681058
H    -2.593758  -2.121863  4.867288
H    -1.195592  -1.707390  5.844183
H    -0.106608  -1.954952  3.214976
H    -1.350698  -3.138833  3.214283
H    0.855747  -4.056657  3.869689
H    -0.444009  -4.407816  5.004788
H    0.662973  -3.434407  6.669559
H    3.947788  -2.568425  6.933970
H    2.868168  -3.845713  7.375413
H    3.799159  -2.014605  4.625901
N    -1.279626  1.889342  5.729267
C    -2.613007  2.469410  5.549724
H    -0.613405  2.418353  6.291088
H    -2.876294  2.551323  4.488227
H    -2.599208  3.480253  5.966770
H    -3.380387  1.894965  6.085351
Hg    1.685132  -0.592973  3.788467
