36
Energy: -574588.054241 eV PBE+vdW (tier 2 basis)
C    -1.049451  1.081072  0.136467
C    -1.115371  1.199307  1.632135
O    -0.864505  2.334050  2.129771
H    -1.785751  1.768562  -0.301402
H    -1.256013  0.064785  -0.213557
H    -0.059555  1.403743  -0.209270
N    -1.438754  0.103239  2.344612
C    -1.749986  0.101549  3.767161
C    -0.473049  0.175697  4.644928
O    -0.270753  1.207156  5.377661
H    -1.601321  -0.775254  1.841000
H    -2.258294  1.059191  3.976408
C    -2.805385  -0.956288  4.174128
C    -2.497170  -2.460941  4.218438
C    -2.522031  -3.285090  2.919805
N    -1.583342  -2.894391  1.845543
C    -0.214463  -2.945926  2.005661
N    0.548230  -2.611898  0.934275
N    0.404641  -3.151987  3.156090
H    -3.683120  -0.767925  3.535403
H    -3.118849  -0.665043  5.187131
H    -3.290797  -2.909169  4.834938
H    -1.582312  -2.639689  4.799121
H    -3.520725  -3.213871  2.470173
H    -2.375668  -4.345860  3.179613
H    -1.931282  -3.099159  0.909483
H    1.541433  -2.811226  1.012147
H    0.168094  -2.573334  -0.005271
H    -0.191155  -3.683932  3.797238
N    0.403524  -0.807323  4.677725
C    1.643641  -0.762162  5.454530
H    0.288860  -1.673167  4.079268
H    2.304945  -1.541256  5.064395
H    1.438698  -0.963327  6.514662
H    2.115148  0.223536  5.372185
Hg    -0.911591  3.107421  4.333827
