36
Energy: -574588.91053 eV PBE+vdW (tier 2 basis)
C    0.317290  0.001768  1.244715
C    -0.368656  -0.325622  2.513002
O    -0.045573  0.425081  3.538305
H    0.227471  1.076296  1.038817
H    -0.002086  -0.627418  0.412928
H    1.389614  -0.205756  1.397015
N    -1.273853  -1.294239  2.692602
C    -2.006772  -2.193093  1.774867
C    -1.018435  -3.241347  1.155247
O    0.131757  -2.897497  0.910771
H    -1.391215  -1.546494  3.672627
H    -2.709044  -2.714955  2.443436
C    -2.810534  -1.476399  0.670687
C    -3.719254  -0.288213  1.045105
C    -4.883606  -0.526400  2.039740
N    -4.523528  -0.232946  3.442031
C    -4.337216  0.982170  3.970047
N    -4.679386  2.089269  3.320647
N    -3.684268  1.198558  5.197004
H    -3.418585  -2.254882  0.186552
H    -2.121805  -1.127877  -0.111379
H    -3.113054  0.563882  1.392968
H    -4.168872  0.054160  0.102278
H    -5.240778  -1.563227  2.015059
H    -5.754887  0.086596  1.768605
H    -4.273765  -1.015685  4.037860
H    -4.593585  2.973573  3.815405
H    -5.165928  2.086438  2.429137
H    -3.967372  0.532248  5.923810
N    -1.551691  -4.451838  0.905691
C    -0.804954  -5.531637  0.257919
H    -2.506094  -4.645734  1.189568
H    -0.676144  -6.373717  0.948566
H    0.177336  -5.145899  -0.027444
H    -1.338004  -5.874025  -0.636691
Hg    -1.692360  0.873642  4.722353
