36
Energy: -574588.067361 eV PBE+vdW (tier 2 basis)
C    -0.081323  0.604155  -0.099291
C    0.008975  0.347190  1.370585
O    1.146803  0.188492  1.899071
H    -0.970682  0.133515  -0.539319
H    0.825724  0.222322  -0.580768
H    -0.103198  1.690471  -0.280778
N    -1.105044  0.257358  2.132385
C    -2.274503  1.127034  2.037280
C    -2.022471  2.289139  3.038937
O    -1.127910  2.209384  3.919261
H    -0.909706  -0.022760  3.095188
H    -2.312647  1.544350  1.021441
C    -3.569011  0.349745  2.361242
C    -3.868702  -0.810444  1.401546
C    -4.431476  -0.352214  0.039845
N    -4.717534  -1.462244  -0.851929
C    -3.829282  -1.955978  -1.767010
N    -4.245078  -2.945164  -2.590294
N    -2.618862  -1.416957  -1.771636
H    -4.416153  1.051907  2.386217
H    -3.483845  -0.044288  3.385502
H    -4.594922  -1.477956  1.885461
H    -2.961239  -1.406822  1.225632
H    -3.729088  0.309077  -0.480563
H    -5.374347  0.194192  0.187423
H    -5.620035  -1.920107  -0.756624
H    -3.602239  -3.354327  -3.257407
H    -5.208565  -3.259399  -2.637059
H    -2.021930  -1.854992  -2.482127
N    -2.815924  3.359488  2.956637
C    -2.725554  4.517195  3.845499
H    -3.592744  3.334844  2.300915
H    -1.690008  4.637072  4.176757
H    -3.365245  4.379071  4.727976
H    -3.052650  5.407436  3.299446
Hg    1.290287  1.301490  4.004603
