36
Energy: -574589.69639 eV PBE+vdW (tier 2 basis)
C    -0.357653  -0.657933  0.823732
C    -0.208079  -0.206692  2.263150
O    0.777109  -0.607137  2.924030
H    0.263663  0.002832  0.201684
H    -1.393210  -0.618623  0.473725
H    0.041324  -1.672296  0.727435
N    -1.144188  0.576881  2.837164
C    -1.982161  1.590312  2.289643
C    -1.519232  3.006056  2.836613
O    -0.909996  3.154400  3.915596
H    -5.226823  -2.308398  3.885581
H    -1.853383  1.644753  1.193730
C    -3.469745  1.375553  2.657165
C    -4.069417  0.099210  2.051823
C    -5.551053  -0.057778  2.430816
N    -6.215672  -1.185989  1.767825
C    -6.562266  -2.358502  2.319547
N    -7.440226  -3.151450  1.689901
N    -6.044376  -2.752521  3.490605
H    -4.050436  2.250507  2.328558
H    -3.545096  1.350245  3.755886
H    -3.497068  -0.781078  2.382461
H    -3.987694  0.133719  0.953696
H    -6.110587  0.846614  2.152287
H    -5.680340  -0.167471  3.516400
H    -6.503718  -1.043412  0.804566
H    -7.556645  -4.123087  1.953431
H    -8.042641  -2.798653  0.955583
H    -6.452375  -3.521073  4.009692
N    -1.860286  4.048189  2.082167
C    -1.582640  5.439209  2.452965
H    -2.356477  3.874079  1.213749
H    -0.559252  5.521444  2.833616
H    -2.279112  5.782729  3.227972
H    -1.693117  6.063489  1.562240
Hg    0.037308  1.023054  4.670525
