36
Energy: -574590.600081 eV PBE+vdW (tier 2 basis)
C    0.170776  2.078378  0.591267
C    -0.187368  0.968202  1.535218
O    0.618750  0.052256  1.786511
H    -0.648151  2.779094  0.396980
H    0.510642  1.644566  -0.357486
H    1.022759  2.631283  1.009785
N    -1.426678  1.015157  2.095660
C    -2.013157  0.083271  3.067581
C    -1.185866  0.069906  4.375896
O    -0.162419  -0.669634  4.600844
H    -2.008358  1.806408  1.839768
H    -2.960286  0.567967  3.334285
C    -2.406473  -1.352383  2.570638
C    -2.461211  -1.616663  1.054036
C    -1.231104  -2.268172  0.401491
N    -0.992389  -3.659045  0.837592
C    0.188912  -4.199251  1.219241
N    0.426801  -5.486027  0.916147
N    1.105916  -3.491318  1.897467
H    -3.399391  -1.544104  2.997185
H    -1.781519  -2.125106  3.052990
H    -2.661824  -0.684886  0.506998
H    -3.333439  -2.255571  0.855600
H    -0.314047  -1.693860  0.572076
H    -1.385438  -2.284559  -0.687556
H    -1.685745  -4.334853  0.525975
H    1.142663  -6.018125  1.398634
H    -0.047382  -5.946794  0.146686
H    2.028828  -3.911095  1.973735
N    -1.562621  0.891755  5.337979
C    -0.867429  1.032600  6.622906
H    -2.387451  1.464039  5.180866
H    -1.372764  1.808578  7.202736
H    0.177658  1.318168  6.456546
H    -0.897401  0.085232  7.174237
Hg    0.592710  -1.980599  3.164439
