36
Energy: -574589.020877 eV PBE+vdW (tier 2 basis)
C    -1.104783  1.075478  -1.585567
C    -0.646781  0.584482  -0.224493
O    0.222464  -0.315761  -0.207643
H    -1.060419  2.166968  -1.662675
H    -2.141109  0.752915  -1.756543
H    -0.468059  0.621911  -2.348796
N    -1.070814  1.146119  0.949341
C    -2.417982  1.471268  1.390758
C    -3.152910  0.182485  1.915510
O    -2.515779  -0.738468  2.487137
H    -0.502134  3.521985  0.924893
H    -2.264335  2.043829  2.323437
C    -3.242094  2.388378  0.443527
C    -3.932327  3.545653  1.182418
C    -2.978566  4.635776  1.691567
N    -2.321685  5.398409  0.618412
C    -1.007039  5.453739  0.351685
N    -0.512835  6.516269  -0.297986
N    -0.177519  4.462110  0.713882
H    -3.967799  1.809495  -0.143608
H    -2.569315  2.818779  -0.307770
H    -4.502091  3.183190  2.052119
H    -4.673125  4.004786  0.511233
H    -2.193983  4.231276  2.345216
H    -3.540991  5.353252  2.304449
H    -2.897085  6.090450  0.145605
H    0.403358  6.492819  -0.731285
H    -1.019622  7.393321  -0.342394
H    0.824411  4.614180  0.717039
N    -4.476876  0.116730  1.824496
C    -5.259412  -0.994652  2.379255
H    -4.977603  0.863558  1.358284
H    -5.132042  -1.044394  3.467038
H    -4.931051  -1.943771  1.940433
H    -6.312731  -0.827176  2.141076
Hg    -0.153856  -0.526656  2.184613
