36
Energy: -574590.035449 eV PBE+vdW (tier 2 basis)
C    -0.433612  1.226319  0.186260
C    -1.263938  1.119197  1.456419
O    -1.086871  2.013104  2.287510
H    -0.880634  1.910291  -0.545564
H    0.571504  1.568393  0.448175
H    -1.358163  3.984919  1.752006
N    -2.135671  0.088913  1.754569
C    -3.087220  -0.726684  0.953838
C    -2.598389  -2.149427  0.555802
O    -1.682894  -2.412276  -0.288781
H    -2.413857  0.171021  2.731847
H    -3.902175  -0.914807  1.666885
C    -3.734131  0.036993  -0.225509
C    -4.778808  1.093942  0.229974
C    -4.531705  2.553260  -0.165189
N    -3.456442  3.152844  0.633484
C    -2.857384  4.336507  0.400164
N    -3.283783  5.131423  -0.589689
N    -1.798444  4.676880  1.143198
H    -4.229348  -0.703982  -0.867298
H    -2.964688  0.497712  -0.861197
H    -4.922365  1.049949  1.321831
H    -5.754447  0.822771  -0.192392
H    -5.471013  3.110967  -0.019083
H    -4.262791  2.623265  -1.230172
H    -3.286930  2.760219  1.555294
H    -2.769360  5.967489  -0.842876
H    -4.211726  5.032149  -0.983151
H    -1.450283  5.628226  1.163392
N    -3.255310  -3.161153  1.109320
C    -2.975107  -4.568373  0.804601
H    -3.995100  -2.960046  1.774865
H    -3.131269  -4.763527  -0.262877
H    -3.653359  -5.189756  1.394365
H    -1.937356  -4.810837  1.061748
Hg    -0.350848  -0.685947  -0.691652
