36
Energy: -574587.82436 eV PBE+vdW (tier 2 basis)
C    1.599604  1.225104  0.394112
C    1.432953  1.003689  1.861407
O    2.464031  0.971289  2.589371
H    2.494945  1.841838  0.248934
H    0.735137  1.710390  -0.065764
H    1.790773  0.261709  -0.100853
N    0.209843  0.917110  2.473832
C    -0.899838  0.042802  2.085584
C    -0.388565  -1.399748  2.415830
O    0.796465  -1.683961  2.124959
H    0.317395  0.977639  3.488826
H    -1.723434  0.294604  2.771044
C    -1.403113  0.187298  0.637474
C    -2.737858  -0.525410  0.393253
C    -3.262765  -0.359854  -1.050066
N    -3.824645  0.950653  -1.348076
C    -3.203640  1.907967  -2.106224
N    -3.960169  2.918241  -2.595292
N    -1.899981  1.768550  -2.283514
H    -0.656448  -0.196632  -0.068752
H    -1.510901  1.262512  0.436297
H    -3.504707  -0.177342  1.103794
H    -2.630054  -1.609764  0.548687
H    -4.062030  -1.095555  -1.218167
H    -2.463577  -0.555720  -1.773202
H    -4.795436  1.106668  -1.088466
H    -3.520135  3.701853  -3.062839
H    -4.974676  2.898291  -2.598188
H    -1.518274  2.517892  -2.872382
N    -1.229913  -2.242523  3.016359
C    -0.871273  -3.595386  3.439464
H    -2.168627  -1.915074  3.230645
H    -0.591028  -3.607577  4.502233
H    -0.032252  -3.949650  2.834552
H    -1.735438  -4.253440  3.298735
Hg    2.815512  -1.170626  3.619852
