36
Energy: -574587.829728 eV PBE+vdW (tier 2 basis)
C    -2.749503  -0.133350  0.524071
C    -1.863498  -0.040856  1.737046
O    -0.693371  0.399180  1.554389
H    -3.494051  -0.936925  0.617338
H    -2.133046  -0.299916  -0.364850
H    -3.270460  0.826460  0.390850
N    -2.405016  -0.411003  2.910446
C    -1.795271  -0.607840  4.238340
C    -1.381446  0.732965  4.893661
O    -0.206107  1.200385  4.846551
H    -3.343571  -0.821569  2.852259
H    -2.636908  -0.970299  4.843693
C    -0.703266  -1.691581  4.301423
C    -1.027524  -2.986667  3.545709
C    -2.278716  -3.781307  4.055612
N    -3.167641  -4.160662  2.969155
C    -4.155478  -3.376565  2.420648
N    -4.721741  -2.398731  3.246154
N    -4.541943  -3.407864  1.182650
H    -0.490996  -1.889131  5.362629
H    0.253781  -1.322548  3.881423
H    -0.146771  -3.638217  3.600956
H    -1.168999  -2.763282  2.479660
H    -2.844325  -3.210536  4.800461
H    -1.953829  -4.702136  4.555395
H    -2.844304  -4.915905  2.367478
H    -5.572269  -2.041656  2.807402
H    -4.916847  -2.707457  4.198269
H    -4.111147  -4.146991  0.617658
N    -2.296935  1.411260  5.581473
C    -3.676577  1.035699  5.897160
H    -1.948864  2.280488  5.988841
H    -4.153405  1.895612  6.376519
H    -3.713617  0.193877  6.601740
H    -4.241143  0.800497  4.987372
Hg    1.085004  0.830275  2.975354
