36
Energy: -574588.592004 eV PBE+vdW (tier 2 basis)
C    1.769251  0.705078  1.499646
C    1.207492  0.786004  2.879566
O    1.870125  1.368428  3.789013
H    1.706661  1.689330  1.012809
H    1.271554  -0.052715  0.886906
H    2.838372  0.467019  1.579758
N    0.004856  0.231984  3.185142
C    -1.230842  0.366669  2.412656
C    -1.799641  1.781939  2.654729
O    -1.663779  2.369460  3.825350
H    -0.160061  0.165061  4.191703
H    -0.993640  0.272160  1.344954
C    -2.198058  -0.754916  2.862652
C    -3.621549  -0.786152  2.288355
C    -3.773261  -1.068443  0.789344
N    -3.630955  0.149274  -0.020443
C    -3.970687  0.236699  -1.309347
N    -4.269542  -0.860237  -2.017982
N    -4.003593  1.439493  -1.911082
H    -2.290190  -0.691857  3.958682
H    -1.691150  -1.708076  2.650554
H    -4.180434  0.124226  2.550330
H    -4.139016  -1.600984  2.812690
H    -4.775598  -1.487118  0.613114
H    -3.034620  -1.825423  0.473881
H    -3.315235  1.003364  0.469368
H    -4.661033  -0.796216  -2.950008
H    -4.123471  -1.789146  -1.644917
H    -4.163727  1.526294  -2.907162
N    -2.550680  2.302850  1.736864
C    -2.980325  3.681410  1.762321
H    -4.031819  2.290559  -1.365769
H    -4.004951  3.738383  2.166645
H    -2.330754  4.333038  2.358929
H    -3.035320  4.053656  0.728882
Hg    0.269713  2.722465  4.885387
