36
Energy: -574588.931075 eV PBE+vdW (tier 2 basis)
C    0.511342  -0.804200  0.521567
C    0.264492  -0.471743  1.964938
O    1.262493  -0.222950  2.693617
H    -0.381516  -1.190842  0.017381
H    1.322511  -1.537905  0.452809
H    0.849177  0.105423  0.005225
N    -1.013229  -0.459050  2.401899
C    -1.432959  0.044679  3.712851
C    -0.982625  -0.915006  4.826077
O    -0.219549  -0.446275  5.779286
H    -1.726880  -0.615676  1.696890
H    -0.882335  0.986388  3.879985
C    -2.925018  0.457215  3.751501
C    -4.014100  -0.603660  3.954150
C    -4.182379  -1.615732  2.812089
N    -5.212157  -2.617594  3.087443
C    -4.997472  -3.762577  3.754164
N    -5.983700  -4.664978  3.856504
N    -3.801175  -4.007987  4.300751
H    -3.119250  1.044879  2.839459
H    -3.016381  1.174592  4.578354
H    -4.963947  -0.064261  4.082141
H    -3.841120  -1.136063  4.899276
H    -3.247747  -2.156771  2.604502
H    -4.474091  -1.108106  1.882000
H    -6.171118  -2.389208  2.846674
H    -5.910445  -5.459710  4.479852
H    -6.832154  -4.589450  3.308448
H    -3.586911  -4.931974  4.654722
N    -1.405164  -2.150325  4.852197
C    -0.804722  -3.087546  5.780028
H    -3.074794  -3.285468  4.377160
H    -1.405439  -3.143258  6.703989
H    0.222882  -2.831084  6.066766
H    -0.833118  -4.088320  5.325164
Hg    1.494996  0.610434  4.901994
