36
Energy: -574587.777127 eV PBE+vdW (tier 2 basis)
C    0.419624  0.755764  0.628839
C    0.119987  -0.094325  1.823336
O    1.043807  -0.337904  2.645188
H    -0.250129  0.549838  -0.212712
H    1.459499  0.584739  0.326947
H    0.342205  1.817400  0.909687
N    -1.118142  -0.614558  2.020033
C    -2.374032  0.104640  1.807621
C    -2.589729  0.992628  3.064224
O    -2.046473  0.700750  4.158166
H    -1.158253  -1.232712  2.832646
H    -2.265285  0.745047  0.921279
C    -3.548429  -0.886791  1.644751
C    -3.447981  -1.877361  0.474134
C    -3.790630  -1.277343  -0.904796
N    -3.823857  -2.268294  -1.971809
C    -4.906592  -3.034539  -2.301367
N    -4.800191  -3.910150  -3.327592
N    -6.078808  -3.026720  -1.681596
H    -4.483400  -0.310380  1.574648
H    -3.630852  -1.460239  2.581226
H    -4.149036  -2.701043  0.672897
H    -2.447240  -2.333265  0.441351
H    -3.054580  -0.519160  -1.207679
H    -4.762457  -0.762699  -0.870826
H    -2.942731  -2.470955  -2.436529
H    -5.618994  -4.474055  -3.536314
H    -4.017409  -3.940301  -3.971124
H    -6.155775  -2.285788  -0.976965
N    -3.407586  2.042510  2.947902
C    -3.747883  2.942239  4.049496
H    -3.895410  2.179090  2.066264
H    -3.925073  3.944446  3.646899
H    -2.919895  2.964041  4.763760
H    -4.652363  2.595546  4.567815
Hg    0.305254  -0.076229  4.923781
