36
Energy: -574590.275815 eV PBE+vdW (tier 2 basis)
C    -1.680343  0.032024  -0.798936
C    -1.587149  -0.377541  0.640650
O    -0.537850  -0.869181  1.108939
H    -2.686644  0.328184  -1.113798
H    -1.325253  -0.790328  -1.432504
H    -0.993525  0.874191  -0.964663
N    -2.691813  -0.193448  1.408097
C    -2.838266  -0.436820  2.852186
C    -1.841485  0.441331  3.664625
O    -0.630535  0.139788  3.974784
H    -3.493622  0.231147  0.952447
H    -3.828001  -0.016436  3.073376
C    -2.898180  -1.906321  3.360209
C    -3.476254  -3.030556  2.480427
C    -2.590450  -3.664042  1.366065
N    -1.141274  -3.587486  1.578593
C    -0.338734  -4.270419  2.418854
N    -0.566928  -5.559174  2.698932
N    0.705214  -3.597392  2.952593
H    -3.506836  -1.865087  4.274824
H    -1.916554  -2.240436  3.729656
H    -4.418955  -2.713710  2.011560
H    -3.755766  -3.826696  3.183530
H    -2.760385  -3.166241  0.404731
H    -2.906312  -4.704234  1.217879
H    -0.715598  -2.735916  1.204121
H    -0.059065  -6.035655  3.435992
H    -1.110690  -6.137962  2.066984
H    1.459713  -4.121732  3.389436
N    -2.283454  1.616876  4.072136
C    -1.477394  2.590820  4.818449
H    -3.246573  1.863769  3.861666
H    -1.184317  2.173110  5.789139
H    -2.081627  3.487737  4.973993
H    -0.575362  2.846603  4.250738
Hg    0.269610  -1.651869  3.409390
