36
Energy: -574588.328187 eV PBE+vdW (tier 2 basis)
C    0.288837  1.215291  1.335499
C    -0.113831  -0.049716  2.023054
O    0.768164  -0.910648  2.303089
H    -0.227199  2.086109  1.751891
H    0.051395  1.144903  0.262504
H    1.372698  1.336859  1.427161
N    -1.409315  -0.304274  2.359789
C    -2.605938  -0.125465  1.516207
C    -2.452668  -1.026972  0.270090
O    -2.012872  -2.264179  0.410528
H    -1.487531  -1.089953  3.005148
H    -3.409865  -0.587146  2.111744
C    -3.014327  1.325807  1.221565
C    -4.536340  1.444692  1.064214
C    -5.046051  2.805111  0.583705
N    -4.466638  3.338679  -0.673775
C    -4.698999  2.880282  -1.917441
N    -4.760690  3.745280  -2.939357
N    -4.851976  1.568201  -2.142008
H    -2.501239  1.686440  0.318076
H    -2.683660  1.956718  2.058376
H    -5.018828  1.272529  2.038779
H    -4.920212  0.646420  0.414022
H    -4.824806  3.571151  1.336846
H    -6.139740  2.763009  0.479429
H    -4.156305  4.304097  -0.626333
H    -4.672107  3.436168  -3.900910
H    -4.959691  4.727902  -2.788225
H    -5.230206  1.244294  -3.024614
N    -2.907155  -0.644826  -0.877145
C    -2.619735  -1.336417  -2.112338
H    -4.423211  0.876038  -1.524075
H    -3.436040  -2.043923  -2.334797
H    -1.673211  -1.890612  -2.093883
H    -2.608483  -0.603495  -2.931651
Hg    -0.154137  -2.937875  1.431648
