36
Energy: -574587.66662 eV PBE+vdW (tier 2 basis)
C    -2.012100  -0.110944  -0.286243
C    -2.015172  -0.557622  1.135228
O    -1.408709  -1.622131  1.499617
H    -1.128715  0.523937  -0.463207
H    -2.907663  0.457197  -0.559148
H    -1.915166  -0.991162  -0.929545
N    -2.617046  0.148063  2.107562
C    -2.903332  1.575870  2.172178
C    -1.678480  2.166918  2.918391
O    -0.905294  1.384650  3.527838
H    -2.459393  -0.255374  3.032942
H    -2.946464  1.977411  1.150725
C    -4.250702  1.804676  2.888625
C    -5.488320  1.256091  2.144560
C    -5.996653  -0.149855  2.539760
N    -5.129876  -1.277097  2.200345
C    -4.871017  -1.770490  0.951562
N    -5.493403  -1.225766  -0.121657
N    -3.953417  -2.696006  0.705077
H    -4.386588  2.886656  3.013644
H    -4.190050  1.397184  3.910486
H    -5.332758  1.320426  1.057142
H    -6.334946  1.923692  2.356914
H    -6.986056  -0.307298  2.077459
H    -6.160835  -0.197862  3.623182
H    -4.757214  -1.832025  2.964547
H    -5.329914  -1.699563  -1.006218
H    -6.369254  -0.722034  -0.033894
H    -3.579157  -3.135664  1.553741
N    -1.451610  3.484014  2.919128
C    -2.284139  4.563724  2.398743
H    -0.611973  3.754290  3.434223
H    -1.628783  5.379399  2.074288
H    -2.961635  4.954313  3.171811
H    -2.868090  4.230147  1.534878
Hg    0.452669  -0.931775  2.883894
