36
Energy: -574589.805452 eV PBE+vdW (tier 2 basis)
C    -2.381878  -2.436813  -0.437482
C    -1.074296  -1.731543  -0.523836
O    -0.199254  -2.233911  -1.348893
H    -2.482341  -3.123870  -1.283244
H    -3.221968  -1.731683  -0.424461
H    -2.420381  -3.032983  0.487748
N    -0.784940  -0.657835  0.199249
C    -1.503381  -0.023787  1.306318
C    -1.102415  1.469268  1.176440
O    -0.031561  1.731719  0.594826
H    -0.025120  -0.001975  -0.078900
H    -2.585155  -0.155493  1.169890
C    -1.091825  -0.609152  2.686325
C    0.224053  -0.160934  3.360632
C    1.587774  -0.638928  2.805048
N    2.274136  0.385376  1.999362
C    2.857101  0.243692  0.807596
N    3.030696  1.307469  0.016964
N    3.291223  -0.971303  0.301583
H    -1.120297  -1.707034  2.609864
H    -1.899539  -0.350217  3.386180
H    0.164225  -0.539511  4.389752
H    0.239753  0.934845  3.470665
H    1.477732  -1.548228  2.198321
H    2.243990  -0.902855  3.645691
H    2.176995  1.340397  2.340932
H    3.726604  1.267915  -0.721023
H    2.539974  2.181876  0.179095
H    3.537370  -1.641774  1.034846
N    -1.914016  2.363725  1.740963
C    -1.676415  3.808066  1.744015
H    -2.775366  2.031431  2.165719
H    -2.580072  4.326697  1.405608
H    -0.854051  4.031277  1.059811
H    -1.422000  4.154894  2.753392
Hg    1.741404  -1.734949  -0.807596
