36
Energy: -574588.389158 eV PBE+vdW (tier 2 basis)
C    0.412933  -0.322091  -0.194242
C    -0.145769  -0.806512  1.101960
O    -0.248160  -2.055569  1.292441
H    1.025105  0.576939  -0.081814
H    -0.409155  -0.118225  -0.897394
H    1.013924  -1.130007  -0.626528
N    -0.523096  0.019169  2.117985
C    -1.312082  1.254986  2.083843
C    -2.798828  0.838295  1.847133
O    -3.042685  -0.250614  1.170563
H    -0.653970  -0.506267  2.983848
H    -1.245777  1.666298  3.099416
C    -0.791859  2.336184  1.109792
C    -1.312261  3.758739  1.398637
C    -2.474835  4.195223  0.491878
N    -3.026006  5.500841  0.858081
C    -3.924273  5.705844  1.832580
N    -4.379504  6.944678  2.068410
N    -4.370350  4.676904  2.564423
H    -1.005262  2.055904  0.069122
H    0.300197  2.341456  1.219459
H    -0.486125  4.469157  1.260565
H    -1.603147  3.846166  2.456221
H    -3.290665  3.459536  0.492293
H    -2.136556  4.277449  -0.548737
H    -2.639745  6.319480  0.400308
H    -5.004016  7.142348  2.840382
H    -4.145085  7.721589  1.462616
H    -5.111087  4.816904  3.239840
N    -3.743133  1.643827  2.230405
C    -5.106689  1.191295  2.361424
H    -3.995599  3.728879  2.459618
H    -5.533575  1.613154  3.284981
H    -5.214659  0.100545  2.361715
H    -5.707672  1.609555  1.535137
Hg    -2.564876  -2.440756  1.627539
