36
Energy: -574587.703673 eV PBE+vdW (tier 2 basis)
C    -0.354112  -0.201589  0.115175
C    -0.515926  0.199860  1.551196
O    0.297555  1.018427  2.050092
H    -0.678266  0.632390  -0.523958
H    -0.934886  -1.096351  -0.134454
H    0.706897  -0.377107  -0.095789
N    -1.532018  -0.352687  2.261089
C    -1.849336  0.130682  3.593390
C    -0.723515  -0.140188  4.630556
O    -0.307080  0.834796  5.323965
H    -2.236386  -0.891976  1.732189
H    -1.836594  1.235765  3.542521
C    -3.274222  -0.172685  4.114363
C    -3.728932  -1.579097  4.536804
C    -4.079915  -2.584341  3.419698
N    -5.131349  -2.104488  2.533237
C    -4.961606  -1.560429  1.286448
N    -3.746606  -1.834594  0.642248
N    -5.779617  -0.739686  0.705202
H    -3.968840  0.242424  3.367015
H    -3.388938  0.477727  4.993376
H    -4.630005  -1.439177  5.152246
H    -3.005265  -2.056224  5.211678
H    -4.428280  -3.517948  3.886727
H    -3.207426  -2.848448  2.812998
H    -6.055847  -1.979749  2.941718
H    -3.784461  -1.447424  -0.302660
H    -3.511726  -2.827905  0.604764
H    -6.673577  -0.590799  1.185074
N    -0.185799  -1.337718  4.854403
C    -0.469261  -2.648016  4.282222
H    0.532773  -1.316396  5.581975
H    -0.953258  -3.299294  5.021454
H    0.483526  -3.108725  3.991126
H    -1.092645  -2.554463  3.392989
Hg    0.232785  2.624364  3.889186
