36
Energy: -574588.647328 eV PBE+vdW (tier 2 basis)
C    0.963997  1.798329  1.036748
C    0.494764  0.982430  2.198927
O    1.143965  0.975268  3.275129
H    2.059573  1.825636  1.052572
H    0.619124  2.837371  1.151150
H    0.616466  1.405301  0.075542
N    -0.643525  0.233602  2.105863
C    -1.884515  0.672476  1.481258
C    -2.639968  1.555723  2.504892
O    -2.429725  1.421800  3.793478
H    -0.791096  -0.348997  2.931897
H    -1.641665  1.292236  0.607879
C    -2.714785  -0.556343  1.029175
C    -3.889266  -0.227361  0.100166
C    -4.797413  -1.427843  -0.204459
N    -4.192899  -2.484689  -1.029943
C    -4.379768  -2.663637  -2.346580
N    -4.033717  -3.828751  -2.913485
N    -4.899128  -1.692311  -3.108044
H    -3.083079  -1.079641  1.927076
H    -2.007493  -1.234314  0.528077
H    -3.511301  0.208531  -0.838677
H    -4.523982  0.542415  0.561650
H    -5.716128  -1.092400  -0.703707
H    -5.123739  -1.905718  0.729793
H    -3.663018  -3.205522  -0.551605
H    -3.981424  -3.929293  -3.920436
H    -3.892253  -4.665804  -2.360826
H    -5.003897  -0.746360  -2.766364
N    -3.606481  2.296030  2.089740
C    -4.209914  3.410385  2.747240
H    -5.239336  -1.886739  -4.042466
H    -5.179622  3.101213  3.172921
H    -4.460013  4.167398  1.985057
H    -3.579610  3.856247  3.527429
Hg    -0.501479  1.456956  5.024094
