36
Energy: -574587.901151 eV PBE+vdW (tier 2 basis)
C    -0.056714  0.294282  0.009700
C    -0.383129  -0.248805  1.370086
O    -0.158180  -1.479487  1.571741
H    1.027780  0.225187  -0.151366
H    -0.387426  1.328916  -0.133043
H    -0.530071  -0.345406  -0.747240
N    -0.900246  0.605784  2.274906
C    -1.599734  0.358911  3.549230
C    -0.666727  0.239223  4.765167
O    0.468500  -0.348104  4.756771
H    -0.931392  1.569988  1.956288
H    -2.148199  1.295837  3.720425
C    -2.658428  -0.771423  3.489277
C    -3.942054  -0.429764  2.700528
C    -4.604815  0.956170  2.830904
N    -5.380784  1.298714  4.038683
C    -4.807982  1.786304  5.195683
N    -5.301602  2.926134  5.714831
N    -3.828278  1.165250  5.837697
H    -2.893952  -1.065072  4.521252
H    -2.229217  -1.673526  3.035705
H    -4.686307  -1.208489  2.917190
H    -3.720074  -0.527480  1.626993
H    -5.323490  1.026278  2.006015
H    -3.870209  1.759752  2.647730
H    -6.318981  1.639893  3.838828
H    -5.109746  3.144508  6.687312
H    -5.938142  3.530549  5.208304
H    -3.809644  0.194931  5.514229
N    -1.082619  0.826543  5.874659
C    -0.414725  0.721727  7.167488
H    -2.025727  1.296591  5.867802
H    -1.175909  0.808235  7.949893
H    0.306574  1.542541  7.286500
H    0.118820  -0.230146  7.249517
Hg    0.806684  -2.208278  3.525493
