36
Energy: -574589.936398 eV PBE+vdW (tier 2 basis)
C    0.367925  1.782099  1.066152
C    0.095353  1.159949  2.389453
O    1.103604  1.113323  3.221994
H    0.510316  0.995366  0.308584
H    1.294911  2.361890  1.119691
H    -0.459907  2.423862  0.742031
N    -1.069628  0.649059  2.748643
C    -2.290769  0.431599  1.970124
C    -3.381303  0.890127  2.976835
O    -3.025742  0.972008  4.171206
H    -1.419408  0.706143  3.755493
H    -2.286516  1.041147  1.058450
C    -2.432853  -1.074280  1.607139
C    -2.870038  -2.009957  2.768366
C    -2.004555  -3.255756  3.016670
N    -0.720634  -2.956257  3.678606
C    -0.445162  -2.968144  5.001247
N    -1.172442  -3.702501  5.848028
N    0.584926  -2.219686  5.455260
H    -1.472063  -1.391817  1.173734
H    -3.157877  -1.151932  0.787118
H    -3.885842  -2.373123  2.562537
H    -2.948031  -1.459531  3.717206
H    -1.768995  -3.783960  2.083671
H    -2.570479  -3.965988  3.631011
H    0.070286  -2.762855  3.073128
H    -1.109450  -3.563151  6.850804
H    -1.708492  -4.502596  5.528387
H    0.961865  -2.430326  6.377178
N    -4.626160  1.122720  2.561389
C    -5.164521  1.056722  1.204476
H    -5.271926  1.377951  3.307782
H    -4.379917  1.231018  0.461035
H    -5.916045  1.843788  1.084063
H    -5.640055  0.086325  1.008839
Hg    0.942575  -0.456327  4.529159
