36
Energy: -574589.061996 eV PBE+vdW (tier 2 basis)
C    -1.870931  2.028852  1.318597
C    -1.311468  1.378322  2.562370
O    -0.271252  2.109089  2.980018
H    -1.881128  3.119061  1.437502
H    -2.884846  1.677606  1.107464
H    -1.211172  1.806142  0.468729
N    -1.858909  0.290122  3.023403
C    -1.644949  -0.271483  4.367428
C    -0.535466  -1.350813  4.441616
O    0.688871  -1.057926  4.730243
H    -3.868975  -0.682251  0.263798
H    -1.311152  0.502870  5.091960
C    -2.994127  -0.788255  4.916636
C    -4.092673  0.299942  4.949307
C    -5.230121  0.088876  3.946583
N    -4.704610  -0.020694  2.582228
C    -5.449929  -0.217692  1.494464
N    -6.787978  -0.188553  1.559756
N    -4.850867  -0.444787  0.309889
H    -2.825595  -1.181360  5.928071
H    -3.343144  -1.633103  4.299962
H    -3.651650  1.294685  4.789898
H    -4.548844  0.329521  5.946186
H    -5.921832  0.942760  4.023972
H    -5.791914  -0.825362  4.199078
H    -3.669210  0.041032  2.495822
H    -7.361956  -0.411979  0.755781
H    -7.268967  0.127293  2.392024
H    -5.382913  -0.507208  -0.549117
N    -0.830185  -2.618399  4.239014
C    0.140177  -3.717500  4.290034
H    -1.809828  -2.854115  4.106696
H    -0.276897  -4.572151  3.750723
H    0.337949  -4.003663  5.330949
H    1.078253  -3.402662  3.822603
Hg    0.957809  1.042574  4.284026
