36
Energy: -574587.682377 eV PBE+vdW (tier 2 basis)
C    0.518201  1.349620  0.783994
C    -0.422380  0.227204  1.095761
O    -0.495201  -0.741289  0.294216
H    -0.022679  2.150184  0.259715
H    1.285816  0.970510  0.100539
H    0.993962  1.753933  1.682566
N    -1.134536  0.165744  2.265932
C    -1.953612  1.238358  2.828339
C    -3.057377  1.545758  1.750860
O    -2.779396  1.367461  0.548704
H    -1.572656  -0.751567  2.366323
H    -2.444069  0.791234  3.705900
C    -1.233748  2.521090  3.289569
C    -0.208257  2.267206  4.403711
C    0.374972  3.588109  4.959471
N    1.305095  3.367597  6.056871
C    2.660397  3.195220  5.989103
N    3.332266  3.485124  4.848932
N    3.379383  2.692668  6.979135
H    -2.014473  3.203533  3.659380
H    -0.774800  3.034495  2.434354
H    0.612075  1.629850  4.042498
H    -0.684272  1.720239  5.231856
H    -0.433409  4.227601  5.341992
H    0.869394  4.160676  4.163668
H    0.900203  3.186435  6.971572
H    4.341050  3.369240  4.896955
H    2.971591  4.121078  4.148272
H    2.848100  2.563371  7.848884
N    -4.243534  1.971872  2.192875
C    -5.389193  2.249097  1.328251
H    -4.379727  2.075284  3.195480
H    -5.882335  3.166104  1.670243
H    -6.112693  1.423323  1.369971
H    -5.036568  2.378102  0.301834
Hg    -2.661366  -0.943090  -0.762753
