36
Energy: -574587.860075 eV PBE+vdW (tier 2 basis)
C    0.853589  0.238778  0.079527
C    0.424210  -0.230611  1.443221
O    1.143693  -1.104800  1.994206
H    1.919929  0.492163  0.106752
H    0.279107  1.100696  -0.278598
H    0.734451  -0.593049  -0.628677
N    -0.690170  0.329818  1.958891
C    -1.471418  0.002457  3.168763
C    -0.659769  0.274317  4.459263
O    -0.064726  -0.632458  5.113119
H    -1.117600  1.023898  1.353742
H    -2.276484  0.747159  3.169280
C    -2.133938  -1.386836  3.138419
C    -3.162810  -1.597507  4.266166
C    -4.647403  -1.399754  3.889011
N    -4.996668  -0.169885  3.175642
C    -4.977074  1.089190  3.700104
N    -5.386884  2.117494  2.905777
N    -4.504282  1.417611  4.892112
H    -1.370372  -2.177778  3.187270
H    -2.600183  -1.503020  2.149776
H    -2.903541  -0.976969  5.136498
H    -3.091707  -2.630057  4.632926
H    -5.257139  -1.487530  4.802007
H    -4.962705  -2.217937  3.230512
H    -5.436540  -0.293485  2.268412
H    -5.507148  3.011567  3.372439
H    -5.960320  1.962199  2.083318
H    -4.354118  0.594845  5.483409
N    -0.633188  1.516241  4.943713
C    -1.428216  2.669662  4.529384
H    -0.078566  1.614777  5.795675
H    -1.233830  2.928820  3.481532
H    -1.135691  3.519058  5.153167
H    -2.507664  2.481843  4.684955
Hg    1.146978  -2.265972  4.007859
