36
Energy: -574588.160754 eV PBE+vdW (tier 2 basis)
C    -0.234847  -0.452422  0.227331
C    -0.098477  0.019154  1.646404
O    0.920468  0.704085  1.932016
H    -0.310648  0.426984  -0.427439
H    -1.112896  -1.089949  0.073753
H    0.674902  -0.993183  -0.060778
N    -1.081433  -0.311952  2.512097
C    -1.332340  0.246037  3.847188
C    -0.634602  -0.629314  4.918573
O    0.586562  -0.439139  5.212498
H    -1.820354  -0.893575  2.125104
H    -0.824780  1.223163  3.896754
C    -2.839702  0.476155  4.038469
C    -3.190258  1.271038  5.306924
C    -4.684840  1.190784  5.689453
N    -5.146697  -0.185426  5.891201
C    -4.493737  -1.103075  6.689701
N    -3.949820  -0.658525  7.846954
N    -4.254791  -2.339159  6.305059
H    -3.357678  -0.497492  4.030959
H    -3.202942  1.014098  3.150346
H    -2.943325  2.333066  5.167472
H    -2.589543  0.925059  6.160864
H    -5.319166  1.621130  4.905137
H    -4.861486  1.791891  6.593716
H    -5.717562  -0.590314  5.155217
H    -3.562291  -1.369122  8.459912
H    -4.329248  0.163872  8.303600
H    -4.826000  -2.636138  5.507180
N    -1.291350  -1.610180  5.516323
C    -0.672983  -2.513927  6.492473
H    -2.296137  -1.740050  5.364776
H    0.156537  -3.062338  6.030923
H    -1.440731  -3.217460  6.824534
H    -0.286225  -1.947660  7.348564
Hg    1.862910  1.082161  4.019377
