36
Energy: -574588.650427 eV PBE+vdW (tier 2 basis)
C    -2.079816  -0.548298  0.554094
C    -1.202404  -0.191786  1.739420
O    0.038328  -0.644769  1.470082
H    -3.064342  -0.085012  0.661252
H    -2.174147  -1.639734  0.478117
H    -1.612366  -0.199146  -0.373865
N    -1.733073  0.419785  2.745523
C    -1.195481  0.730659  4.084618
C    -0.157815  1.882439  4.172556
O    1.124416  1.712881  4.163251
H    -3.447693  -0.528996  3.157592
H    -2.061627  1.163539  4.603632
C    -0.786252  -0.530245  4.903918
C    -1.607871  -0.709111  6.189116
C    -3.116128  -0.901644  5.993663
N    -3.480242  -2.128283  5.268559
C    -4.224032  -2.192535  4.149064
N    -4.950889  -3.294911  3.912263
N    -4.244407  -1.176791  3.276324
H    0.276473  -0.494717  5.190812
H    -0.909101  -1.415182  4.264067
H    -1.473273  0.160693  6.850615
H    -1.202410  -1.564961  6.748348
H    -3.577659  -0.059192  5.462981
H    -3.599101  -0.941530  6.980457
H    -3.376034  -3.000153  5.780670
H    -5.321052  -3.494531  2.990251
H    -5.203422  -3.934130  4.657452
H    -4.962189  -1.156751  2.561125
N    -0.585505  3.122012  4.333419
C    -1.962571  3.612849  4.446408
H    0.158904  3.818744  4.403600
H    -1.953842  4.680693  4.207463
H    -2.343074  3.491827  5.469233
H    -2.613675  3.104262  3.728551
Hg    1.474592  0.119102  2.747140
