36
Energy: -574587.677269 eV PBE+vdW (tier 2 basis)
C    -0.857322  -0.542474  0.033901
C    -0.294144  -0.319505  1.399637
O    0.893874  -0.675778  1.640710
H    -0.410094  -1.451058  -0.387454
H    -0.559562  0.288711  -0.624273
H    -1.948049  -0.638129  0.045748
N    -1.038426  0.246760  2.383615
C    -1.883758  1.437794  2.233413
C    -0.928966  2.620237  1.943568
O    0.192847  2.718033  2.530385
H    -0.596214  0.186622  3.302642
H    -2.555561  1.292551  1.377457
C    -2.673695  1.598846  3.556020
C    -3.690918  2.737865  3.701014
C    -5.070812  2.537684  3.031322
N    -5.031295  2.585368  1.571432
C    -4.593603  3.657576  0.838520
N    -4.680362  4.891882  1.373586
N    -3.935777  3.517818  -0.305769
H    -1.926608  1.727641  4.356276
H    -3.161953  0.630800  3.748768
H    -3.258288  3.700332  3.390923
H    -3.897028  2.846085  4.775365
H    -5.770195  3.298087  3.411410
H    -5.500651  1.566704  3.306346
H    -5.119417  1.711289  1.063004
H    -4.430012  5.668107  0.768657
H    -5.315843  5.095472  2.136866
H    -4.076269  2.598568  -0.738628
N    -1.315082  3.556279  1.085302
C    -0.483779  4.691716  0.688923
H    -2.246428  3.490319  0.627046
H    -0.876827  5.088732  -0.251667
H    0.556819  4.375245  0.560518
H    -0.514278  5.478540  1.455071
Hg    1.963127  1.068192  2.857999
