36
Energy: -574589.887967 eV PBE+vdW (tier 2 basis)
C    0.410947  -2.314229  0.405059
C    0.316799  -1.744219  1.780430
O    1.425971  -1.763030  2.449174
H    -0.541690  -2.272550  -0.133500
H    0.737851  -3.361483  0.476924
H    1.180347  -1.775093  -0.163158
N    -0.853017  -1.288956  2.217553
C    -1.247400  -0.865928  3.575355
C    -2.624780  -1.455286  3.995682
O    -2.672668  -2.055538  5.064217
H    -1.611715  -1.388663  1.544968
H    -0.580135  -1.393866  4.270749
C    -1.148087  0.663511  3.772098
C    -1.705323  1.250496  5.088600
C    -1.344033  0.571651  6.429475
N    0.020355  0.023196  6.491407
C    1.193139  0.683942  6.519615
N    1.283955  1.896810  7.068795
N    2.267114  0.078651  5.957078
H    -1.668702  1.163003  2.941402
H    -0.092009  0.962301  3.647950
H    -2.803905  1.269341  5.048033
H    -1.396068  2.304589  5.109212
H    -1.995485  -0.290208  6.608036
H    -1.523640  1.272155  7.256403
H    0.088694  -0.990196  6.510229
H    2.102785  2.480658  6.933679
H    0.601270  2.211289  7.752127
H    3.198318  0.420601  6.189085
N    -3.671101  -1.257148  3.163242
C    -5.012328  -1.764374  3.473063
H    -3.599908  -0.574547  2.414547
H    -5.556725  -1.926762  2.537931
H    -5.569363  -1.057245  4.101574
H    -4.913927  -2.711724  4.010861
Hg    1.908851  -0.883198  4.216250
