36
Energy: -574590.200572 eV PBE+vdW (tier 2 basis)
C    -0.308994  -0.937345  1.333456
C    -0.951081  -1.016480  2.688520
O    -0.591595  -1.857064  3.532924
H    -0.316281  -1.932508  0.871892
H    0.745112  -0.655478  1.462267
H    -0.786651  -0.222068  0.655394
N    -1.947360  -0.126924  2.947146
C    -2.703093  0.002146  4.197216
C    -1.765482  0.422951  5.360517
O    -1.217065  -0.370830  6.214335
H    -2.190670  0.522463  2.206408
H    -3.336117  0.879180  4.018630
C    -3.680444  -1.142944  4.589270
C    -4.277001  -2.050801  3.494985
C    -3.509153  -3.330984  3.090056
N    -3.013161  -4.053031  4.272152
C    -1.800936  -4.645956  4.399208
N    -1.327895  -5.402112  3.406340
N    -1.114083  -4.426900  5.539621
H    -4.514811  -0.648617  5.104897
H    -3.238036  -1.774440  5.375598
H    -4.473438  -1.484874  2.573577
H    -5.268134  -2.359925  3.856638
H    -2.637995  -3.109054  2.462867
H    -4.193251  -3.958937  2.501931
H    -3.522543  -3.936867  5.143476
H    -0.350974  -5.673795  3.367321
H    -1.958206  -5.825566  2.731998
H    -0.333145  -5.045488  5.755265
N    -1.514104  1.709350  5.532294
C    -2.028575  2.857171  4.777079
H    -0.876837  1.913578  6.303838
H    -1.701642  2.820484  3.731026
H    -1.618151  3.763107  5.231179
H    -3.122584  2.915603  4.834695
Hg    -1.027645  -2.420720  5.942154
