36
Energy: -574590.548813 eV PBE+vdW (tier 2 basis)
C    0.575628  1.075928  0.633840
C    0.586409  1.194446  2.128998
O    1.651341  1.191583  2.778382
H    -0.429225  1.038206  0.199920
H    1.132420  0.177124  0.341200
H    1.114815  1.934738  0.211294
N    -0.619051  1.323079  2.750079
C    -0.802240  1.529289  4.189019
C    0.163914  2.621577  4.713918
O    1.241469  2.418844  5.384117
H    -1.454694  1.319499  2.173562
H    -1.796221  1.988558  4.280950
C    -0.853842  0.234272  5.061798
C    -0.103243  -1.007280  4.526640
C    0.576336  -1.844969  5.635602
N    1.705132  -2.639446  5.149199
C    3.005434  -2.285460  5.137436
N    3.916310  -3.253165  4.922505
N    3.425417  -1.026652  5.342709
H    -1.913103  -0.017748  5.192368
H    -0.507646  0.496771  6.074525
H    0.661062  -0.719408  3.792556
H    -0.794751  -1.647312  3.963447
H    -0.135666  -2.541276  6.095857
H    0.936387  -1.212121  6.461573
H    1.495182  -3.567966  4.796563
H    4.873537  -3.029730  4.677330
H    3.702423  -4.229560  5.093161
H    4.418785  -0.931079  5.535593
N    -0.201990  3.874074  4.521899
C    0.578745  5.047298  4.925950
H    -1.109412  4.042050  4.094010
H    1.644125  4.849273  4.775826
H    0.399823  5.276908  5.984213
H    0.266721  5.897271  4.312813
Hg    2.365695  0.698051  5.157462
