36
Energy: -574589.648294 eV PBE+vdW (tier 2 basis)
C    -0.092494  1.128253  -0.616910
C    0.011602  0.714278  0.808816
O    1.184148  0.253589  1.194448
H    0.660057  1.893474  -0.847869
H    -1.093113  1.483401  -0.882099
H    0.151279  0.254215  -1.241217
N    -1.046913  0.779347  1.585441
C    -1.413870  0.111076  2.845736
C    -2.976808  0.240188  2.802292
O    -3.452517  1.101420  2.052302
H    -1.935557  1.209583  1.222429
H    -1.104333  -0.940671  2.773599
C    -0.852157  0.697377  4.172550
C    -0.761835  2.224802  4.254821
C    -0.233570  2.785373  5.592323
N    0.916604  2.091195  6.222931
C    2.059392  1.690448  5.655961
N    2.807553  0.740749  6.231231
N    2.529882  2.215251  4.476272
H    0.129699  0.231069  4.364740
H    -1.488026  0.322078  4.987298
H    -1.758169  2.670713  4.116979
H    -0.173923  2.624055  3.411676
H    -1.027345  2.726624  6.346793
H    -0.003379  3.854816  5.480304
H    0.796745  1.872434  7.209827
H    3.790325  0.679147  5.981757
H    2.500171  0.224858  7.049751
H    2.195743  3.170295  4.327142
N    -3.722250  -0.554903  3.582345
C    -3.322052  -1.674061  4.429467
H    -4.721336  -0.368203  3.505311
H    -4.051348  -2.483702  4.316029
H    -3.288267  -1.387987  5.490143
H    -2.345992  -2.069466  4.129633
Hg    2.030396  1.144310  2.812088
