36
Energy: -574589.727945 eV PBE+vdW (tier 2 basis)
C    -0.424457  -1.113961  0.672946
C    -0.018661  -0.289354  1.856740
O    0.871858  0.568469  1.806098
H    -0.857299  -0.442188  -0.081463
H    -1.152689  -1.898299  0.907357
H    0.469487  -1.562750  0.223761
N    -0.687615  -0.516261  3.041926
C    -0.556543  0.399266  4.170366
C    0.757382  0.124839  4.969665
O    0.910934  -0.232697  6.221151
H    -1.375905  -1.259076  3.075367
H    -0.346878  1.385087  3.721370
C    -1.877937  0.563725  4.946212
C    -2.665073  -0.705207  5.343227
C    -3.759939  -0.418006  6.412132
N    -3.904879  -1.498300  7.402833
C    -3.037650  -1.744348  8.394059
N    -3.004545  -2.924316  9.006050
N    -2.127656  -0.797028  8.860183
H    -2.526061  1.196735  4.323785
H    -1.674559  1.186394  5.835659
H    -1.994782  -1.499647  5.715562
H    -3.146666  -1.146814  4.459821
H    -4.742025  -0.288227  5.945496
H    -3.557454  0.523617  6.939130
H    -4.645211  -2.177437  7.234320
H    -3.569820  -3.719245  8.719854
H    -2.489154  -2.997574  9.879219
H    -2.577968  0.121536  8.935046
N    1.848410  0.308565  4.276181
C    3.212352  0.122694  4.770982
H    1.675167  0.564706  3.264966
H    3.391656  0.759373  5.645444
H    3.901747  0.399999  3.970065
H    3.381329  -0.924226  5.052232
Hg    -0.544329  -0.513922  7.600688
