36
Energy: -574587.922034 eV PBE+vdW (tier 2 basis)
C    -0.101338  -0.397200  -0.096597
C    -0.104415  -0.138031  1.383662
O    0.954706  0.245789  1.931410
H    0.215816  0.514945  -0.618224
H    -1.076687  -0.717815  -0.479852
H    0.647618  -1.168829  -0.317430
N    -1.266119  -0.342892  2.053793
C    -1.468441  -0.068901  3.471877
C    -0.736070  -1.093160  4.380391
O    0.200071  -0.693239  5.130653
H    -2.061049  -0.661352  1.508292
H    -0.956544  0.878487  3.703899
C    -2.957801  0.102672  3.843339
C    -3.535316  1.519231  3.675047
C    -3.772637  1.982640  2.223673
N    -4.462553  3.261911  2.139729
C    -5.819430  3.426785  2.204351
N    -6.322898  4.682009  2.145285
N    -6.714779  2.460564  2.340034
H    -3.065705  -0.164287  4.904363
H    -3.569806  -0.629137  3.293014
H    -2.894000  2.248076  4.193644
H    -4.499858  1.542036  4.203249
H    -4.353878  1.230890  1.667197
H    -2.824895  2.102590  1.680940
H    -3.882016  4.095745  2.142492
H    -7.333450  4.773092  2.190466
H    -5.772644  5.508378  1.941396
H    -6.301675  1.523697  2.298273
N    -1.075176  -2.381511  4.427175
C    -2.210154  -3.081389  3.829199
H    -0.505972  -2.921427  5.081298
H    -1.953014  -4.143672  3.767037
H    -2.406594  -2.723319  2.814719
H    -3.113790  -2.979701  4.444808
Hg    1.719013  0.840597  4.172143
