36
Energy: -574588.228022 eV PBE+vdW (tier 2 basis)
C    -0.438581  0.426159  -0.107533
C    -0.334022  0.103035  1.358307
O    0.811627  -0.184107  1.795664
H    -1.433152  0.781478  -0.400069
H    -0.196756  -0.478752  -0.681941
H    0.313213  1.182927  -0.361467
N    -1.475166  0.150250  2.076589
C    -1.769065  -0.260321  3.465167
C    -1.123330  0.707394  4.487242
O    0.010578  0.514761  5.014119
H    -2.291177  0.413722  1.532906
H    -2.849956  -0.098093  3.558320
C    -1.515351  -1.746738  3.767372
C    -2.231764  -2.234738  5.033914
C    -3.741819  -2.483522  4.808439
N    -4.459981  -2.764181  6.036149
C    -5.007530  -1.790910  6.827191
N    -5.718712  -2.186328  7.909743
N    -4.793696  -0.535004  6.470074
H    -0.435948  -1.955558  3.870292
H    -1.831953  -2.325097  2.886640
H    -2.111492  -1.510481  5.853204
H    -1.761248  -3.167528  5.371568
H    -3.884068  -3.342574  4.139124
H    -4.219991  -1.611889  4.345175
H    -4.534135  -3.732798  6.331950
H    -6.124299  -1.496283  8.529655
H    -5.964974  -3.154297  8.085803
H    -5.249058  0.110177  7.124320
N    -1.816116  1.781926  4.856838
C    -3.197274  2.138402  4.519111
H    -1.326608  2.385215  5.518145
H    -3.314337  2.300008  3.440473
H    -3.427975  3.081175  5.023158
H    -3.899603  1.372822  4.877353
Hg    1.693063  -0.634373  3.893142
