36
Energy: -574588.004639 eV PBE+vdW (tier 2 basis)
C    0.623391  -0.216033  -0.293710
C    0.275700  -0.353308  1.161843
O    1.004630  -1.080778  1.888587
H    -0.168191  0.248598  -0.891801
H    0.855889  -1.208088  -0.699754
H    1.540739  0.383893  -0.378347
N    -0.819890  0.307687  1.593398
C    -1.520833  0.257291  2.886561
C    -0.895874  1.214937  3.914575
O    0.351109  1.357334  4.047848
H    -1.270781  0.883283  0.888633
H    -2.524436  0.640004  2.655561
C    -1.710328  -1.156595  3.487444
C    -2.464110  -2.121382  2.561902
C    -2.720081  -3.472880  3.236322
N    -3.445944  -4.372934  2.351748
C    -3.738617  -5.683732  2.601840
N    -3.366540  -6.243968  3.773289
N    -4.363582  -6.481880  1.748324
H    -2.272675  -1.023335  4.424592
H    -0.739956  -1.587976  3.764995
H    -1.888059  -2.288257  1.639746
H    -3.428307  -1.675419  2.268492
H    -3.296321  -3.328504  4.169167
H    -1.760384  -3.943967  3.515078
H    -3.801577  -4.005343  1.474954
H    -3.600050  -7.224109  3.902641
H    -2.948328  -5.739878  4.544108
H    -4.636690  -6.005004  0.880499
N    -1.707516  1.940401  4.689251
C    -3.159959  2.105118  4.600581
H    -1.213016  2.527080  5.362280
H    -3.452804  2.614963  3.672813
H    -3.479134  2.726191  5.442196
H    -3.677717  1.141279  4.677724
Hg    1.987420  -0.338176  3.917398
