36
Energy: -574589.355154 eV PBE+vdW (tier 2 basis)
C    -1.008257  2.701765  1.479299
C    -0.979281  1.270797  1.866382
O    -0.027835  0.922205  2.686606
H    -1.066616  3.338965  2.368207
H    -1.823334  2.927026  0.786093
H    -0.052740  2.917727  0.972473
N    -1.714354  0.316380  1.257974
C    -3.174353  0.284793  1.084692
C    -3.767652  1.425436  1.957037
O    -3.186219  1.698898  3.014698
H    -1.308335  -0.615899  1.320874
H    -3.436893  0.362703  0.022425
C    -3.719935  -1.027082  1.727844
C    -3.052101  -2.367055  1.365223
C    -3.301809  -3.449308  2.455281
N    -2.097424  -4.222681  2.811184
C    -1.033902  -3.742898  3.471876
N    0.163317  -4.328070  3.350692
N    -1.123635  -2.657805  4.304214
H    -4.793879  -1.079655  1.500502
H    -3.650151  -0.876577  2.817627
H    -1.958543  -2.271187  1.252310
H    -3.398536  -2.726545  0.387968
H    -4.044704  -4.182078  2.123806
H    -3.722963  -2.994531  3.362612
H    -2.032955  -5.168760  2.441277
H    0.852090  -4.196299  4.085592
H    0.338864  -5.066049  2.675679
H    -2.073291  -2.512477  4.651408
N    -4.906577  2.005256  1.552868
C    -5.671973  1.755903  0.330127
H    -5.280603  2.683642  2.214209
H    -5.057087  1.896414  -0.567491
H    -6.487665  2.482998  0.288967
H    -6.117967  0.752182  0.320381
Hg    -0.408364  -0.868738  3.626332
