36
Energy: -574587.991344 eV PBE+vdW (tier 2 basis)
C    -0.388805  0.611285  0.310836
C    -0.218810  -0.013519  1.670539
O    0.845489  -0.641529  1.887867
H    0.519049  0.442426  -0.274088
H    -0.561155  1.693631  0.392875
H    -1.239766  0.156009  -0.215381
N    -1.182238  0.124989  2.610796
C    -2.509213  0.718947  2.430091
C    -2.851667  1.612611  3.664280
O    -3.960029  1.541793  4.216225
H    -1.022158  -0.386992  3.478155
H    -2.445330  1.396114  1.565635
C    -3.600344  -0.334897  2.161138
C    -4.888426  0.258015  1.530430
C    -6.189729  -0.210443  2.178178
N    -6.317225  0.298800  3.527583
C    -7.356599  0.062272  4.371720
N    -8.421993  -0.666124  3.987678
N    -7.370577  0.521600  5.623006
H    -3.824245  -0.859277  3.101449
H    -3.175734  -1.086962  1.483969
H    -4.935223  -0.010300  0.467659
H    -4.870929  1.357455  1.560032
H    -6.259207  -1.316833  2.191739
H    -7.051013  0.139584  1.576292
H    -5.506624  0.838392  3.889980
H    -9.165421  -0.793959  4.668320
H    -8.554634  -1.035385  3.054243
H    -6.539483  1.094413  5.824207
N    -1.892207  2.455750  4.072796
C    -2.074374  3.414413  5.161165
H    -1.026032  2.494018  3.544397
H    -2.559137  4.331439  4.799520
H    -1.094873  3.667587  5.577529
H    -2.702799  2.966152  5.937123
Hg    1.667717  -2.254465  3.581307
