36
Energy: -574587.8389 eV PBE+vdW (tier 2 basis)
C    0.348482  1.149809  0.113096
C    0.218884  0.614510  1.506407
O    1.246634  0.107489  2.035764
H    -0.623088  1.504230  -0.278210
H    0.757121  0.366004  -0.537426
H    1.068226  1.980038  0.108682
N    -0.988560  0.694976  2.101664
C    -1.254040  0.321703  3.480698
C    -1.174584  -1.210049  3.722304
O    -0.348757  -1.628349  4.593019
H    -1.712101  1.237594  1.616010
H    -0.409170  0.682726  4.090765
C    -2.487724  1.017559  4.115958
C    -3.841890  1.137951  3.383963
C    -4.053431  2.427620  2.561942
N    -3.257967  2.510003  1.339510
C    -3.589102  1.998603  0.094138
N    -4.731405  1.273574  -0.025421
N    -2.692891  2.225746  -0.837880
H    -2.153359  2.025688  4.404012
H    -2.653201  0.497176  5.070673
H    -4.621095  1.149683  4.159150
H    -4.066271  0.262544  2.764060
H    -3.795275  3.303839  3.169873
H    -5.125459  2.535596  2.331048
H    -2.611672  3.291567  1.248342
H    -5.501692  1.395016  0.625223
H    -4.995328  0.949031  -0.950053
H    -2.959007  1.851580  -1.754640
N    -1.911659  -2.119686  3.089834
C    -2.982479  -1.989901  2.108115
H    -1.707423  -3.072307  3.400175
H    -2.891642  -1.053672  1.552996
H    -3.966978  -2.052805  2.589929
H    -2.892255  -2.823204  1.401476
Hg    1.757627  -0.681294  4.223531
