36
Energy: -574588.917362 eV PBE+vdW (tier 2 basis)
C    0.670487  2.153627  1.152802
C    0.325113  1.377839  2.399229
O    1.286572  1.333665  3.266737
H    0.596298  3.230215  1.363449
H    -0.014492  1.905513  0.336069
H    1.703394  1.948121  0.853315
N    -0.881720  0.827308  2.492023
C    -1.311005  0.315304  3.758507
C    -0.542120  -0.977215  4.230631
O    0.134251  -0.959754  5.296229
H    -2.559240  0.957458  -0.612393
H    -1.045516  1.030198  4.582870
C    -2.835874  0.118938  3.857616
C    -3.619145  1.430961  4.047247
C    -3.758996  2.349381  2.826128
N    -4.592917  1.788289  1.757210
C    -4.173996  1.352875  0.559215
N    -5.074477  1.173750  -0.421226
N    -2.882428  1.083119  0.339224
H    -3.043380  -0.522546  4.726216
H    -3.206515  -0.424705  2.977625
H    -3.164066  2.023566  4.856371
H    -4.625409  1.173541  4.408897
H    -2.787145  2.619021  2.396098
H    -4.229832  3.290201  3.142765
H    -5.597559  1.813419  1.903880
H    -4.836567  0.678370  -1.271760
H    -5.999687  1.583547  -0.373003
H    -2.182275  1.023894  1.104828
N    -0.639473  -2.111730  3.547504
C    -1.404741  -2.412516  2.340471
H    -0.153983  -2.897360  3.983643
H    -0.815505  -3.111996  1.736440
H    -1.567101  -1.504955  1.754673
H    -2.362314  -2.886798  2.591690
Hg    1.090403  1.159206  5.483461
