36
Energy: -574588.088052 eV PBE+vdW (tier 2 basis)
C    -2.356054  1.161398  0.659429
C    -1.633864  0.660202  1.875434
O    -0.415291  0.977609  1.970898
H    -1.949878  2.137595  0.372870
H    -3.444687  1.248063  0.828703
H    -2.163514  0.470273  -0.174973
N    -2.317642  -0.099262  2.753713
C    -1.853868  -0.573174  4.056854
C    -0.940301  -1.823449  3.915207
O    0.319750  -1.719292  3.965716
H    -3.300378  -0.301113  2.523181
H    -1.196188  0.198060  4.492725
C    -3.029105  -0.785921  5.024834
C    -3.701049  0.512573  5.549195
C    -5.183288  0.755780  5.162582
N    -5.388898  1.487670  3.918262
C    -5.461321  1.002298  2.647402
N    -5.408534  -0.378028  2.474104
N    -5.472913  1.726466  1.557097
H    -2.632124  -1.340117  5.885811
H    -3.779187  -1.446488  4.562553
H    -3.115629  1.398907  5.264048
H    -3.675470  0.483638  6.645937
H    -5.647045  1.362266  5.950614
H    -5.743651  -0.190142  5.144577
H    -5.432277  2.500646  3.993169
H    -5.712702  -0.627698  1.532555
H    -5.881789  -0.940700  3.178780
H    -5.492956  2.735878  1.740190
N    -1.498964  -3.013027  3.744171
C    -0.741781  -4.261319  3.597663
H    -2.510509  -3.080572  3.806825
H    -1.376778  -4.995329  3.093795
H    -0.444802  -4.648673  4.580784
H    0.157088  -4.074475  3.002065
Hg    1.244664  0.358930  3.486611
