36
Energy: -574589.886706 eV PBE+vdW (tier 2 basis)
C    0.586208  0.464644  -1.989793
C    0.743622  1.083471  -0.627893
O    1.243150  2.205000  -0.605589
H    -3.748503  3.893840  0.011912
H    -0.404852  0.073943  -2.248719
H    1.022527  1.117842  -2.748991
N    0.351616  0.469737  0.540021
C    -0.676336  -0.538495  0.860981
C    -0.217859  -1.956075  0.463492
O    -0.091781  -2.247699  -0.744165
H    0.622067  1.052088  1.331317
H    -0.744730  -0.496828  1.957689
C    -2.084591  -0.233364  0.306726
C    -2.647644  1.099048  0.822443
C    -4.146100  1.311896  0.558222
N    -4.513168  1.572460  -0.841940
C    -4.790092  2.775642  -1.369750
N    -5.447182  2.852118  -2.536722
N    -4.407536  3.901680  -0.755378
H    -2.739036  -1.060132  0.626022
H    -2.068394  -0.269271  -0.792547
H    -2.069942  1.944455  0.417320
H    -2.524161  1.142855  1.916315
H    -4.522025  2.146180  1.165424
H    -4.718526  0.429464  0.876148
H    -4.710505  0.769632  -1.430064
H    -5.510581  3.724951  -3.047866
H    -6.001063  2.077661  -2.883016
H    -4.788146  4.800748  -1.027187
N    0.009785  -2.816213  1.462312
C    0.438659  -4.198738  1.261694
H    -0.089872  -2.488878  2.418040
H    -0.048611  -4.838301  2.004770
H    1.527360  -4.290685  1.372244
H    0.147856  -4.518144  0.256981
Hg    1.761260  -1.359912  -2.238739
