36
Energy: -574587.860073 eV PBE+vdW (tier 2 basis)
C    0.170838  -0.137044  -0.963183
C    0.219450  -0.412377  0.504957
O    1.342415  -0.553879  1.070015
H    0.387717  0.926643  -1.144330
H    -0.797614  -0.400746  -1.400921
H    0.971339  -0.705820  -1.452265
N    -0.915645  -0.525546  1.233256
C    -2.076027  0.365097  1.119904
C    -1.635622  1.682763  1.797767
O    -0.879470  1.637159  2.812039
H    -0.745402  -0.826126  2.194713
H    -2.308855  0.499740  0.057043
C    -3.261735  -0.303040  1.849992
C    -4.624355  0.389915  1.757512
C    -5.319513  0.335343  0.381552
N    -5.736495  -1.000393  -0.015148
C    -5.105054  -1.757918  -0.963351
N    -5.745600  -2.858638  -1.419890
N    -3.902494  -1.358015  -1.351160
H    -2.994116  -0.397632  2.914319
H    -3.328916  -1.326138  1.452585
H    -4.557110  1.447073  2.055179
H    -5.285511  -0.071216  2.505093
H    -4.681846  0.722746  -0.419339
H    -6.222716  0.961469  0.421881
H    -6.603934  -1.353118  0.381348
H    -5.275647  -3.498944  -2.048075
H    -6.717145  -3.060417  -1.208801
H    -3.534318  -1.976699  -2.082184
N    -2.048135  2.873829  1.353776
C    -2.978141  3.207672  0.281251
H    -1.679135  3.656712  1.897773
H    -3.059709  2.384633  -0.433749
H    -2.599429  4.091074  -0.245795
H    -3.973822  3.445890  0.679267
Hg    1.421393  0.676728  3.110224
