36
Energy: -574588.001288 eV PBE+vdW (tier 2 basis)
C    -0.109253  -0.244550  -0.238937
C    -0.097711  -0.274397  1.265057
O    1.040273  -0.248393  1.816804
H    -1.125104  -0.292246  -0.650357
H    0.488003  -1.083527  -0.618991
H    0.380018  0.677005  -0.580339
N    -1.291898  -0.319675  1.876711
C    -1.673588  -0.525838  3.289850
C    -1.458986  0.761255  4.129638
O    -0.347651  1.122431  4.612964
H    -2.087761  -0.323139  1.232797
H    -2.764776  -0.657506  3.241248
C    -1.112678  -1.779415  3.980768
C    -1.234396  -3.130835  3.260114
C    -2.669993  -3.648159  2.953313
N    -3.152198  -3.273353  1.632447
C    -3.887107  -2.163120  1.298425
N    -4.707623  -1.621819  2.264009
N    -3.754995  -1.515943  0.169424
H    -1.600763  -1.836102  4.965851
H    -0.032479  -1.657042  4.207071
H    -0.755357  -3.875205  3.910538
H    -0.647911  -3.130912  2.329485
H    -3.383350  -3.327584  3.721388
H    -2.647255  -4.746522  2.986941
H    -2.656295  -3.696569  0.851074
H    -5.346488  -0.929747  1.876033
H    -5.169185  -2.272127  2.895712
H    -3.213479  -2.025026  -0.536677
N    -2.534328  1.506230  4.350516
C    -2.518389  2.755422  5.119257
H    -3.428162  1.170746  4.003904
H    -3.446032  3.297269  4.917530
H    -1.660345  3.364429  4.815834
H    -2.444536  2.543954  6.193523
Hg    1.631046  0.104701  4.004195
