36
Energy: -574590.147492 eV PBE+vdW (tier 2 basis)
C    -0.077973  -0.887656  -0.886572
C    -0.275852  -0.536893  0.548416
O    0.402954  -1.275598  1.392468
H    0.976242  -0.747147  -1.160646
H    -0.718670  -0.298265  -1.549940
H    -0.302722  -1.955491  -1.021844
N    -1.120762  0.413531  0.872531
C    -1.722175  0.814216  2.147895
C    -3.113659  1.366627  1.670504
O    -3.171500  1.807213  0.520664
H    -1.644960  0.911956  0.117989
H    -1.838818  -0.070085  2.794425
C    -0.912600  1.927840  2.857747
C    -1.393652  2.255277  4.287170
C    -0.255595  2.489065  5.292379
N    0.498230  1.235199  5.453071
C    1.827108  1.040878  5.352025
N    2.683396  1.968363  5.785952
N    2.252853  -0.115144  4.791894
H    -0.926988  2.826929  2.226349
H    0.147458  1.617419  2.884012
H    -2.018932  1.438102  4.685207
H    -2.040739  3.141237  4.283124
H    -0.664515  2.815922  6.258015
H    0.438038  3.263861  4.938695
H    -0.054704  0.386659  5.541774
H    2.402915  2.651444  6.483789
H    3.665250  1.946583  5.529280
H    3.215747  -0.403081  4.961857
N    -4.119088  1.363983  2.555403
C    -5.452763  1.886549  2.244373
H    -3.997482  0.877469  3.436792
H    -5.831126  2.455397  3.100300
H    -6.145846  1.066782  2.017144
H    -5.375775  2.541640  1.372712
Hg    1.298986  -0.731616  3.114088
