36
Energy: -574587.93659 eV PBE+vdW (tier 2 basis)
C    0.472564  -0.367825  0.297587
C    0.005622  -0.119941  1.693863
O    0.800174  0.246186  2.622438
H    1.115131  0.462258  -0.021343
H    -0.352857  -0.502993  -0.408526
H    1.093784  -1.276984  0.281976
N    -1.298902  -0.274343  1.972305
C    -1.860440  -0.168251  3.313334
C    -1.008241  -0.935395  4.348903
O    -0.342383  -1.956587  4.009760
H    -1.914822  -0.591166  1.174010
H    -1.816368  0.892699  3.614544
C    -3.337053  -0.659302  3.356304
C    -4.458815  0.393012  3.245643
C    -4.391124  1.431932  2.102015
N    -3.860961  0.911583  0.850417
C    -4.137478  -0.317056  0.280858
N    -5.415460  -0.747644  0.305826
N    -3.075712  -0.959941  -0.157241
H    -3.498353  -1.189603  4.304771
H    -3.448915  -1.439462  2.591654
H    -4.530155  0.974207  4.176635
H    -5.400578  -0.168207  3.182427
H    -3.740233  2.274470  2.367203
H    -5.393092  1.871603  1.962962
H    -3.008513  1.331290  0.493658
H    -6.184300  -0.088787  0.375759
H    -5.645934  -1.670651  -0.045260
H    -3.290445  -1.851716  -0.614724
N    -1.033969  -0.517495  5.615294
C    -1.757826  0.615157  6.189074
H    -0.500401  -1.102158  6.258473
H    -1.388760  0.779775  7.205016
H    -2.836927  0.420806  6.238983
H    -1.575335  1.530569  5.609477
Hg    1.953716  -1.517203  3.591299
