36
Energy: -574587.606671 eV PBE+vdW (tier 2 basis)
C    -0.832257  1.369089  0.841607
C    -0.893537  0.794546  2.217725
O    -0.257457  1.395077  3.133869
H    -1.749278  1.202786  0.270993
H    0.029716  0.946437  0.302683
H    -0.642956  2.445712  0.934314
N    -1.652517  -0.285659  2.560818
C    -1.747775  -1.616904  1.939685
C    -0.539723  -2.436720  2.465100
O    0.562437  -1.870295  2.736390
H    -1.745210  -0.341068  3.576593
H    -2.659173  -2.066949  2.360743
C    -1.851857  -1.651318  0.402625
C    -3.228650  -1.212558  -0.147774
C    -4.147348  -2.372118  -0.607652
N    -4.390138  -3.362286  0.438947
C    -3.580466  -4.434095  0.716149
N    -2.899567  -5.022241  -0.292853
N    -3.333742  -4.843956  1.953166
H    -1.623179  -2.677886  0.086137
H    -1.047443  -1.050476  -0.036068
H    -3.094971  -0.569126  -1.028633
H    -3.763218  -0.600039  0.594033
H    -3.717102  -2.868828  -1.484878
H    -5.118614  -1.965391  -0.920328
H    -4.977813  -3.060555  1.212721
H    -2.416395  -5.884869  -0.062080
H    -3.211504  -4.931197  -1.253318
H    -4.010561  -4.491892  2.638167
N    -0.693122  -3.750365  2.580588
C    0.328674  -4.648409  3.108658
H    -1.604903  -4.183835  2.311196
H    -0.167112  -5.536664  3.512423
H    0.909339  -4.147110  3.889555
H    1.017394  -4.957499  2.309059
Hg    1.098600  -0.123507  4.323913
