36
Energy: -574588.066471 eV PBE+vdW (tier 2 basis)
C    1.947825  0.758630  2.220215
C    1.197742  -0.137226  3.167206
O    1.899915  -0.754444  4.029436
H    2.525108  1.488406  2.802374
H    1.280370  1.283088  1.527184
H    2.671030  0.153544  1.657569
N    -0.135200  -0.162775  3.050746
C    -1.138164  -1.061995  3.643808
C    -1.197331  -0.941840  5.194699
O    -0.585952  -1.702526  5.995564
H    -0.507020  0.342235  2.211913
H    -2.093959  -0.641522  3.305365
C    -1.083261  -2.523584  3.148960
C    -0.950815  -2.720006  1.629048
C    -2.209476  -2.571932  0.743565
N    -3.023334  -1.363810  0.879224
C    -2.581073  -0.075953  0.826161
N    -3.452958  0.904840  1.207512
N    -1.337696  0.292310  0.560124
H    -1.967500  -3.044878  3.545144
H    -0.218436  -3.045111  3.602199
H    -0.618240  -3.754019  1.460657
H    -0.129937  -2.098545  1.247381
H    -2.893620  -3.404998  0.945404
H    -1.887417  -2.689859  -0.305268
H    -4.023483  -1.517116  0.973177
H    -3.208814  1.842392  0.900770
H    -4.448849  0.717065  1.265564
H    -0.825330  -0.449708  0.076168
N    -1.997269  0.005078  5.671980
C    -2.198827  0.272525  7.097342
H    -2.551383  0.539944  5.008115
H    -2.992568  -0.370056  7.500951
H    -2.486688  1.321273  7.216720
H    -1.270046  0.071968  7.640206
Hg    1.474801  -2.533764  5.365327
