36
Energy: -574588.90992 eV PBE+vdW (tier 2 basis)
C    -2.668732  -0.939283  2.288269
C    -1.318233  -0.350327  2.646099
O    -0.536322  -0.430285  1.551679
H    -3.180070  -1.323333  3.176027
H    -2.556100  -1.740191  1.549981
H    -3.283121  -0.153134  1.827374
N    -1.135498  0.131717  3.830194
C    0.015146  0.474492  4.677008
C    0.831788  1.782582  4.447890
O    1.652649  2.011499  3.478130
H    -4.163198  -0.431691  5.563048
H    -0.449712  0.666120  5.658672
C    0.996631  -0.710836  4.901124
C    0.334357  -2.085412  5.102958
C    -0.649830  -2.230391  6.269401
N    -1.925921  -1.555435  5.999400
C    -3.043230  -1.719812  6.712403
N    -3.069921  -2.528315  7.780150
N    -4.158899  -1.059427  6.356044
H    1.621572  -0.461209  5.772182
H    1.694848  -0.806497  4.053152
H    1.145230  -2.803987  5.284160
H    -0.152342  -2.419427  4.175104
H    -0.833308  -3.306458  6.413177
H    -0.203523  -1.838009  7.199243
H    -1.942834  -0.915526  5.181542
H    -3.923921  -2.690838  8.299887
H    -2.254065  -3.052328  8.067567
H    -5.023597  -1.156024  6.873411
N    0.742625  2.707024  5.385691
C    1.495416  3.965931  5.386183
H    0.139963  2.514182  6.180937
H    1.008034  4.658986  6.076844
H    1.503905  4.390423  4.377131
H    2.529609  3.792488  5.709881
Hg    1.126907  0.730661  1.863788
