36
Energy: -574588.320435 eV PBE+vdW (tier 2 basis)
C    -0.369493  -0.329471  -0.216084
C    -0.396407  -0.507016  1.275277
O    0.687657  -0.731946  1.867964
H    0.114354  0.630631  -0.444900
H    -1.370370  -0.342315  -0.662684
H    0.245663  -1.119212  -0.662184
N    -1.596201  -0.413417  1.896031
C    -1.801215  -0.377746  3.340113
C    -1.599020  -1.770667  3.994932
O    -0.633036  -1.942591  4.792887
H    -2.390329  -0.180252  1.305752
H    -0.995161  0.229489  3.783782
C    -3.135079  0.310533  3.682020
C    -3.475994  0.296260  5.176664
C    -4.838567  0.975084  5.425040
N    -5.286883  0.892927  6.805526
C    -5.979099  -0.176393  7.304244
N    -6.512756  -0.068228  8.544470
N    -6.063080  -1.241237  6.523149
H    -3.954410  -0.154215  3.113862
H    -3.056028  1.347757  3.321217
H    -2.691093  0.801703  5.758668
H    -3.547211  -0.735389  5.551470
H    -5.602896  0.505701  4.793193
H    -4.789085  2.041062  5.164298
H    -5.113077  1.688879  7.411381
H    -6.978426  -0.862810  8.965603
H    -6.563255  0.809489  9.050582
H    -6.601702  -1.991962  6.969096
N    -2.417884  -2.796884  3.764722
C    -3.689018  -2.849351  3.043795
H    -2.146057  -3.644159  4.265193
H    -3.877112  -3.894431  2.778259
H    -3.642606  -2.271670  2.116403
H    -4.519389  -2.495026  3.670317
Hg    1.387026  -0.887366  4.149383
