36
Energy: -574587.997911 eV PBE+vdW (tier 2 basis)
C    -0.325157  0.167790  0.049055
C    -0.445214  0.603490  1.481291
O    0.149315  1.640974  1.853151
H    -0.813972  0.916349  -0.589465
H    -0.771996  -0.815181  -0.138890
H    0.735055  0.148740  -0.230701
N    -1.196006  -0.163640  2.313084
C    -1.507782  0.193859  3.689258
C    -0.276979  0.084736  4.631087
O    0.141119  1.124889  5.211809
H    -1.654956  -0.971987  1.904170
H    -1.733569  1.273067  3.708959
C    -2.751304  -0.534871  4.235451
C    -4.063846  0.004931  3.644077
C    -5.331213  -0.555029  4.328026
N    -5.582117  -1.971554  4.096363
C    -6.130281  -2.535353  2.975478
N    -6.539367  -1.737874  1.956878
N    -6.237947  -3.837517  2.781408
H    -2.757858  -0.389033  5.326523
H    -2.666136  -1.618708  4.067744
H    -4.100434  1.097854  3.768937
H    -4.112912  -0.184720  2.561167
H    -6.204488  0.031860  4.002309
H    -5.267427  -0.413989  5.414761
H    -5.415058  -2.615423  4.862277
H    -7.001596  -2.216361  1.188538
H    -6.744265  -0.753563  2.080448
H    -5.966910  -4.390845  3.602754
N    0.339607  -1.071858  4.875695
C    -0.008604  -2.433214  4.477897
H    1.122019  -0.978210  5.525658
H    -0.682059  -2.902082  5.207772
H    0.915947  -3.018978  4.437184
H    -0.461454  -2.450773  3.483513
Hg    0.243539  3.065404  3.838996
