36
Energy: -574587.945193 eV PBE+vdW (tier 2 basis)
C    0.248998  -0.589295  1.058968
C    -0.265817  -0.927148  2.423228
O    0.477901  -1.125864  3.416613
H    0.351806  0.502382  0.966521
H    -0.397308  -0.952972  0.252979
H    1.249999  -1.015605  0.933732
N    -1.603548  -0.993945  2.666021
C    -2.684786  -0.405901  1.904974
C    -3.185139  0.870299  2.672841
O    -3.639387  0.720866  3.804862
H    -1.829649  -1.225603  3.638344
H    -2.309737  -0.134728  0.909893
C    -3.868053  -1.410812  1.803188
C    -5.042805  -0.864503  0.995199
C    -6.239070  -1.843406  0.875518
N    -6.957456  -2.072497  2.114734
C    -6.753417  -3.105660  2.988449
N    -7.529031  -3.186852  4.091780
N    -5.799054  -4.018428  2.869554
H    -4.170052  -1.645147  2.835037
H    -3.471804  -2.329997  1.346445
H    -4.730652  -0.638038  -0.036013
H    -5.407349  0.078810  1.428817
H    -5.918068  -2.806070  0.455596
H    -6.959167  -1.417835  0.163071
H    -7.607499  -1.341437  2.397454
H    -7.362359  -3.970313  4.715485
H    -8.385080  -2.657407  4.212680
H    -5.367358  -4.018983  1.939752
N    -3.074578  2.039974  2.023708
C    -3.426657  3.322477  2.635981
H    -2.650766  2.050713  1.101892
H    -3.831358  3.986056  1.864873
H    -2.547796  3.794618  3.094040
H    -4.177966  3.147372  3.412195
Hg    2.682398  -2.198986  3.483424
