36
Energy: -574589.423031 eV PBE+vdW (tier 2 basis)
C    -1.684579  0.040966  -1.034164
C    -1.195903  -0.321228  0.354130
O    -0.337948  -1.223899  0.475650
H    -0.953281  0.736467  -1.471913
H    -2.672913  0.509468  -1.030844
H    -1.690328  -0.860543  -1.654695
N    -1.713721  0.284072  1.447747
C    -2.163141  1.627966  1.624879
C    -1.103156  2.445645  2.462121
O    -0.327465  1.896958  3.275816
H    -7.655119  -0.484742  4.873485
H    -2.232554  2.135795  0.648148
C    -3.524767  1.701039  2.356901
C    -4.707554  1.125141  1.546535
C    -5.075142  -0.340928  1.807296
N    -5.820876  -0.493896  3.067113
C    -6.688533  -1.477947  3.347872
N    -6.766704  -2.561705  2.566049
N    -7.489907  -1.374260  4.418321
H    -3.736685  2.750272  2.599034
H    -3.408143  1.189830  3.326369
H    -4.497908  1.219529  0.471662
H    -5.603167  1.740265  1.715121
H    -4.170501  -0.969136  1.822947
H    -5.724333  -0.691571  0.992616
H    -5.670164  0.198447  3.793603
H    -6.044685  -2.786786  1.894113
H    -7.532341  -3.219273  2.658399
H    -8.013779  -2.170403  4.762722
N    -1.089388  3.772239  2.312014
C    -1.871123  4.603071  1.396335
H    -0.424726  4.249863  2.919188
H    -1.823000  4.226177  0.367554
H    -1.431805  5.604813  1.400711
H    -2.919440  4.690767  1.710015
Hg    -0.182264  -0.502492  2.865591
