36
Energy: -574588.01719 eV PBE+vdW (tier 2 basis)
C    -0.075510  0.232884  0.122733
C    -0.182351  0.312606  1.617984
O    0.704231  0.966983  2.228879
H    -0.877226  -0.360084  -0.331769
H    0.900690  -0.189438  -0.146508
H    -0.108684  1.252910  -0.284695
N    -1.228144  -0.312069  2.205231
C    -1.742822  -0.114840  3.563544
C    -1.205673  -1.197284  4.527255
O    0.031919  -1.242164  4.815121
H    -1.841253  -0.805641  1.563741
H    -1.273617  0.808810  3.943780
C    -3.265502  0.170359  3.560090
C    -4.219989  -0.601520  2.623992
C    -4.427905  -2.109545  2.810915
N    -4.810056  -2.436179  4.180251
C    -5.144608  -3.713219  4.635717
N    -4.922526  -4.766205  3.812445
N    -5.587896  -3.739276  5.865552
H    -3.370153  1.227586  3.279320
H    -3.611387  0.129085  4.603484
H    -3.945848  -0.437652  1.570474
H    -5.198506  -0.106710  2.718560
H    -3.512584  -2.678228  2.566740
H    -5.203116  -2.434209  2.093355
H    -5.336746  -1.734885  4.703144
H    -4.775285  -4.665447  2.814284
H    -5.149608  -5.699642  4.138104
H    -5.861938  -4.676220  6.180445
N    -2.025290  -2.075653  5.079282
C    -1.610250  -3.074353  6.066490
H    -3.023389  -2.079796  4.814464
H    -2.503089  -3.403726  6.607015
H    -0.892707  -2.633931  6.766474
H    -1.138625  -3.935685  5.575564
Hg    1.405232  0.570348  4.405622
