36
Energy: -574588.511001 eV PBE+vdW (tier 2 basis)
C    -0.046959  0.831913  1.744143
C    -0.983284  1.016108  2.897577
O    -0.614000  1.615954  3.932864
H    0.261647  -0.222829  1.676389
H    0.848237  1.435846  1.917176
H    -0.511258  1.120416  0.794066
N    -2.266400  0.534096  2.848554
C    -2.709827  -0.756516  2.315409
C    -1.900476  -1.899300  2.966587
O    -1.075664  -1.688909  3.960465
H    -2.808291  0.858635  3.648294
H    -3.737382  -0.871086  2.696649
C    -2.781694  -0.870031  0.779598
C    -3.656463  0.219262  0.147230
C    -3.730385  0.185030  -1.381660
N    -4.515695  -0.957429  -1.873867
C    -4.564154  -1.361055  -3.154412
N    -5.259565  -2.459963  -3.480799
N    -3.899561  -0.691984  -4.103639
H    -3.171191  -1.875722  0.564607
H    -1.771024  -0.846046  0.349465
H    -3.266279  1.211081  0.416406
H    -4.677746  0.189225  0.563271
H    -2.716974  0.111389  -1.804894
H    -4.182357  1.126249  -1.733888
H    -5.245001  -1.309731  -1.261190
H    -5.476484  -2.679679  -4.445872
H    -5.610496  -3.095141  -2.774950
H    -3.567100  0.251937  -3.952632
N    -1.922501  -3.077833  2.458127
C    -1.647230  -4.350857  3.034827
H    -3.810130  -1.065471  -5.041572
H    -0.625363  -4.666115  2.766057
H    -2.313543  -5.095614  2.567053
H    -1.783639  -4.370033  4.124386
Hg    -0.834346  -0.165914  5.670678
