36
Energy: -574589.764708 eV PBE+vdW (tier 2 basis)
C    -0.752381  -0.154372  -0.267250
C    -0.907602  -1.155194  0.824852
O    -0.567496  -2.390857  0.523666
H    -1.380856  -0.476600  -1.112286
H    0.281855  -0.146202  -0.634530
H    -1.058867  0.851674  0.035564
N    -1.410689  -0.781907  1.979179
C    -2.055664  -1.502341  3.088260
C    -2.820449  -0.326148  3.799945
O    -2.499028  0.830144  3.502825
H    -1.618442  0.237184  2.152587
H    -2.780128  -2.211724  2.659983
C    -1.148825  -2.279346  4.073294
C    0.149695  -1.592345  4.521010
C    1.049180  -2.534453  5.371497
N    2.441186  -2.632562  4.890792
C    2.818048  -3.202966  3.740645
N    3.982650  -2.894186  3.166010
N    2.038294  -4.143713  3.096293
H    -0.926557  -3.270329  3.639110
H    -1.762395  -2.512527  4.956078
H    -0.080447  -0.682003  5.090252
H    0.719807  -1.235714  3.646651
H    0.618017  -3.543855  5.431907
H    1.116255  -2.184245  6.406451
H    3.146895  -2.131983  5.427561
H    4.373026  -3.536059  2.481935
H    4.584495  -2.152428  3.511432
H    1.464299  -4.663301  3.765286
N    -3.755543  -0.666285  4.692994
C    -4.559802  0.315897  5.425553
H    -4.013839  -1.643820  4.786501
H    -4.596883  0.044104  6.486055
H    -5.580017  0.350248  5.023676
H    -4.096275  1.299191  5.312973
Hg    0.759542  -3.365507  1.709047
