36
Energy: -574589.441386 eV PBE+vdW (tier 2 basis)
C    -0.143152  1.749947  0.922163
C    0.225492  0.300341  1.048077
O    1.313641  -0.172961  0.823402
H    -0.436714  2.175367  1.892506
H    -0.975163  1.896461  0.218028
H    0.727775  2.295986  0.549432
N    -0.784536  -0.627572  1.527720
C    -2.234358  -0.447499  1.432382
C    -2.677152  0.606700  2.461762
O    -2.154177  0.658591  3.638602
H    -0.482414  -1.550361  1.219135
H    -2.526933  -0.107427  0.427805
C    -2.988848  -1.780079  1.746953
C    -2.449716  -3.085280  1.113587
C    -1.337263  -3.884535  1.838615
N    -1.694166  -4.358906  3.184931
C    -1.313443  -3.827529  4.358505
N    -1.951870  -4.160061  5.483398
N    -0.272623  -2.928955  4.498571
H    -4.022695  -1.639464  1.404295
H    -3.079164  -1.915028  2.839515
H    -2.097920  -2.904109  0.085553
H    -3.310962  -3.758491  0.995825
H    -0.387934  -3.342047  1.912389
H    -1.112902  -4.773676  1.235053
H    -2.319269  -5.163092  3.218749
H    -1.497870  -3.959122  6.369749
H    -2.783187  -4.743019  5.499417
H    0.465605  -3.093974  3.808633
N    -3.622711  1.477251  2.172265
C    -4.335808  1.652132  0.898678
H    -3.870132  2.111244  2.933739
H    -3.642321  1.909015  0.088828
H    -5.036618  2.481737  1.024014
H    -4.908973  0.755522  0.636264
Hg    -0.954949  -1.005942  4.140385
