36
Energy: -574589.873878 eV PBE+vdW (tier 2 basis)
C    0.148981  -0.507377  -0.726556
C    0.205902  -0.151948  0.719519
O    1.238434  -0.638697  1.361572
H    1.031775  -0.104374  -1.241003
H    -0.763421  -0.139841  -1.206685
H    0.194862  -1.601483  -0.823623
N    -0.757653  0.568468  1.250288
C    -1.108833  0.849210  2.642686
C    -2.667532  1.016201  2.550559
O    -3.135466  1.329422  1.455672
H    -1.564561  0.865864  0.657503
H    -0.846638  -0.022336  3.265271
C    -0.451734  2.143943  3.201430
C    -0.352985  2.149266  4.740690
C    0.797023  3.014881  5.327975
N    1.721539  2.231959  6.175901
C    2.529486  1.264722  5.723456
N    2.909882  0.254528  6.509200
N    3.026498  1.292972  4.443567
H    -1.009408  3.017525  2.835622
H    0.551811  2.256061  2.755767
H    -0.213663  1.116799  5.101753
H    -1.307344  2.480231  5.169355
H    0.409777  3.812876  5.969158
H    1.362637  3.523362  4.535434
H    1.601999  2.318736  7.183284
H    3.751620  -0.262775  6.272110
H    2.513722  0.105019  7.432299
H    3.084826  2.253850  4.098430
N    -3.367011  0.861671  3.683618
C    -4.822418  1.028333  3.744205
H    -2.901035  0.480092  4.499604
H    -5.328441  0.057335  3.671433
H    -5.137209  1.657549  2.907509
H    -5.094026  1.510540  4.688881
Hg    2.137072  0.211323  2.968556
