36
Energy: -574588.697664 eV PBE+vdW (tier 2 basis)
C    0.109458  -0.193328  0.074430
C    0.203207  -0.289934  1.588559
O    1.404595  -0.809642  1.892462
H    1.103203  -0.148893  -0.379276
H    -0.457215  0.701894  -0.203084
H    -0.400094  -1.086880  -0.313713
N    -0.802183  0.105877  2.296973
C    -1.273549  -0.094789  3.674398
C    -0.581391  0.643975  4.859276
O    0.548379  0.330685  5.395936
H    -2.376827  -0.047913  1.334269
H    -2.275308  0.363088  3.668993
C    -1.488191  -1.588334  4.040318
C    -2.216336  -2.406581  2.962754
C    -3.743376  -2.324492  2.912151
N    -4.398592  -0.998158  2.720952
C    -4.429010  -0.289307  1.563564
N    -5.591408  0.240657  1.157659
N    -3.310107  -0.092918  0.863114
H    -2.027992  -1.636096  4.998677
H    -0.515916  -2.075704  4.225673
H    -2.006497  -3.469536  3.152199
H    -1.784088  -2.206699  1.973846
H    -4.154291  -2.690907  3.861173
H    -4.097736  -3.007938  2.126228
H    -5.246690  -0.899422  3.272285
H    -5.623818  0.971186  0.454442
H    -6.480753  -0.131261  1.472561
H    -3.377449  0.307539  -0.066616
N    -1.260766  1.627104  5.421010
C    -0.804720  2.396204  6.583148
H    -2.177676  1.841359  5.039211
H    -1.355427  3.340224  6.610760
H    0.268403  2.593345  6.495290
H    -0.990093  1.836714  7.508970
Hg    1.719884  -0.685071  3.922905
