36
Energy: -574588.138272 eV PBE+vdW (tier 2 basis)
C    0.223270  -1.653899  0.205404
C    0.089291  -0.884871  1.488432
O    0.913185  0.064388  1.660167
H    0.137324  -0.953230  -0.635837
H    -0.536761  -2.435234  0.104119
H    1.225617  -2.097989  0.154345
N    -0.879502  -1.248379  2.345271
C    -1.330043  -0.487761  3.512478
C    -0.455374  -0.787485  4.754666
O    0.388458  0.087732  5.185725
H    -1.473158  -2.032601  2.055336
H    -1.140832  0.572173  3.278952
C    -2.863754  -0.602626  3.790933
C    -3.773250  -1.054484  2.627522
C    -4.142073  -2.547781  2.561112
N    -3.034999  -3.476206  2.260490
C    -2.263652  -4.076531  3.235287
N    -1.287399  -4.918707  2.813520
N    -2.330417  -3.802336  4.524772
H    -3.175905  0.400851  4.106149
H    -3.033989  -1.235605  4.667773
H    -3.377950  -0.719152  1.656739
H    -4.728773  -0.523248  2.739620
H    -4.880385  -2.683876  1.761817
H    -4.650006  -2.856923  3.487535
H    -3.142106  -3.994378  1.390826
H    -0.870053  -5.518117  3.518343
H    -1.241125  -5.249951  1.856480
H    -3.214106  -3.338633  4.752408
N    -0.580341  -1.921029  5.402041
C    0.239646  -2.301879  6.552331
H    -1.290758  -2.664377  5.067756
H    0.120925  -3.378804  6.702771
H    -0.104545  -1.778404  7.454568
H    1.292486  -2.050380  6.381971
Hg    1.261674  1.305033  3.547062
