36
Energy: -574590.153836 eV PBE+vdW (tier 2 basis)
C    -0.384328  0.790635  -0.126761
C    -0.192703  0.200861  1.229346
O    0.821453  -0.621088  1.323542
H    0.508392  1.360188  -0.417079
H    -1.271714  1.429079  -0.178975
H    -0.487776  -0.029431  -0.852351
N    -1.031759  0.509762  2.193863
C    -1.423906  -0.172839  3.437658
C    -2.991202  -0.232264  3.244287
O    -3.497132  0.612526  2.501184
H    -1.883090  1.054130  1.907130
H    -1.003439  -1.189851  3.465833
C    -1.136944  0.610882  4.746711
C    0.192284  0.355047  5.479860
C    1.361455  1.244548  5.029370
N    2.645762  0.919600  5.659046
C    3.406998  -0.180600  5.502485
N    4.449419  -0.354071  6.330614
N    3.156311  -1.112651  4.562935
H    -1.939866  0.340461  5.445285
H    -1.282510  1.683626  4.549783
H    0.456611  -0.713185  5.417035
H    0.037370  0.543287  6.551255
H    1.153669  2.287593  5.299452
H    1.476965  1.281331  3.927437
H    3.022069  1.626810  6.281963
H    5.168939  -1.042761  6.143050
H    4.558205  0.198150  7.174268
H    3.734191  -1.948017  4.606690
N    -3.651736  -1.168624  3.933415
C    -5.111054  -1.301770  3.914842
H    -3.124560  -1.831811  4.492274
H    -5.389397  -2.308341  3.582272
H    -5.516414  -0.562992  3.218815
H    -5.521207  -1.122337  4.915864
Hg    1.963747  -0.914801  2.952056
