36
Energy: -574590.510234 eV PBE+vdW (tier 2 basis)
C    -0.165880  1.356985  0.421487
C    -0.024135  0.573009  1.690214
O    1.168762  0.189582  1.950487
H    0.191150  0.745363  -0.417759
H    0.487628  2.238204  0.477279
H    -1.192710  1.681490  0.223343
N    -1.138683  0.367455  2.407367
C    -1.440118  -0.296714  3.708776
C    -0.697904  0.449065  4.834245
O    0.542008  0.327414  4.972945
H    -1.957013  0.783567  1.971020
H    -2.517980  -0.129694  3.841351
C    -1.230152  -1.827000  3.636621
C    -1.565319  -2.706713  4.856379
C    -0.698635  -2.604944  6.138638
N    0.724714  -2.329475  5.914032
C    1.683543  -3.127333  5.408838
N    1.711260  -4.435306  5.695109
N    2.618710  -2.555430  4.619457
H    -0.206258  -2.056275  3.300829
H    -1.860587  -2.172397  2.804690
H    -1.519459  -3.741011  4.487634
H    -2.612328  -2.554307  5.159117
H    -0.829892  -3.522244  6.726314
H    -1.046115  -1.790918  6.786155
H    0.935898  -1.332040  5.846085
H    1.247863  -4.793702  6.523748
H    2.340820  -5.066493  5.212194
H    3.477468  -3.069128  4.435080
N    -1.442592  1.226522  5.622983
C    -0.911386  2.043114  6.715233
H    -2.442960  1.274021  5.451450
H    -1.259266  1.657005  7.681556
H    -1.257511  3.076505  6.599623
H    0.180341  2.015797  6.679056
Hg    1.967723  -1.079969  3.371430
