36
Energy: -574587.889666 eV PBE+vdW (tier 2 basis)
C    0.354306  0.369486  0.378749
C    0.056095  0.120442  1.830542
O    0.931864  0.382900  2.684484
H    -0.473740  0.096258  -0.285158
H    1.248437  -0.202556  0.099363
H    0.598327  1.430950  0.241577
N    -1.164997  -0.387096  2.141403
C    -1.640740  -0.620294  3.499522
C    -0.931792  -1.825919  4.176104
O    -0.213928  -1.624378  5.195390
H    -1.795202  -0.578055  1.368827
H    -1.314614  0.232584  4.115486
C    -3.180100  -0.703034  3.595360
C    -3.911410  0.638970  3.785754
C    -3.995812  1.542506  2.535787
N    -4.756614  2.761364  2.774843
C    -6.117502  2.904334  2.796321
N    -6.917164  1.867293  2.457268
N    -6.737233  4.017427  3.154407
H    -3.422931  -1.324695  4.468979
H    -3.585147  -1.246567  2.727401
H    -3.443588  1.205702  4.604564
H    -4.931917  0.412406  4.126281
H    -4.443001  0.995643  1.689190
H    -2.997743  1.856979  2.203533
H    -4.238474  3.592306  3.041119
H    -7.915314  2.056554  2.446150
H    -6.588042  1.006112  2.042058
H    -6.092272  4.785052  3.377228
N    -1.074871  -3.077701  3.738497
C    -1.970228  -3.623875  2.721348
H    -0.554158  -3.757920  4.294624
H    -1.552899  -4.578451  2.385158
H    -2.973676  -3.809510  3.127108
H    -2.034196  -2.961993  1.853000
Hg    1.217878  0.268182  5.124964
