36
Energy: -574590.6163 eV PBE+vdW (tier 2 basis)
C    -0.492158  1.802704  0.627628
C    -0.290477  0.795416  1.716681
O    0.923111  0.468843  1.943950
H    -1.541707  2.078602  0.481722
H    -0.090266  1.397079  -0.310657
H    0.090692  2.702732  0.864328
N    -1.382409  0.340535  2.346491
C    -1.568647  -0.641241  3.443282
C    -0.908398  -0.123665  4.739513
O    0.326260  -0.209503  4.915911
H    -2.244759  0.750375  1.998528
H    -2.654958  -0.659021  3.604557
C    -1.139337  -2.067365  3.034546
C    -1.083725  -3.110318  4.175321
C    0.227981  -3.924802  4.264204
N    1.183304  -3.472406  5.294976
C    2.474346  -3.119037  5.125112
N    3.353847  -3.438574  6.089599
N    2.895445  -2.465326  4.027311
H    -0.171245  -2.035826  2.509022
H    -1.837053  -2.396739  2.253074
H    -1.903738  -3.824257  4.032995
H    -1.271802  -2.642392  5.152141
H    0.753945  -3.953214  3.301618
H    -0.014874  -4.967431  4.509387
H    0.942216  -3.739691  6.245706
H    3.187573  -4.210942  6.726342
H    4.247257  -2.964569  6.164386
H    3.900559  -2.480855  3.870655
N    -1.732706  0.415468  5.642115
C    -1.298707  1.003748  6.908649
H    -2.727327  0.435747  5.437004
H    -1.742308  0.456378  7.749029
H    -1.615987  2.052162  6.958333
H    -0.209113  0.948980  6.966595
Hg    1.836168  -0.957593  3.158943
