36
Energy: -574588.68757 eV PBE+vdW (tier 2 basis)
C    0.196444  0.877253  0.538173
C    -0.053519  0.603939  1.996562
O    0.958520  0.762111  2.776175
H    -0.693343  0.686261  -0.067474
H    1.036154  0.264598  0.186520
H    0.495145  1.926818  0.411934
N    -1.278979  0.213059  2.375377
C    -1.546516  0.228380  3.768657
C    -0.681706  -0.793283  4.632716
O    0.001170  -0.363611  5.596350
H    -2.580770  -0.686558  -1.097856
H    -1.160370  1.189894  4.210813
C    -3.038593  0.210049  4.189170
C    -4.092901  -0.610793  3.421400
C    -4.722894  0.048931  2.190219
N    -3.826612  0.041461  1.031130
C    -4.232777  0.172678  -0.233385
N    -5.489999  0.529878  -0.526784
N    -3.361144  -0.057660  -1.236859
H    -3.361795  1.263073  4.188567
H    -3.066060  -0.084773  5.248590
H    -4.921422  -0.775438  4.124236
H    -3.736761  -1.612501  3.154122
H    -5.027876  1.080202  2.438993
H    -5.630563  -0.512619  1.926280
H    -2.812861  0.068978  1.254951
H    -5.855908  0.444767  -1.467870
H    -6.100087  0.943115  0.167323
H    -3.604663  0.161492  -2.195592
N    -0.727943  -2.100731  4.400935
C    -1.409258  -2.859465  3.358437
H    -0.203261  -2.650059  5.083807
H    -2.268420  -3.402385  3.771557
H    -0.697738  -3.588637  2.951201
H    -1.723446  -2.197426  2.549051
Hg    0.943446  1.682457  4.864423
