36
Energy: -574588.237824 eV PBE+vdW (tier 2 basis)
C    0.415292  0.629871  0.622884
C    0.005638  0.556574  2.065180
O    0.916330  0.559557  2.936655
H    -0.431699  0.724739  -0.065530
H    0.986219  -0.274243  0.371432
H    1.091349  1.483876  0.489933
N    -1.321458  0.504786  2.324758
C    -2.000487  0.412022  3.628607
C    -1.638140  1.633977  4.509153
O    -0.801972  1.573618  5.448717
H    -1.922070  0.498305  1.505951
H    -3.068479  0.521451  3.397406
C    -1.815792  -0.986883  4.271743
C    -2.215988  -1.141862  5.754121
C    -1.132970  -1.822561  6.610287
N    -1.403096  -1.832265  7.969868
C    -1.043519  -2.766125  8.947706
N    -0.279463  -3.824310  8.594575
N    -1.564983  -2.468074  10.102091
H    -0.777529  -1.325235  4.115915
H    -2.403691  -1.682029  3.657634
H    -3.116079  -1.766834  5.836526
H    -2.462722  -0.174429  6.210281
H    -0.103111  -1.202369  6.403917
H    -0.866091  -2.824888  6.244522
H    -1.917539  -1.057325  8.394402
H    -0.038116  -4.508633  9.302397
H    0.255383  -3.867754  7.736528
H    -1.381237  -3.160681  10.836302
N    -2.270596  2.782702  4.264789
C    -3.316154  3.068443  3.279790
H    -1.969331  3.553604  4.860878
H    -4.190134  2.418506  3.416738
H    -3.644138  4.100881  3.428422
H    -2.935922  2.976925  2.254670
Hg    0.988563  0.021010  5.190543
