36
Energy: -574589.071145 eV PBE+vdW (tier 2 basis)
C    0.872469  -0.789235  1.413284
C    0.701705  -0.636971  2.801573
O    1.760431  -0.891046  3.485981
H    0.096007  -1.229797  0.787472
H    -4.383636  -3.358999  5.070938
H    1.866229  -0.644440  0.996270
N    -0.506066  -0.425469  3.408458
C    -1.454024  0.567669  2.926014
C    -0.959909  1.993107  3.352455
O    -0.127636  2.130599  4.261010
H    -0.451847  -0.486959  4.425199
H    -1.459113  0.516465  1.826100
C    -2.863826  0.288556  3.479231
C    -3.481876  -1.030435  2.992680
C    -4.911791  -1.207653  3.527938
N    -5.600379  -2.389450  2.995963
C    -5.855110  -3.536839  3.642002
N    -6.760692  -4.389393  3.142475
N    -5.218956  -3.847666  4.779315
H    -3.519863  1.124981  3.200527
H    -2.811649  0.308054  4.580610
H    -2.854817  -1.883511  3.292733
H    -3.511481  -1.040466  1.891581
H    -5.526502  -0.336093  3.260853
H    -4.929263  -1.260658  4.625313
H    -5.977955  -2.312753  2.056448
H    -6.819195  -5.347171  3.468436
H    -7.439679  -4.096704  2.449790
H    -5.552522  -4.595098  5.376482
N    -1.483372  3.059814  2.720766
C    -2.455586  3.118530  1.635809
H    -1.154103  3.949245  3.093056
H    -2.389937  2.233226  0.994149
H    -2.231691  3.991810  1.013725
H    -3.484128  3.219886  2.010578
Hg    2.168923  0.734295  5.097129
