36
Energy: -574588.487534 eV PBE+vdW (tier 2 basis)
C    0.755419  -1.618489  1.382615
C    0.226613  -0.546088  2.291564
O    0.275725  -0.803134  3.535406
H    0.655138  -1.366912  0.321109
H    0.208652  -2.549715  1.584781
H    1.809569  -1.805587  1.624774
N    -0.249935  0.574701  1.724483
C    -1.101145  1.674685  2.238658
C    -0.298693  2.797859  2.916355
O    0.462379  2.656012  3.939414
H    -0.138245  0.590216  0.714591
H    -1.485990  2.147518  1.323972
C    -2.338288  1.175447  3.017574
C    -3.201588  2.242188  3.715748
C    -3.719671  3.434235  2.884467
N    -4.260436  3.100612  1.571835
C    -3.735070  3.567595  0.395217
N    -4.562700  3.590568  -0.674839
N    -2.456603  3.914493  0.352117
H    -2.059393  0.426268  3.772590
H    -2.947655  0.624381  2.286125
H    -2.664717  2.676371  4.574952
H    -4.056675  1.705879  4.150923
H    -2.938911  4.182176  2.727163
H    -4.509378  3.931646  3.466812
H    -5.215245  2.754507  1.542976
H    -4.205162  3.805742  -1.597135
H    -5.567486  3.489573  -0.589658
H    -2.227004  4.364541  -0.537793
N    -0.431544  3.987370  2.366266
C    0.205426  5.202322  2.869891
H    -1.096627  4.049408  1.550405
H    1.238818  5.271352  2.505380
H    -0.358761  6.064797  2.503368
H    0.220851  5.199881  3.965298
Hg    0.339213  0.779904  5.135718
