36
Energy: -574590.145193 eV PBE+vdW (tier 2 basis)
C    -0.324504  -1.822422  1.001104
C    -0.717244  -0.655233  1.856765
O    -0.115797  0.410595  1.893805
H    -0.099412  -1.468808  -0.011663
H    -1.080402  -2.614925  0.959029
H    0.605893  -2.249616  1.401522
N    -1.840625  -0.846984  2.687460
C    -2.322971  0.301997  3.414563
C    -2.059011  0.210205  4.921340
O    -2.107288  1.259826  5.693857
H    -2.503255  -1.569564  2.416378
H    -1.641593  1.111719  3.068947
C    -3.794791  0.657354  3.099156
C    -4.066745  1.128778  1.656312
C    -3.271377  2.332320  1.117496
N    -3.281923  3.447558  2.079569
C    -2.289153  4.343152  2.288279
N    -1.561801  4.797085  1.269588
N    -2.055597  4.714494  3.570225
H    -4.152257  1.409142  3.821944
H    -4.426750  -0.222057  3.296557
H    -5.142912  1.345866  1.585395
H    -3.892682  0.305403  0.949248
H    -3.710627  2.632860  0.155267
H    -2.218957  2.068801  0.938503
H    -4.090035  3.541288  2.688898
H    -0.676297  5.272348  1.415323
H    -1.912312  4.752108  0.316917
H    -1.487211  5.542164  3.747418
N    -1.778389  -0.949811  5.455242
C    -1.478799  -1.219618  6.863281
H    -1.732490  -1.723453  4.789113
H    -2.332258  -1.726744  7.330507
H    -1.282594  -0.279908  7.384468
H    -0.599780  -1.870637  6.917346
Hg    -2.039379  3.092360  4.791647
