36
Energy: -574590.225498 eV PBE+vdW (tier 2 basis)
C    -0.215591  1.067274  0.290576
C    -0.824159  1.079432  1.659854
O    -0.709688  2.043900  2.433119
H    -0.459001  2.005722  -0.221469
H    -0.535490  0.218877  -0.324242
H    0.878086  1.036785  0.394774
N    -1.522473  -0.045074  2.045968
C    -2.161067  -0.057089  3.342053
C    -1.178578  -0.435123  4.468901
O    -0.737855  0.465760  5.283241
H    -1.644966  -0.814041  1.394169
H    -2.346339  1.010776  3.512949
C    -3.558922  -0.686143  3.413899
C    -4.646114  0.306473  2.945839
C    -4.749366  1.636451  3.736029
N    -4.140770  2.792222  3.026363
C    -3.614368  3.926721  3.557635
N    -3.861158  5.088417  2.932883
N    -2.842782  3.913961  4.660379
H    -3.762496  -0.976152  4.455660
H    -3.619795  -1.612716  2.823833
H    -5.614078  -0.204110  3.025295
H    -4.518591  0.526381  1.874866
H    -4.300326  1.556953  4.735535
H    -5.809860  1.871720  3.905133
H    -4.505392  2.921476  2.085075
H    -3.276099  5.903517  3.085075
H    -4.680172  5.214801  2.346842
H    -2.652601  4.820473  5.081267
N    -0.770187  -1.677549  4.605246
C    0.186787  -2.159917  5.608737
H    -1.126816  -2.359031  3.938908
H    1.189299  -2.226626  5.167298
H    -0.128630  -3.152740  5.944348
H    0.205825  -1.470032  6.455652
Hg    -1.554179  2.366150  4.979722
