36
Energy: -574588.02641 eV PBE+vdW (tier 2 basis)
C    -1.348352  -0.289976  -0.562197
C    -0.845535  -0.244982  0.849763
O    0.389965  0.004085  0.978952
H    -2.439989  -0.491683  -0.613235
H    -0.782746  -1.039913  -1.129276
H    -1.161047  0.684791  -1.035373
N    -1.724576  -0.452091  1.842955
C    -1.610413  -0.079246  3.263665
C    -1.114685  -1.262768  4.120501
O    0.012995  -1.794855  3.892012
H    -2.695415  -0.587819  1.523417
H    -0.788794  0.655698  3.338692
C    -2.879439  0.690656  3.704336
C    -4.272888  0.019616  3.864919
C    -4.755379  -1.043979  2.867166
N    -4.620722  -0.605839  1.481580
C    -4.845502  -1.395619  0.359040
N    -5.297642  -2.658347  0.544682
N    -4.523863  -0.825505  -0.777423
H    -2.965375  1.519504  2.987212
H    -2.647341  1.181943  4.660377
H    -4.998667  0.846471  3.875365
H    -4.389539  -0.427279  4.864808
H    -5.804032  -1.280578  3.119738
H    -4.182224  -1.979843  2.977354
H    -4.758875  0.382826  1.276407
H    -5.401963  -3.266384  -0.260972
H    -5.814945  -2.930677  1.374433
H    -4.696820  -1.418483  -1.595931
N    -1.855993  -1.713436  5.123036
C    -1.437535  -2.782675  6.033745
H    -2.777950  -1.309194  5.254013
H    -1.986532  -2.673835  6.973298
H    -0.361579  -2.703835  6.218244
H    -1.649599  -3.767583  5.598003
Hg    1.668651  -0.598525  2.775293
