36
Energy: -574589.043274 eV PBE+vdW (tier 2 basis)
C    0.416032  1.122794  0.027577
C    0.217113  1.154841  1.494945
O    1.150999  1.667952  2.223683
H    0.409800  2.150473  -0.364747
H    -0.324018  0.504979  -0.488653
H    1.423598  0.726943  -0.171633
N    -0.889720  0.638059  2.074620
C    -2.276739  0.918533  1.643981
C    -2.304720  2.387285  1.154204
O    -1.599936  3.220420  1.766597
H    -0.791682  0.486405  3.074896
H    -2.577100  0.193444  0.877800
C    -3.279308  0.879917  2.843032
C    -3.101284  -0.137371  3.985200
C    -2.144632  0.179929  5.152162
N    -2.460563  1.312851  6.062136
C    -1.729863  2.451914  6.136798
N    -1.356481  2.936620  7.317755
N    -1.415260  3.197836  5.027721
H    -4.263696  0.700101  2.391287
H    -3.349320  1.891418  3.269672
H    -2.793657  -1.118630  3.590609
H    -4.095674  -0.309205  4.421037
H    -1.098298  0.317957  4.837790
H    -2.121423  -0.709800  5.796348
H    -2.934795  1.036429  6.921185
H    -1.066118  3.908881  7.383589
H    -1.403677  2.395281  8.176365
H    -2.162771  3.114641  4.330501
N    -3.115514  2.724314  0.149749
C    -3.981629  1.853470  -0.650712
H    -3.136100  3.723098  -0.052511
H    -4.409577  2.453749  -1.458229
H    -4.810069  1.446139  -0.057065
H    -3.414203  1.034391  -1.109096
Hg    0.166468  2.702105  3.795042
