36
Energy: -574590.041485 eV PBE+vdW (tier 2 basis)
C    0.625061  -0.220565  1.125503
C    0.196159  0.170179  2.490185
O    1.119622  0.489690  3.335457
H    0.797163  0.691515  0.530910
H    -0.105624  -0.857608  0.618440
H    1.592994  -0.733498  1.191889
N    -1.095172  0.180173  2.855005
C    -2.201035  0.710681  2.050107
C    -1.941996  2.238823  1.888983
O    -1.178670  2.831176  2.677110
H    -1.244593  0.329315  3.853288
H    -2.173518  0.235924  1.059162
C    -3.570791  0.380497  2.690436
C    -3.808890  0.585590  4.203490
C    -3.715686  1.998754  4.825165
N    -2.419412  2.196038  5.493738
C    -1.760156  3.367452  5.675888
N    -2.412191  4.530543  5.630930
N    -0.429409  3.301258  5.879629
H    -3.779386  -0.678508  2.483748
H    -4.330758  0.944789  2.131285
H    -3.186581  -0.109266  4.793829
H    -4.829954  0.220760  4.378351
H    -4.533250  2.122743  5.550491
H    -3.823127  2.783289  4.064642
H    -2.101471  1.435356  6.090018
H    -1.911839  5.409434  5.546785
H    -3.408698  4.583405  5.818025
H    0.045888  4.123444  6.247035
N    -2.585043  2.834524  0.878336
C    -2.489020  4.259765  0.564170
H    -3.163156  2.262704  0.268594
H    -3.442025  4.764559  0.766769
H    -2.238002  4.387573  -0.494819
H    -1.700993  4.701042  1.179454
Hg    0.509186  1.960693  4.668372
