36
Energy: -574587.964832 eV PBE+vdW (tier 2 basis)
C    -0.832162  -0.742565  -0.002829
C    -0.536365  -0.826333  1.468398
O    0.670528  -0.858320  1.828682
H    -0.210286  -1.475481  -0.531911
H    -0.529546  0.250281  -0.364446
H    -1.886298  -0.912969  -0.248000
N    -1.597775  -0.881610  2.303013
C    -1.679946  -1.149521  3.748575
C    -1.454204  0.123001  4.581696
O    -0.556709  0.966660  4.308673
H    -2.495980  -0.792994  1.837991
H    -2.724350  -1.454973  3.899134
C    -0.774645  -2.297273  4.262268
C    -0.953645  -3.653256  3.554952
C    -2.160372  -4.498170  3.974422
N    -2.025591  -4.998295  5.327857
C    -2.908005  -5.791329  6.011979
N    -4.069283  -6.158953  5.422816
N    -2.508948  -6.097745  7.233606
H    -0.967663  -2.391977  5.342283
H    0.277828  -2.003210  4.172805
H    -0.042621  -4.248392  3.716243
H    -1.009012  -3.509440  2.467518
H    -2.250619  -5.346299  3.270232
H    -3.106232  -3.929882  3.894368
H    -1.142998  -4.896750  5.825651
H    -4.708248  -6.763778  5.926412
H    -4.251092  -6.037126  4.432987
H    -3.178617  -6.690555  7.738229
N    -2.244693  0.350098  5.634678
C    -3.447781  -0.371115  6.051295
H    -2.004644  1.196171  6.152437
H    -4.248352  -0.288130  5.303923
H    -3.806456  0.081967  6.979739
H    -3.229526  -1.427331  6.254393
Hg    1.611936  0.488273  3.513304
