36
Energy: -574587.920255 eV PBE+vdW (tier 2 basis)
C    -0.052696  -0.397622  0.599833
C    -0.106997  0.045650  2.028003
O    0.939728  -0.007740  2.726943
H    -1.024762  -0.742187  0.231257
H    0.684371  -1.204123  0.509793
H    0.308834  0.432192  -0.026703
N    -1.267286  0.479092  2.585056
C    -2.227363  1.373410  1.937156
C    -1.734837  2.810805  2.252356
O    -0.992599  3.011058  3.245656
H    -1.160429  0.699998  3.577283
H    -2.193553  1.192339  0.854516
C    -3.653986  1.131161  2.474782
C    -4.182118  -0.272629  2.140601
C    -5.529362  -0.616941  2.781817
N    -6.624183  0.152163  2.227933
C    -7.907085  0.226635  2.697298
N    -8.261672  -0.460472  3.803257
N    -8.684644  1.017917  1.973728
H    -4.319018  1.906929  2.069078
H    -3.643429  1.284790  3.565974
H    -3.463136  -1.027307  2.488647
H    -4.256027  -0.406263  1.048905
H    -5.491982  -0.444502  3.872467
H    -5.726714  -1.696889  2.640094
H    -6.523188  0.613307  1.325629
H    -9.207888  -0.381617  4.158399
H    -7.664896  -1.148575  4.248387
H    -9.644107  1.077393  2.336637
N    -2.122844  3.837434  1.485820
C    -3.075853  3.860269  0.382105
H    -1.748909  4.737533  1.790451
H    -2.732766  4.587973  -0.361835
H    -4.075193  4.163244  0.725450
H    -3.139379  2.881394  -0.103206
Hg    1.277840  1.958902  4.101356
