36
Energy: -574587.967455 eV PBE+vdW (tier 2 basis)
C    -1.824034  0.645103  -0.487662
C    -1.440465  0.146103  0.869008
O    -0.543249  -0.735153  0.975049
H    -1.206515  1.519825  -0.745546
H    -2.887401  0.910535  -0.536591
H    -1.595760  -0.131226  -1.226500
N    -2.066269  0.604740  1.981640
C    -2.387473  2.008446  2.248018
C    -1.139449  2.582608  2.968086
O    -0.323814  1.808895  3.540065
H    -1.764552  0.121746  2.830263
H    -2.523095  2.520333  1.285730
C    -3.663954  2.157784  3.102325
C    -4.985031  1.925349  2.351507
C    -5.327767  0.443407  2.085372
N    -6.597889  0.282878  1.398448
C    -6.730201  0.276860  0.036995
N    -7.960245  0.068521  -0.485462
N    -5.625005  0.478043  -0.666209
H    -3.687588  3.177792  3.508963
H    -3.583741  1.498005  3.981118
H    -4.974035  2.457640  1.387874
H    -5.794653  2.371742  2.945903
H    -5.403677  -0.101893  3.036717
H    -4.557532  -0.035250  1.473424
H    -7.437575  0.218912  1.967811
H    -8.093206  0.078300  -1.489442
H    -8.765358  -0.187482  0.076287
H    -5.822156  0.481507  -1.673347
N    -0.938040  3.903000  3.017237
C    -1.807596  4.988678  2.577591
H    -0.092607  4.168406  3.525674
H    -2.415172  5.371078  3.410308
H    -2.467164  4.662578  1.767818
H    -1.180325  5.806694  2.205679
Hg    0.964300  -0.283080  2.794649
