36
Energy: -574589.36628 eV PBE+vdW (tier 2 basis)
C    1.742986  0.926789  3.057375
C    0.953036  1.479463  1.921372
O    1.336561  2.627661  1.459125
H    2.487768  1.658441  3.381148
H    2.260662  0.010994  2.733583
H    1.088536  0.671354  3.902173
N    -0.089428  0.820958  1.418479
C    -0.642758  -0.497836  1.772582
C    0.164709  -1.617950  1.076696
O    0.710255  -1.408078  -0.020953
H    -0.632079  1.291620  0.695492
H    -0.573687  -0.600073  2.863030
C    -2.151975  -0.517585  1.383309
C    -2.651103  -1.135031  0.056650
C    -2.127577  -0.694357  -1.331230
N    -1.837486  0.744361  -1.473017
C    -0.668174  1.269008  -1.875225
N    0.430790  0.516254  -1.952485
N    -0.506520  2.624803  -2.127673
H    -2.521810  0.514709  1.488235
H    -2.677892  -1.068834  2.173689
H    -3.740942  -0.992189  0.077144
H    -2.508668  -2.225371  0.082277
H    -2.883650  -0.960865  -2.082867
H    -1.217644  -1.238036  -1.592298
H    -2.620043  1.390216  -1.390208
H    1.224326  0.883086  -2.468729
H    0.550218  -0.339521  -1.373550
H    -1.368393  3.148345  -2.301329
N    0.212201  -2.810045  1.685706
C    -0.365777  -3.205015  2.972521
H    0.716443  -3.521619  1.158521
H    -1.462855  -3.176777  2.955187
H    -0.062240  -4.235376  3.177026
H    0.009302  -2.581772  3.794746
Hg    0.520852  3.173921  -0.403048
