36
Energy: -574587.575331 eV PBE+vdW (tier 2 basis)
C    -0.250048  -1.267488  -0.505149
C    -0.100244  -0.375623  0.687663
O    1.028832  0.134958  0.917152
H    -0.123181  -2.314984  -0.195102
H    0.557328  -1.035424  -1.208232
H    -1.217441  -1.144901  -1.001153
N    -1.152796  -0.028204  1.489897
C    -2.147268  -0.932485  2.074487
C    -1.357371  -1.885838  3.025479
O    -0.153277  -2.125980  2.768052
H    -0.880961  0.717577  2.132547
H    -2.789819  -0.281801  2.686178
C    -3.055449  -1.701592  1.094389
C    -3.907647  -0.770171  0.222240
C    -4.899660  -1.511858  -0.701081
N    -4.278864  -2.283477  -1.771400
C    -3.759512  -1.795733  -2.938316
N    -3.838840  -0.471365  -3.211937
N    -3.108779  -2.538116  -3.820375
H    -3.717395  -2.337143  1.701327
H    -2.458142  -2.390567  0.483269
H    -3.263569  -0.106133  -0.372892
H    -4.511209  -0.109019  0.862682
H    -5.602941  -0.784663  -1.137300
H    -5.514053  -2.211200  -0.119824
H    -4.271401  -3.294876  -1.686940
H    -3.496620  -0.189329  -4.126573
H    -4.486042  0.151389  -2.743154
H    -3.135661  -3.541006  -3.599383
N    -1.959942  -2.418001  4.093681
C    -3.348763  -2.318342  4.529877
H    -1.343419  -3.004894  4.658221
H    -3.373183  -2.281392  5.624420
H    -3.926992  -3.193244  4.200214
H    -3.819761  -1.408697  4.144008
Hg    1.930193  -0.598300  3.024945
