36
Energy: -574589.882208 eV PBE+vdW (tier 2 basis)
C    0.116422  -0.930479  -0.391211
C    -0.138051  -0.599140  1.040926
O    0.612784  -1.252026  1.884769
H    -0.535064  -0.367512  -1.067144
H    1.168344  -0.728773  -0.632837
H    -0.047684  -2.006893  -0.541420
N    -1.071953  0.278971  1.341849
C    -1.676802  0.721601  2.606642
C    -3.127612  1.099076  2.146162
O    -3.233856  1.555019  1.007760
H    -1.610214  0.714714  0.567332
H    -1.691075  -0.110674  3.327863
C    -0.950325  1.986279  3.147820
C    -1.475105  2.597222  4.458424
C    -1.137069  1.875422  5.775035
N    0.283077  1.995881  6.155566
C    1.244420  1.087064  5.968737
N    2.531912  1.443349  5.950439
N    0.979244  -0.258883  5.803032
H    -1.031713  2.747088  2.358166
H    0.132451  1.781071  3.224966
H    -2.567636  2.708185  4.413059
H    -1.095269  3.627557  4.522373
H    -1.721773  2.313790  6.593652
H    -1.405149  0.812697  5.746271
H    0.569606  2.915425  6.490059
H    3.236084  0.730299  6.117500
H    2.833678  2.413138  5.966298
H    0.129791  -0.541340  6.296949
N    -4.164840  0.945169  2.989208
C    -4.226075  0.299802  4.294754
H    -5.046988  1.267493  2.592244
H    -4.132254  1.019851  5.120160
H    -5.195170  -0.200862  4.393899
H    -3.455314  -0.473353  4.392951
Hg    0.815568  -0.828268  3.856910
