36
Energy: -574589.101866 eV PBE+vdW (tier 2 basis)
C    -0.676719  1.141550  -1.151937
C    0.014059  0.486021  0.026863
O    1.260385  0.388859  -0.025598
H    -1.480764  1.818139  -0.853142
H    -1.100379  0.345592  -1.782302
H    0.072130  1.677230  -1.740882
N    -0.658960  0.062697  1.144763
C    -1.874423  -0.741608  1.219930
C    -1.556569  -2.227480  0.820721
O    -0.483185  -2.772265  1.193660
H    -0.200291  3.249298  3.736315
H    -2.082554  -0.819651  2.302387
C    -3.155738  -0.147498  0.590511
C    -3.537232  1.276016  1.039700
C    -3.613003  1.547132  2.547622
N    -2.295092  1.890728  3.104471
C    -2.097190  2.613777  4.214724
N    -3.101933  2.848337  5.066447
N    -0.873178  3.103317  4.478671
H    -3.982548  -0.814844  0.881007
H    -3.106313  -0.160072  -0.506600
H    -4.533601  1.478169  0.623815
H    -2.876775  2.029252  0.588520
H    -4.042108  0.680823  3.079660
H    -4.281996  2.402871  2.714205
H    -1.473439  1.573286  2.584632
H    -3.965353  2.320996  5.031358
H    -3.014631  3.537222  5.804884
H    -0.662353  3.525720  5.375476
N    -2.451895  -2.922619  0.129921
C    -2.272813  -4.335974  -0.221378
H    -3.321982  -2.474391  -0.133996
H    -2.412367  -4.972727  0.661075
H    -1.263699  -4.494064  -0.616132
H    -3.012373  -4.599468  -0.981930
Hg    1.142599  -1.156589  1.847107
