36
Energy: -574588.425058 eV PBE+vdW (tier 2 basis)
C    0.642646  -0.369571  0.137036
C    0.305567  0.267128  1.449711
O    1.187002  0.896535  2.087909
H    0.746882  -1.458021  0.266509
H    1.605136  0.020440  -0.206794
H    -0.130426  -0.181073  -0.615277
N    -0.950963  0.174310  1.978914
C    -1.797488  -1.029232  2.044815
C    -1.028949  -2.127588  2.804787
O    -0.336460  -1.835443  3.891277
H    -1.069037  0.796718  2.777590
H    -2.616169  -0.732804  2.719904
C    -2.433442  -1.468440  0.711201
C    -3.824493  -2.095049  0.902323
C    -4.607231  -2.318269  -0.400156
N    -4.135243  -3.427306  -1.242657
C    -4.685133  -4.649057  -1.313056
N    -4.386079  -5.453104  -2.344562
N    -5.519974  -5.084740  -0.361223
H    -1.763238  -2.165239  0.186471
H    -2.531930  -0.567679  0.087248
H    -4.439630  -1.417428  1.514929
H    -3.739667  -3.037061  1.464367
H    -4.579828  -1.413572  -1.023683
H    -5.668410  -2.493712  -0.178543
H    -3.400960  -3.227505  -1.913358
H    -4.633244  -6.435795  -2.333700
H    -4.008730  -5.084971  -3.209604
H    -5.626636  -4.595688  0.517628
N    -1.201123  -3.362335  2.506967
C    -0.448279  -4.498890  2.947536
H    -6.108242  -5.895654  -0.513478
H    -0.922316  -4.927560  3.845867
H    0.602450  -4.264933  3.164485
H    -0.504337  -5.278580  2.173174
Hg    1.115301  -0.176180  4.288956
