36
Energy: -574588.876264 eV PBE+vdW (tier 2 basis)
C    -0.848285  0.589731  0.873296
C    -0.306437  0.186975  2.231065
O    0.658156  -0.732505  2.017012
H    -0.040460  1.029592  0.275117
H    -1.657994  1.316765  0.975314
H    -1.198841  -0.298984  0.333027
N    -0.794462  0.738804  3.291267
C    -0.757019  0.463362  4.735376
C    0.531315  0.730525  5.571157
O    1.585221  -0.017302  5.612704
H    -6.482930  0.566488  1.587398
H    -1.452694  1.211084  5.151579
C    -1.362157  -0.920288  5.116175
C    -2.900495  -0.987908  5.083151
C    -3.618002  -0.971013  3.726179
N    -3.605350  0.345818  3.082953
C    -4.586809  0.852483  2.330389
N    -4.489903  2.126233  1.905097
N    -5.660260  0.129027  1.985534
H    -1.053537  -1.161097  6.144247
H    -0.942889  -1.712857  4.474999
H    -3.318968  -0.193367  5.720362
H    -3.184130  -1.934758  5.564187
H    -4.662625  -1.253736  3.911255
H    -3.184454  -1.727205  3.050347
H    -2.674101  0.802689  3.043729
H    -5.136486  2.503279  1.222756
H    -3.875696  2.781738  2.371128
H    -5.672574  -0.878920  2.072194
N    0.498321  1.764236  6.390950
C    1.576725  2.135426  7.312259
H    -0.354813  2.316597  6.416037
H    1.481727  3.199779  7.544422
H    2.545085  1.939893  6.841836
H    1.504268  1.551527  8.238922
Hg    1.705738  -1.041650  3.753265
