36
Energy: -574589.698271 eV PBE+vdW (tier 2 basis)
C    -0.598501  -1.175569  0.082545
C    -0.425264  -1.124033  1.569989
O    0.679668  -1.037450  2.119322
H    -0.248189  -0.222588  -0.337838
H    -1.632397  -1.344857  -0.238118
H    0.048273  -1.960433  -0.327707
N    -1.572043  -1.171134  2.338770
C    -1.523973  -0.913359  3.772022
C    -1.061868  -2.191376  4.546019
O    -1.714100  -2.925399  5.414703
H    -2.457681  -1.355624  1.882121
H    -0.656849  -0.245803  3.907323
C    -2.748676  -0.104782  4.268205
C    -4.145783  -0.510938  3.759774
C    -5.339672  0.297887  4.317528
N    -5.415964  0.537287  5.777489
C    -5.322027  -0.348708  6.775487
N    -5.121995  0.061619  8.031066
N    -5.401314  -1.716863  6.589154
H    -2.565726  0.935439  3.961570
H    -2.710681  -0.064150  5.371741
H    -4.331375  -1.593030  3.863856
H    -4.203480  -0.337947  2.674444
H    -6.277344  -0.161647  3.972227
H    -5.318991  1.304155  3.881949
H    -5.576564  1.507602  6.041070
H    -5.311505  -0.590674  8.786590
H    -4.959517  1.033478  8.277242
H    -6.015456  -1.952442  5.804433
N    0.160454  -2.560171  4.268381
C    0.841473  -3.731414  4.821118
H    0.626170  -1.976826  3.523398
H    1.879943  -3.708097  4.482301
H    0.364113  -4.655349  4.470572
H    0.811013  -3.708977  5.916441
Hg    -3.551911  -2.457125  6.125680
