36
Energy: -574587.699583 eV PBE+vdW (tier 2 basis)
C    -0.211947  0.619749  -0.408357
C    -0.040045  0.255553  1.032903
O    1.105171  -0.062749  1.450878
H    -1.230128  0.440684  -0.769565
H    0.501004  0.038805  -1.004976
H    0.047621  1.680171  -0.549975
N    -1.097072  0.248638  1.885077
C    -2.143895  1.270694  1.925941
C    -1.549767  2.461769  2.720293
O    -0.619000  2.264651  3.544845
H    -0.845403  -0.085123  2.817400
H    -2.369366  1.577834  0.896387
C    -3.401900  0.730285  2.642261
C    -4.066937  -0.502850  2.010758
C    -4.923381  -0.202660  0.763950
N    -5.658224  -1.362351  0.277246
C    -6.881459  -1.766330  0.734117
N    -7.455582  -2.861825  0.185078
N    -7.573261  -1.191668  1.708425
H    -4.131369  1.548435  2.734977
H    -3.112029  0.480458  3.674672
H    -4.717874  -0.956293  2.772436
H    -3.311574  -1.264404  1.766395
H    -4.304440  0.147019  -0.074518
H    -5.639196  0.606322  0.973221
H    -5.174751  -1.968917  -0.379733
H    -8.358526  -3.141661  0.557004
H    -7.109025  -3.331429  -0.643848
H    -7.154938  -0.313942  2.033767
N    -2.049669  3.692974  2.568385
C    -3.224618  4.127694  1.821056
H    -1.592811  4.393993  3.154327
H    -3.030013  5.125685  1.412726
H    -4.108703  4.186119  2.471526
H    -3.431810  3.450384  0.986866
Hg    1.649577  1.040578  3.525965
