36
Energy: -574587.77025 eV PBE+vdW (tier 2 basis)
C    -0.482969  0.597204  -0.189460
C    -0.429747  0.235574  1.261544
O    0.595648  -0.340628  1.712142
H    0.014258  1.567422  -0.342600
H    -1.507752  0.644643  -0.572970
H    0.090488  -0.144284  -0.757802
N    -1.473169  0.500433  2.089934
C    -2.248266  1.742232  2.092813
C    -1.423467  2.753717  2.930607
O    -0.597545  2.332597  3.779072
H    -1.318697  0.144390  3.035253
H    -2.342012  2.093956  1.056701
C    -3.633717  1.507114  2.735582
C    -4.506202  0.458021  2.027618
C    -5.296548  0.961296  0.794582
N    -6.375732  1.870967  1.118565
C    -7.645889  1.567400  1.530546
N    -8.033174  0.281504  1.665931
N    -8.383499  2.640925  1.771366
H    -4.164126  2.467094  2.814483
H    -3.464874  1.185856  3.774840
H    -5.216259  0.048264  2.759176
H    -3.886717  -0.390127  1.699961
H    -5.702753  0.095786  0.247749
H    -4.639553  1.481904  0.084724
H    -6.250775  2.875938  1.021964
H    -8.995072  0.075734  1.911365
H    -7.456759  -0.507004  1.395012
H    -9.340239  2.412888  2.068663
N    -1.615495  4.069880  2.782465
C    -2.614500  4.772766  1.986013
H    -1.033539  4.639520  3.398699
H    -2.179664  5.712987  1.629373
H    -3.506579  5.009400  2.583216
H    -2.904321  4.180496  1.112089
Hg    1.361084  0.598612  3.801818
