36
Energy: -574587.699592 eV PBE+vdW (tier 2 basis)
C    -0.822803  1.094331  1.262530
C    -0.678438  0.246945  2.488795
O    0.347562  0.392433  3.203572
H    -0.525729  0.516987  0.375424
H    -0.138003  1.944286  1.348963
H    -1.846047  1.461891  1.138361
N    -1.655783  -0.615630  2.908308
C    -2.359481  -1.606502  2.088883
C    -1.267528  -2.591379  1.563683
O    -0.093711  -2.173030  1.435588
H    -1.443495  -0.965375  3.843948
H    -3.001502  -2.147592  2.799930
C    -3.266576  -1.068742  0.963593
C    -4.397470  -0.172238  1.495389
C    -5.448885  0.221879  0.454306
N    -4.936818  1.130061  -0.550264
C    -5.573932  1.561068  -1.681892
N    -6.816774  1.119777  -1.966079
N    -4.845581  2.398475  -2.404773
H    -3.705570  -1.942841  0.460390
H    -2.666640  -0.560820  0.197192
H    -3.990002  0.735941  1.966063
H    -4.933926  -0.699280  2.297996
H    -6.303560  0.693792  0.976109
H    -5.848598  -0.676314  -0.051066
H    -4.058077  1.621888  -0.403395
H    -7.275831  1.431221  -2.814664
H    -7.374560  0.567945  -1.324025
H    -5.325010  2.714298  -3.256934
N    -1.590378  -3.858058  1.277618
C    -2.889127  -4.521590  1.309450
H    -0.796135  -4.418504  0.965038
H    -2.747405  -5.558569  1.632391
H    -3.352032  -4.530116  0.312423
H    -3.565403  -4.031998  2.017673
Hg    1.684917  -1.616161  3.281927
