36
Energy: -574589.405129 eV PBE+vdW (tier 2 basis)
C    -1.735985  -0.282163  -0.013669
C    -1.725581  -0.347633  1.498898
O    -1.269363  -1.358129  2.075701
H    -0.872584  0.325584  -0.326830
H    -2.648295  0.177194  -0.407972
H    -1.602762  -1.287369  -0.422035
N    -2.271314  0.657543  2.234330
C    -2.426511  2.049559  1.932387
C    -1.429964  2.904794  2.806125
O    -0.964511  2.485793  3.895879
H    -3.829467  -2.613713  2.257533
H    -2.139576  2.234859  0.883883
C    -3.868310  2.543711  2.198801
C    -4.956636  1.916031  1.292740
C    -5.845143  0.836420  1.920029
N    -5.099389  -0.390998  2.218724
C    -5.624986  -1.608539  2.398398
N    -6.950144  -1.784517  2.454357
N    -4.806446  -2.668367  2.521266
H    -3.889029  3.632828  2.069461
H    -4.097642  2.372532  3.262608
H    -4.516625  1.529391  0.361130
H    -5.641057  2.715213  0.979660
H    -6.646668  0.594258  1.207103
H    -6.315777  1.228552  2.837203
H    -4.093958  -0.275517  2.364171
H    -7.360477  -2.710960  2.440352
H    -7.585798  -1.003252  2.554375
H    -5.163290  -3.581382  2.776509
N    -1.112410  4.127595  2.386403
C    -1.537571  4.852505  1.190048
H    -0.512929  4.639402  3.034696
H    -2.380830  5.519870  1.411673
H    -1.818142  4.168715  0.383370
H    -0.694668  5.457224  0.838470
Hg    -1.325942  0.147826  4.185144
