36
Energy: -574587.623337 eV PBE+vdW (tier 2 basis)
C    -1.450132  -2.686245  0.795460
C    -0.978959  -1.929971  2.001259
O    0.216063  -2.038834  2.371119
H    -1.011395  -2.230224  -0.103413
H    -2.541717  -2.687692  0.705419
H    -1.081284  -3.717259  0.847414
N    -1.878616  -1.160316  2.667845
C    -1.442076  -0.269862  3.725895
C    -0.844914  -1.017891  4.950387
O    0.285111  -0.641517  5.383510
H    -2.789237  -1.001428  2.220322
H    -0.548898  0.260452  3.342364
C    -2.394169  0.894021  4.091749
C    -3.689121  0.732518  4.913927
C    -5.023120  0.515041  4.155931
N    -5.308793  -0.852745  3.774668
C    -5.238621  -1.460608  2.551192
N    -4.785973  -0.708050  1.476304
N    -5.502078  -2.740795  2.557547
H    -2.608887  1.426437  3.151266
H    -1.752354  1.583450  4.659120
H    -3.586974  -0.014776  5.712003
H    -3.826714  1.686927  5.441771
H    -5.067328  1.174146  3.278384
H    -5.838044  0.835829  4.820770
H    -5.696380  -1.477507  4.480975
H    -4.974324  -1.130520  0.569493
H    -5.016123  0.284982  1.469460
H    -5.496535  -3.166362  1.624630
N    -1.456611  -2.013730  5.587462
C    -2.753505  -2.643091  5.377701
H    -0.907925  -2.373817  6.372246
H    -2.600692  -3.724541  5.260252
H    -3.233314  -2.263215  4.477119
H    -3.398653  -2.482862  6.251403
Hg    1.802839  -0.597965  3.584476
