36
Energy: -574587.705309 eV PBE+vdW (tier 2 basis)
C    0.610780  -2.650252  0.675497
C    0.874693  -1.179401  0.707966
O    1.825450  -0.712864  0.019734
H    1.566911  -3.177322  0.570791
H    0.094267  -3.000794  1.575438
H    0.017081  -2.895743  -0.218447
N    0.134190  -0.343258  1.475848
C    -1.319412  -0.398065  1.622806
C    -1.869308  0.555476  0.529772
O    -1.124450  1.439671  0.035734
H    0.470636  0.620108  1.426945
H    -1.646917  -1.423511  1.409361
C    -1.770115  -0.034340  3.060865
C    -1.403903  1.379233  3.527422
C    -1.734420  1.667183  5.008579
N    -3.153790  1.781842  5.316569
C    -3.943673  0.817360  5.874539
N    -5.210924  1.142208  6.227809
N    -3.602449  -0.451221  6.047294
H    -1.303211  -0.782154  3.719885
H    -2.855935  -0.193617  3.129381
H    -1.888006  2.140974  2.897317
H    -0.319507  1.544929  3.435313
H    -1.270131  2.621831  5.290705
H    -1.286497  0.904967  5.661149
H    -3.583101  2.683520  5.121347
H    -5.772187  0.402479  6.639450
H    -5.523469  2.098513  6.355471
H    -2.598896  -0.614092  5.916812
N    -3.142010  0.449521  0.128355
C    -4.202099  -0.421545  0.624483
H    -3.397470  1.121088  -0.597212
H    -4.849315  -0.694881  -0.216222
H    -4.816345  0.087341  1.380632
H    -3.790936  -1.341071  1.052209
Hg    1.293569  1.345779  -1.091774
