36
Energy: -574588.731413 eV PBE+vdW (tier 2 basis)
C    0.378437  -1.438657  0.624738
C    0.255793  -0.847399  2.001279
O    1.356600  -0.513424  2.577112
H    0.454257  -0.631553  -0.119055
H    -0.497081  -2.056405  0.393603
H    1.290824  -2.038862  0.548339
N    -0.973363  -0.706484  2.525320
C    -1.058915  0.019594  3.741757
C    -0.264060  -0.603093  4.964759
O    0.530103  0.122845  5.618401
H    -2.493538  -0.623252  1.320451
H    -0.487602  0.990383  3.627762
C    -2.471138  0.503325  4.136704
C    -3.593420  -0.495219  4.457480
C    -4.200690  -1.284073  3.289818
N    -4.898323  -0.443033  2.311207
C    -4.520440  -0.222227  1.041980
N    -5.415063  0.266242  0.168404
N    -3.268203  -0.476938  0.648482
H    -2.796418  1.171805  3.323297
H    -2.342553  1.157170  5.011405
H    -3.278782  -1.211897  5.227760
H    -4.400070  0.082189  4.933846
H    -4.934601  -1.998757  3.687968
H    -3.453948  -1.875284  2.748287
H    -5.807124  -0.080846  2.584143
H    -5.127492  0.636353  -0.729399
H    -6.410335  0.237711  0.355616
H    -3.049852  -0.488543  -0.340302
N    -0.471912  -1.856905  5.357188
C    -1.245178  -2.933477  4.747700
H    0.038680  -2.100515  6.208166
H    -2.059567  -3.247661  5.411256
H    -0.574403  -3.788245  4.588269
H    -1.633799  -2.624147  3.775879
Hg    1.692775  1.317448  3.929836
