36
Energy: -574589.521884 eV PBE+vdW (tier 2 basis)
C    -0.199257  -1.132314  -0.132121
C    -0.028703  -0.695932  1.282344
O    1.087825  -1.056515  1.848807
H    -1.154341  -0.815483  -0.563910
H    -0.148334  -2.231974  -0.159785
H    0.633212  -0.763468  -0.745046
N    -1.008132  -0.042646  1.894666
C    -1.317604  0.057776  3.349052
C    -2.860673  0.093046  3.554239
O    -3.318289  -0.554057  4.478666
H    -1.832124  0.099806  1.307011
H    -1.022932  -0.898355  3.802467
C    -0.636465  1.184757  4.156892
C    -0.648267  2.613525  3.600683
C    0.425441  3.504738  4.256267
N    1.770405  3.026991  3.888536
C    2.681817  2.415514  4.676986
N    2.890310  2.840498  5.924687
N    3.365117  1.368154  4.161829
H    0.404715  0.879365  4.362436
H    -1.114182  1.156265  5.148185
H    -1.626817  3.086341  3.765337
H    -0.483192  2.618231  2.509610
H    0.336277  3.482678  5.350014
H    0.312281  4.547640  3.935009
H    1.972725  2.991250  2.892529
H    2.658815  3.792240  6.195151
H    3.398355  2.278025  6.600207
H    4.231579  1.078486  4.613870
N    -3.596403  0.825220  2.669306
C    -5.056945  0.901786  2.801668
H    -3.150859  1.574169  2.146934
H    -5.481627  1.237758  1.851105
H    -5.352524  1.590874  3.603593
H    -5.440531  -0.094284  3.042019
Hg    2.279174  0.079411  3.032623
