36
Energy: -574590.100278 eV PBE+vdW (tier 2 basis)
C    0.635376  0.298579  0.610079
C    -0.088461  -0.639656  1.527244
O    0.511817  -1.783365  1.743641
H    1.648527  -0.063417  0.415593
H    0.687782  1.311623  1.029687
H    0.103832  0.357511  -0.351649
N    -1.247189  -0.442707  2.123707
C    -2.088663  0.721061  1.892603
C    -1.667023  1.822482  2.858690
O    -0.952046  1.460144  3.893255
H    -0.757662  0.493110  3.754245
H    -2.018583  1.107352  0.861912
C    -3.560970  0.329193  2.215289
C    -4.226049  -0.585920  1.161194
C    -4.911981  -1.837752  1.736516
N    -3.917807  -2.870270  2.049045
C    -3.717617  -3.556779  3.193487
N    -4.728910  -3.737000  4.056909
N    -2.483511  -4.026927  3.441591
H    -4.168375  1.234826  2.342940
H    -3.534286  -0.165677  3.197357
H    -3.492916  -0.910295  0.406213
H    -4.983514  -0.016808  0.606812
H    -5.633645  -2.234188  1.008432
H    -5.466440  -1.594765  2.652365
H    -3.279032  -3.099794  1.293706
H    -4.555398  -4.091217  4.990945
H    -5.692236  -3.736468  3.738623
H    -2.383364  -4.771193  4.127781
N    -1.981288  3.087449  2.768522
C    -2.775737  3.749110  1.731082
H    -1.640264  3.679915  3.530190
H    -2.251026  4.656676  1.413083
H    -3.757080  4.027117  2.135388
H    -2.908100  3.092807  0.867562
Hg    -0.899490  -2.948425  2.720590
