36
Energy: -574588.411455 eV PBE+vdW (tier 2 basis)
C    -0.132221  3.354543  0.000773
C    0.306169  2.502806  1.144812
O    1.436023  2.704682  1.682519
H    -0.411869  4.354148  0.365900
H    -0.958906  2.916961  -0.566885
H    0.731232  3.500961  -0.662132
N    -0.484790  1.505083  1.621769
C    -1.930133  1.625829  1.866899
C    -2.102179  1.808294  3.394178
O    -1.354472  2.702127  4.019323
H    0.012520  0.855831  2.232342
H    -2.241838  2.583914  1.424272
C    -2.771587  0.516804  1.225879
C    -2.556983  -0.886885  1.795396
C    -3.532997  -1.945694  1.262064
N    -4.962133  -1.566212  1.196715
C    -5.801929  -1.342664  2.223004
N    -7.102653  -1.633662  2.078379
N    -5.358634  -0.827533  3.378750
H    -2.562709  0.526751  0.145897
H    -3.824194  0.816795  1.330205
H    -2.605044  -0.863710  2.894182
H    -1.548756  -1.256110  1.551662
H    -3.433072  -2.866276  1.854476
H    -3.271062  -2.199085  0.227832
H    -5.414350  -1.749885  0.306932
H    -7.805139  -1.239884  2.694141
H    -7.424500  -2.279431  1.366281
H    -5.979071  -0.811911  4.180181
N    -3.069909  1.225405  4.022145
C    -3.191438  1.264697  5.462065
H    -4.543723  -0.205903  3.414792
H    -3.881710  2.077208  5.744087
H    -2.237405  1.419569  5.980381
H    -3.656674  0.329835  5.806510
Hg    0.854052  2.895167  3.971232
