36
Energy: -574587.666077 eV PBE+vdW (tier 2 basis)
C    1.027363  0.311317  0.242790
C    1.019685  0.724251  1.681012
O    2.112163  1.006615  2.241516
H    1.964893  -0.217143  0.034079
H    1.020594  1.208583  -0.395016
H    0.176981  -0.329609  -0.013237
N    -0.136749  0.777245  2.390340
C    -1.403427  1.318915  1.896487
C    -1.309749  2.855159  2.087070
O    -0.526337  3.331729  2.946525
H    0.019691  1.006447  3.373712
H    -1.494366  1.071992  0.830187
C    -2.584113  0.737354  2.706199
C    -2.736305  -0.793156  2.601807
C    -3.637614  -1.303484  1.474435
N    -5.045533  -1.043251  1.749336
C    -6.073928  -1.145827  0.853442
N    -5.820992  -1.578547  -0.404457
N    -7.316640  -0.773445  1.110062
H    -3.511443  1.242521  2.399448
H    -2.431392  1.018694  3.758810
H    -3.118664  -1.183614  3.556908
H    -1.748119  -1.259818  2.484733
H    -3.476566  -2.390218  1.351027
H    -3.385155  -0.834871  0.506734
H    -5.320382  -0.904253  2.718020
H    -6.621220  -1.618086  -1.030221
H    -5.006930  -2.130053  -0.647621
H    -7.467579  -0.509063  2.091113
N    -2.087171  3.673203  1.367342
C    -3.166492  3.344373  0.443709
H    -1.954251  4.661455  1.587783
H    -3.179579  4.089511  -0.359458
H    -4.142692  3.362990  0.948677
H    -3.009156  2.359705  -0.007458
Hg    1.987259  3.004645  3.585921
