36
Energy: -574587.765499 eV PBE+vdW (tier 2 basis)
C    -2.086099  0.912315  0.947109
C    -2.707134  -0.026828  1.917386
O    -3.442633  0.433036  2.873568
H    -2.889413  1.526156  0.514833
H    -1.472974  0.447102  0.175913
H    -1.436040  1.599517  1.507827
N    -2.638659  -1.373119  1.858978
C    -1.967209  -2.288403  0.950187
C    -0.391883  -2.153270  1.106564
O    0.105434  -1.054177  1.316482
H    -3.085176  -1.800872  2.672125
H    -2.242688  -3.291823  1.304932
C    -2.375139  -2.145208  -0.539711
C    -3.668418  -2.876147  -0.950028
C    -4.915318  -2.681953  -0.069957
N    -5.151545  -1.279545  0.228157
C    -5.719628  -0.761748  1.351282
N    -6.395695  -1.576038  2.191680
N    -5.465799  0.531657  1.527885
H    -1.560796  -2.546242  -1.156975
H    -2.427496  -1.080676  -0.796579
H    -3.487182  -3.959352  -0.997149
H    -3.906110  -2.571606  -1.979811
H    -4.816880  -3.211599  0.891525
H    -5.787159  -3.124095  -0.581605
H    -4.845861  -0.566198  -0.431380
H    -6.794120  -1.182852  3.037983
H    -6.826150  -2.436167  1.863883
H    -5.879383  0.913832  2.385189
N    0.283132  -3.300595  0.945400
C    1.743275  -3.379014  1.042470
H    -0.231735  -4.169804  0.846563
H    2.056715  -3.621365  2.066137
H    2.169685  -2.413074  0.755802
H    2.098355  -4.160063  0.362214
Hg    -2.217846  1.579475  4.708485
