36
Energy: -574590.19679 eV PBE+vdW (tier 2 basis)
C    -0.587399  2.492331  -0.571736
C    -0.037780  1.364680  0.222961
O    1.264955  1.259489  0.253289
H    -0.508064  2.254427  -1.643229
H    0.032555  3.381757  -0.400303
H    -1.630606  2.712604  -0.327419
N    -0.779143  0.490992  0.877659
C    -2.214864  0.214833  0.954760
C    -2.331447  -0.454362  2.350535
O    -1.341088  -1.104149  2.756211
H    -0.333672  -0.127268  1.585080
H    -2.778010  1.155562  0.905781
C    -2.717164  -0.755278  -0.161852
C    -2.682256  -2.281778  0.092681
C    -1.430802  -3.110956  -0.228992
N    -0.260085  -2.783369  0.603959
C    0.966902  -3.321678  0.441645
N    1.128826  -4.468310  -0.223633
N    2.037654  -2.649837  0.935419
H    -2.201117  -0.499056  -1.099312
H    -3.770991  -0.493183  -0.327897
H    -3.460849  -2.714517  -0.551424
H    -3.015226  -2.509340  1.116082
H    -1.716297  -4.166544  -0.091171
H    -1.143392  -2.981669  -1.283439
H    -0.453481  -2.286761  1.486522
H    2.044679  -4.776634  -0.533277
H    0.359487  -5.119059  -0.347303
H    2.925268  -3.142302  1.014588
N    -3.486692  -0.341958  2.997282
C    -3.772633  -0.965594  4.291504
H    -4.208405  0.247951  2.591485
H    -2.907789  -1.561238  4.593073
H    -4.656591  -1.608437  4.207551
H    -3.961699  -0.190244  5.043281
Hg    1.917185  -0.641510  0.703532
