36
Energy: -574589.794143 eV PBE+vdW (tier 2 basis)
C    -0.378079  0.887530  -0.829407
C    -0.112858  0.749826  0.624927
O    1.126545  0.916399  1.012117
H    -1.445134  0.968364  -1.055745
H    0.052148  0.029383  -1.366385
H    0.146626  1.779406  -1.198963
N    -1.041800  0.480416  1.522088
C    -2.393426  -0.072768  1.474127
C    -2.912786  0.269092  2.901957
O    -2.057885  0.460043  3.792513
H    -0.856808  0.630086  2.546113
H    -3.001167  0.424667  0.707730
C    -2.387461  -1.614310  1.215936
C    -1.236595  -2.449196  1.816909
C    -1.189715  -2.621189  3.351407
N    0.035859  -3.329808  3.771654
C    1.235377  -2.764548  3.966656
N    2.357197  -3.477144  3.846760
N    1.389960  -1.439589  4.334217
H    -2.356094  -1.765675  0.128068
H    -3.356204  -2.017643  1.543574
H    -0.271292  -2.042491  1.470449
H    -1.298840  -3.446959  1.358815
H    -2.039503  -3.217790  3.704958
H    -1.248478  -1.662497  3.877817
H    0.003789  -4.347560  3.732027
H    3.206431  -3.123800  4.278416
H    2.370915  -4.426586  3.486561
H    0.579338  -1.111996  4.869525
N    -4.226954  0.304598  3.123469
C    -5.312717  0.235750  2.141051
H    -4.479468  0.532440  4.083959
H    -5.357014  1.144640  1.526350
H    -6.256376  0.146864  2.686407
H    -5.221408  -0.644152  1.494087
Hg    1.514652  -0.137352  2.756709
