36
Energy: -574590.114818 eV PBE+vdW (tier 2 basis)
C    -1.450648  0.456362  0.095350
C    -1.683901  0.591924  1.563754
O    -1.242021  1.654928  2.119780
H    -1.913914  1.306057  -0.423684
H    -1.844116  -0.480377  -0.313501
H    -0.370855  0.512913  -0.098965
N    -2.324040  -0.401800  2.206054
C    -2.594504  -0.421779  3.642344
C    -1.281463  -0.689075  4.428735
O    -0.681117  0.309371  4.891623
H    -2.627491  -1.188237  1.636733
H    -2.825479  0.620427  3.898999
C    -3.889320  -1.104497  4.082487
C    -4.143753  -0.908595  5.597943
C    -3.771263  0.426362  6.271813
N    -4.472440  1.624735  5.740261
C    -4.023262  2.904267  5.889029
N    -4.899784  3.843965  6.273563
N    -2.742446  3.238069  5.645948
H    -3.913444  -2.177086  3.853165
H    -4.700124  -0.643461  3.499096
H    -3.583970  -1.668853  6.163412
H    -5.202016  -1.135169  5.791433
H    -2.694804  0.621842  6.228445
H    -4.018627  0.328686  7.340033
H    -5.488101  1.549101  5.754878
H    -4.708689  4.832046  6.140674
H    -5.742835  3.607291  6.787455
H    -2.464827  4.161718  5.971533
N    -0.796240  -1.922683  4.581064
C    -1.333030  -3.201740  4.118191
H    0.079607  -1.951801  5.103009
H    -0.506279  -3.916130  4.059622
H    -1.763324  -3.117501  3.114687
H    -2.084453  -3.602859  4.811084
Hg    -1.713420  2.424937  4.050034
