36
Energy: -574589.948865 eV PBE+vdW (tier 2 basis)
C    -1.016426  -3.006547  -0.391933
C    -0.838437  -2.022894  0.716025
O    0.338360  -1.533237  0.859236
H    -0.287918  -3.819410  -0.267570
H    -0.786406  -2.517212  -1.348427
H    -2.026998  -3.427085  -0.430834
N    -1.895803  -1.728310  1.490896
C    -1.879743  -0.804728  2.625991
C    -1.137675  -1.397125  3.854818
O    -0.195054  -0.737210  4.345778
H    -2.775140  -2.172422  1.233859
H    -1.248059  0.034365  2.304827
C    -3.246615  -0.157703  2.977109
C    -3.217661  1.387908  2.993581
C    -2.371016  2.097609  4.076673
N    -0.917740  1.902933  3.932466
C    -0.096441  2.503631  3.076874
N    -0.444291  3.555535  2.339802
N    1.210757  2.022995  2.837393
H    -3.604277  -0.541449  3.942888
H    -3.995014  -0.462229  2.230795
H    -4.250699  1.733922  3.141286
H    -2.923673  1.753234  1.995900
H    -2.632595  1.736051  5.079382
H    -2.599393  3.172364  4.075416
H    -0.546726  1.019930  4.327434
H    0.284152  4.015928  1.801287
H    -1.338498  4.026636  2.433824
H    1.680636  1.800419  3.723403
N    -1.547517  -2.573816  4.326947
C    -0.962188  -3.241724  5.492814
H    -2.334650  -3.032809  3.876973
H    -0.699571  -4.272967  5.231685
H    -1.680503  -3.251416  6.321778
H    -0.064884  -2.696776  5.795365
Hg    0.974986  0.194168  1.887589
