36
Energy: -574587.607042 eV PBE+vdW (tier 2 basis)
C    0.749724  -0.178554  0.736774
C    0.493829  -0.212647  2.208269
O    1.480858  -0.286249  2.996666
H    1.619367  -0.810403  0.517308
H    1.020860  0.845171  0.436090
H    -0.112676  -0.519966  0.155460
N    -0.765383  -0.181002  2.706885
C    -1.837294  0.699538  2.237893
C    -1.508671  2.113016  2.779373
O    -0.882137  2.269636  3.866735
H    -0.804503  -0.355744  3.712742
H    -1.819456  0.716368  1.140751
C    -3.184818  0.157766  2.774735
C    -4.468509  0.869675  2.319524
C    -5.114810  0.351976  1.014115
N    -4.250823  0.289258  -0.162304
C    -3.632901  1.323807  -0.806100
N    -3.905657  2.613302  -0.377517
N    -2.705148  1.182812  -1.718407
H    -3.139652  0.202175  3.874060
H    -3.227437  -0.910652  2.514386
H    -4.323738  1.957649  2.282525
H    -5.236002  0.716954  3.090993
H    -6.002352  0.968119  0.789139
H    -5.484780  -0.668525  1.168318
H    -4.093803  -0.627055  -0.572088
H    -3.578514  3.299837  -1.058038
H    -4.855883  2.803772  -0.063094
H    -2.596600  0.218197  -2.050622
N    -1.944150  3.160163  2.081717
C    -1.730573  4.550334  2.477764
H    -2.539607  2.983363  1.262793
H    -1.700883  5.172789  1.578067
H    -0.786306  4.634199  3.023993
H    -2.542285  4.898916  3.131449
Hg    1.174655  1.216165  4.795999
