36
Energy: -574590.09752 eV PBE+vdW (tier 2 basis)
C    0.605408  1.980311  1.418578
C    0.346453  0.959194  2.483524
O    1.386571  0.415845  2.985606
H    -0.308574  2.415043  1.000481
H    1.193228  1.520068  0.613858
H    1.222267  2.782437  1.847019
N    -0.938106  0.727724  2.808633
C    -1.597465  -0.111215  3.842728
C    -1.099035  0.309687  5.243375
O    0.032637  -0.030452  5.661279
H    -1.586786  1.284432  2.259303
H    -2.652421  0.173649  3.768787
C    -1.523290  -1.642095  3.546707
C    -1.749552  -2.533272  4.780444
C    -1.583339  -4.048980  4.587488
N    -0.328132  -4.564886  3.988510
C    0.931016  -4.106814  4.043501
N    1.825287  -4.546949  3.141306
N    1.377592  -3.204036  4.963411
H    -0.565909  -1.881594  3.057867
H    -2.275977  -1.859167  2.775338
H    -2.785390  -2.412388  5.132725
H    -1.127248  -2.188768  5.615858
H    -2.373006  -4.422257  3.922142
H    -1.739144  -4.539226  5.559893
H    -0.456651  -5.431504  3.470133
H    2.812412  -4.485678  3.368350
H    1.561573  -5.124575  2.350691
H    0.795892  -3.171410  5.800887
N    -1.909238  1.049725  6.005443
C    -3.244801  1.577662  5.710568
H    -1.501507  1.299076  6.906432
H    -3.226925  2.277726  4.865604
H    -3.587809  2.128648  6.590770
H    -3.966792  0.773573  5.520634
Hg    1.524272  -1.281345  4.219297
