36
Energy: -574589.733918 eV PBE+vdW (tier 2 basis)
C    0.073624  1.338554  0.224596
C    -0.191044  0.698471  1.543731
O    0.811946  0.739136  2.386406
H    -0.765889  1.221813  -0.468024
H    0.971754  0.881165  -0.214923
H    0.296961  2.404284  0.368105
N    -1.350684  0.119968  1.764946
C    -1.796503  -0.783151  2.829298
C    -2.871951  -1.643987  2.078880
O    -3.446994  -1.093676  1.137255
H    -2.081219  0.120702  1.020836
H    -0.940881  -1.387333  3.166278
C    -2.450778  -0.029838  4.026181
C    -2.379232  -0.807236  5.354499
C    -2.427246  0.076181  6.632334
N    -1.270321  -0.156721  7.523189
C    -0.005580  0.154969  7.213547
N    1.023015  -0.521421  7.729744
N    0.285228  1.207428  6.379003
H    -3.488287  0.223089  3.766297
H    -1.953331  0.949708  4.135419
H    -1.448334  -1.395943  5.386041
H    -3.187379  -1.547527  5.396440
H    -3.316025  -0.136071  7.234786
H    -2.490464  1.143833  6.381810
H    -1.429255  -0.750183  8.335134
H    1.938805  -0.081769  7.751314
H    0.897778  -1.368308  8.276150
H    -0.451572  1.915602  6.421023
N    -3.160081  -2.886611  2.499190
C    -2.482057  -3.740842  3.466031
H    -3.916964  -3.313432  1.965340
H    -1.491475  -3.346152  3.712847
H    -2.338745  -4.735783  3.028819
H    -3.067339  -3.850708  4.388892
Hg    0.642063  0.883190  4.402648
