36
Energy: -574588.029872 eV PBE+vdW (tier 2 basis)
C    0.757098  0.564521  0.298369
C    0.368917  0.074177  1.666829
O    1.203111  -0.633840  2.288019
H    -0.077099  1.000347  -0.262442
H    1.186057  -0.269611  -0.270111
H    1.551772  1.315381  0.410842
N    -0.855335  0.430998  2.115002
C    -1.619696  0.019022  3.309406
C    -1.220414  0.845958  4.550527
O    -0.062897  0.837619  5.054438
H    -1.356821  1.053670  1.489309
H    -2.654045  0.303929  3.069433
C    -1.620325  -1.495220  3.614489
C    -2.067953  -2.428142  2.478262
C    -3.584130  -2.403518  2.185582
N    -4.002563  -3.430859  1.245742
C    -4.321183  -4.719546  1.582770
N    -4.700994  -5.568231  0.598425
N    -4.268756  -5.238319  2.798559
H    -2.267203  -1.635798  4.494671
H    -0.617234  -1.816771  3.931007
H    -1.792934  -3.452660  2.767519
H    -1.507509  -2.218327  1.555595
H    -3.894945  -1.441192  1.755060
H    -4.156671  -2.520952  3.117884
H    -3.968214  -3.193181  0.258452
H    -4.931656  -6.517347  0.876428
H    -4.913719  -5.279738  -0.349498
H    -4.062150  -4.543603  3.522893
N    -2.169801  1.598777  5.100885
C    -1.965396  2.421603  6.296276
H    -3.069712  1.662243  4.634402
H    -1.491283  3.375400  6.031314
H    -1.320190  1.887681  7.000891
H    -2.938474  2.614759  6.756260
Hg    1.657229  -0.686404  4.594083
