36
Energy: -574589.559119 eV PBE+vdW (tier 2 basis)
C    0.133285  3.148187  0.127418
C    0.466434  2.026914  1.057607
O    1.726386  1.766559  1.147909
H    -0.943156  3.339518  0.060761
H    0.520393  2.908001  -0.872649
H    0.648205  4.059610  0.459834
N    -0.539661  1.408916  1.683778
C    -0.549708  0.253493  2.597609
C    -1.507299  -0.907695  2.203406
O    -1.057532  -2.055151  2.341757
H    -1.448009  1.822008  1.483660
H    0.421285  -0.239440  2.472827
C    -0.733669  0.700641  4.072083
C    -1.027720  -0.364638  5.151261
C    -0.046486  -1.546571  5.374050
N    1.352562  -1.190891  5.111732
C    2.063796  -1.545841  4.039923
N    1.603246  -2.399057  3.127004
N    3.306256  -0.967436  3.751084
H    -1.568823  1.415288  4.110589
H    0.153922  1.291404  4.348880
H    -2.017285  -0.811639  4.980270
H    -1.119516  0.194537  6.092656
H    -0.306588  -2.398246  4.740048
H    -0.125844  -1.889906  6.413008
H    1.772642  -0.490997  5.718508
H    2.265664  -2.748996  2.441243
H    0.593965  -2.559591  2.961926
H    3.790501  -0.584195  4.568691
N    -2.769861  -0.685319  1.803756
C    -3.516953  0.562810  1.670571
H    -3.269087  -1.545285  1.577623
H    -4.585333  0.333633  1.736698
H    -3.349230  1.045161  0.695314
H    -3.299059  1.257311  2.492168
Hg    2.724129  0.499933  2.431726
