36
Energy: -574587.640482 eV PBE+vdW (tier 2 basis)
C    0.765302  -0.370916  1.050305
C    -0.406852  0.532261  1.274498
O    -0.296871  1.751633  0.975064
H    1.387694  0.070825  0.263859
H    0.462914  -1.380891  0.757538
H    1.374953  -0.417416  1.963970
N    -1.623916  0.070175  1.701702
C    -1.854002  -0.792671  2.858460
C    -1.326005  0.012413  4.100484
O    -0.368096  0.795948  3.936903
H    -2.336837  0.795714  1.605712
H    -2.948247  -0.875378  2.939394
C    -1.273426  -2.222767  2.807037
C    -1.873804  -3.052673  1.665578
C    -1.407618  -4.522614  1.611585
N    -0.044364  -4.716076  1.135581
C    1.059472  -4.951594  1.906718
N    2.225404  -5.260703  1.289820
N    1.110493  -4.837511  3.225188
H    -1.521311  -2.692102  3.771815
H    -0.176767  -2.187121  2.762508
H    -1.676402  -2.574342  0.694179
H    -2.969775  -3.078281  1.767990
H    -2.064621  -5.068876  0.920803
H    -1.521033  -5.010515  2.589559
H    0.079917  -4.719183  0.125455
H    3.026619  -5.430944  1.890325
H    2.275402  -5.591823  0.332583
H    0.181788  -4.748170  3.649475
N    -1.949288  -0.178409  5.265348
C    -1.623674  0.537461  6.497461
H    -2.729569  -0.830609  5.296909
H    -0.617286  0.955104  6.411658
H    -1.666414  -0.163011  7.339174
H    -2.346375  1.345726  6.676283
Hg    -0.445933  3.208952  2.886721
