36
Energy: -574587.86543 eV PBE+vdW (tier 2 basis)
C    -0.712362  -1.904190  1.969348
C    0.011480  -0.637394  2.344196
O    1.126050  -0.795226  2.931949
H    -0.604344  -2.071250  0.886830
H    -1.778709  -1.847439  2.218088
H    -0.260020  -2.751489  2.491678
N    -0.501249  0.559442  2.065388
C    -1.675107  0.876814  1.251451
C    -1.301344  2.226453  0.586306
O    -0.459249  2.945084  1.135149
H    0.060416  1.408823  2.230455
H    -1.814041  0.097770  0.488831
C    -2.987271  0.998920  2.075539
C    -2.984256  2.099059  3.141243
C    -4.245386  2.089207  4.040488
N    -5.481997  2.462597  3.368748
C    -5.933616  3.728930  3.126955
N    -5.216580  4.801035  3.527424
N    -7.059479  3.994431  2.475450
H    -3.173527  0.020779  2.545992
H    -3.808733  1.156872  1.360365
H    -2.867076  3.089409  2.677920
H    -2.126771  1.972341  3.818332
H    -4.086683  2.762371  4.897287
H    -4.401190  1.088561  4.464127
H    -6.115743  1.720573  3.088590
H    -5.641650  5.710730  3.372074
H    -4.406671  4.747268  4.132156
H    -7.586180  3.147512  2.226931
N    -1.958499  2.553210  -0.543118
C    -1.709868  3.787432  -1.280592
H    -2.552887  1.853367  -0.978989
H    -1.006930  3.612851  -2.107714
H    -2.653561  4.160535  -1.693587
H    -1.273785  4.524250  -0.599870
Hg    2.950675  0.672047  3.213308
