36
Energy: -574588.602015 eV PBE+vdW (tier 2 basis)
C    0.152159  -0.198346  -0.031861
C    0.055656  -0.310646  1.459142
O    0.957385  -0.957541  2.074709
H    -0.719247  0.280652  -0.491658
H    0.272461  -1.206563  -0.450811
H    1.059853  0.361989  -0.294048
N    -1.000890  0.268734  2.063676
C    -1.499384  0.155776  3.443984
C    -0.820073  1.064817  4.488480
O    0.397903  1.519951  4.341099
H    -1.589348  0.813271  1.440003
H    -2.516316  0.562352  3.384057
C    -1.596472  -1.299892  3.963539
C    -2.795151  -2.125300  3.464292
C    -4.186921  -1.476866  3.589149
N    -4.311446  -0.701866  4.832559
C    -5.114703  0.360610  5.015484
N    -6.287344  0.435940  4.375098
N    -4.689494  1.340021  5.822969
H    -1.609721  -1.239713  5.063398
H    -0.679930  -1.852293  3.722655
H    -2.784187  -3.074845  4.017258
H    -2.663846  -2.399041  2.408310
H    -4.947305  -2.269575  3.541336
H    -4.382100  -0.791891  2.749966
H    -3.596893  -0.828209  5.541281
H    -6.828765  1.293208  4.375258
H    -6.750487  -0.401070  4.038423
H    -5.324807  2.034885  6.199190
N    -1.549701  1.439298  5.500670
C    -0.947807  2.044560  6.666682
H    -3.677836  1.486516  5.906312
H    -1.527621  1.754158  7.555015
H    0.112381  1.796949  6.801411
H    -1.039755  3.142465  6.594015
Hg    1.989960  0.112418  3.836379
