36
Energy: -574588.968509 eV PBE+vdW (tier 2 basis)
C    2.868391  2.454142  2.533909
C    1.483555  2.471465  3.105380
O    1.043985  3.537921  3.623409
H    2.958964  3.279080  1.814704
H    3.592907  2.650742  3.335233
H    3.121097  1.512326  2.034454
N    0.753177  1.338898  3.024311
C    -0.672429  1.192292  3.336859
C    -0.902178  0.616181  4.739306
O    -0.385829  1.211869  5.798799
H    1.232752  0.522259  2.657386
H    -1.073149  2.219494  3.363088
C    -1.427098  0.458545  2.210765
C    -0.924220  -0.937698  1.814942
C    -1.652794  -1.518454  0.591526
N    -3.069787  -1.847615  0.802195
C    -3.570250  -3.070334  1.035505
N    -4.882988  -3.291319  0.874080
N    -2.779349  -4.073609  1.437112
H    -1.407461  1.117338  1.328816
H    -2.475567  0.395780  2.539894
H    -1.000785  -1.620678  2.672904
H    0.138674  -0.905959  1.525931
H    -1.143146  -2.424204  0.236908
H    -1.617471  -0.806834  -0.245307
H    -3.747717  -1.108013  0.651293
H    -5.320943  -4.137070  1.220141
H    -5.461443  -2.666956  0.324551
H    -1.832548  -3.910452  1.752560
N    -1.533511  -0.487202  4.917635
C    -2.029056  -1.002142  6.166282
H    -3.095229  -5.035607  1.398038
H    -2.864935  -1.683034  5.953111
H    -2.359201  -0.213584  6.855476
H    -1.250069  -1.606270  6.658340
Hg    0.088181  3.340437  5.750713
