36
Energy: -574588.044633 eV PBE+vdW (tier 2 basis)
C    -0.782503  -0.996818  -0.977562
C    -0.826162  -0.806824  0.511161
O    0.118006  -0.198419  1.070142
H    -0.925475  -0.019829  -1.460304
H    -1.547350  -1.692917  -1.340611
H    0.211975  -1.357889  -1.264734
N    -1.891051  -1.313312  1.180362
C    -2.159930  -1.084241  2.594025
C    -1.155274  -1.825149  3.516727
O    -0.419093  -1.148209  4.289087
H    -2.623889  -1.736761  0.617510
H    -1.961474  -0.021262  2.810329
C    -3.641732  -1.344968  2.932923
C    -3.976334  -1.086022  4.407712
C    -5.465622  -1.259386  4.771207
N    -6.351733  -0.235870  4.233884
C    -7.117385  -0.341329  3.107211
N    -7.937873  0.688790  2.787911
N    -7.094080  -1.350735  2.249534
H    -3.916748  -2.374687  2.659303
H    -4.230344  -0.677406  2.284461
H    -3.655356  -0.073631  4.697342
H    -3.415731  -1.778842  5.054328
H    -5.563110  -1.227199  5.864413
H    -5.831989  -2.249379  4.464839
H    -6.410640  0.629419  4.764873
H    -8.519124  0.569030  1.964093
H    -8.184968  1.426630  3.437803
H    -6.585447  -2.161121  2.616110
N    -1.057367  -3.154512  3.549404
C    -1.857231  -4.182478  2.887418
H    -0.353905  -3.486914  4.211344
H    -1.225451  -5.067667  2.757459
H    -2.184180  -3.853571  1.898190
H    -2.725403  -4.467684  3.497015
Hg    0.572199  0.746923  3.249401
