36
Energy: -574590.097886 eV PBE+vdW (tier 2 basis)
C    0.827972  1.100654  -0.257072
C    0.511381  1.019523  1.199953
O    1.441586  0.437983  1.907550
H    1.774004  1.641649  -0.393233
H    0.034324  1.599501  -0.822232
H    0.976000  0.085765  -0.650763
N    -0.625740  1.512700  1.634439
C    -1.291021  1.588027  2.940553
C    -2.791574  1.766168  2.513459
O    -3.003593  2.277418  1.413758
H    -1.287387  1.925590  0.939671
H    -1.156169  0.645885  3.499629
C    -0.788854  2.831975  3.720780
C    -1.371066  3.119313  5.116196
C    -1.174243  2.071541  6.226165
N    0.210303  1.576846  6.234879
C    0.626443  0.345731  6.599902
N    0.024991  -0.298634  7.602578
N    1.631438  -0.210126  5.890656
H    -1.000078  3.708479  3.091133
H    0.312981  2.788827  3.765043
H    -2.449624  3.316011  5.046653
H    -0.927772  4.068946  5.450770
H    -1.826720  1.196496  6.087814
H    -1.442646  2.527761  7.190050
H    0.930828  2.197323  5.877304
H    0.177820  -1.289341  7.764221
H    -0.474368  0.214374  8.323670
H    2.138947  -0.997220  6.293027
N    -3.734492  1.398787  3.393345
C    -5.168572  1.548863  3.126738
H    -3.458369  0.881421  4.220112
H    -5.681598  1.841745  4.048631
H    -5.595955  0.609615  2.753337
H    -5.302959  2.326534  2.370110
Hg    1.550552  0.088442  3.888602
