36
Energy: -574590.17367 eV PBE+vdW (tier 2 basis)
C    -0.956696  0.292880  0.704040
C    -0.690808  -0.490668  1.954310
O    0.431827  -0.983350  2.192814
H    -2.008363  0.565381  0.564778
H    -0.608810  -0.280689  -0.164204
H    -0.352457  1.210678  0.734816
N    -1.724731  -0.647993  2.821848
C    -1.668087  -1.308591  4.133109
C    -0.611244  -0.607408  5.033712
O    0.602937  -0.992587  5.229857
H    -2.612309  -0.225500  2.568567
H    -2.632381  -1.048717  4.586357
C    -1.601756  -2.862072  4.179629
C    -2.206570  -3.712904  3.046637
C    -1.414091  -3.899285  1.717847
N    0.043121  -3.768661  1.818101
C    0.970491  -4.617286  2.305584
N    0.846696  -5.940864  2.152656
N    2.028175  -4.067964  2.942973
H    -2.119668  -3.144583  5.107039
H    -0.574792  -3.216872  4.352439
H    -3.211455  -3.353462  2.782024
H    -2.362009  -4.705967  3.489356
H    -1.715233  -3.150123  0.976897
H    -1.686397  -4.868723  1.282415
H    0.379441  -2.808511  1.709943
H    1.456270  -6.586662  2.642203
H    0.267634  -6.325451  1.413250
H    2.857303  -4.634161  3.107393
N    -0.974977  0.481721  5.689048
C    -2.285189  1.140141  5.729147
H    -0.228426  0.907756  6.240786
H    -2.566763  1.520914  4.740039
H    -2.208052  1.989832  6.412837
H    -3.059834  0.465495  6.114399
Hg    1.537728  -2.424714  4.052514
