36
Energy: -574587.770307 eV PBE+vdW (tier 2 basis)
C    0.196694  2.125038  1.294713
C    -0.457748  1.325862  2.377369
O    -1.107856  1.854570  3.318501
H    1.028819  2.701051  1.726108
H    -0.524968  2.850971  0.900139
H    0.590239  1.514797  0.474506
N    -0.340068  -0.021897  2.339040
C    -0.833196  -0.909898  3.378670
C    -0.450252  -0.373468  4.782591
O    0.611954  0.283917  4.944184
H    0.233294  -0.425921  1.603625
H    -1.935535  -0.909326  3.342057
C    -0.312257  -2.352723  3.181396
C    -1.155103  -3.259297  2.265297
C    -1.196766  -2.944752  0.767335
N    0.109631  -3.086561  0.134638
C    0.423272  -2.696527  -1.142190
N    -0.534432  -2.122552  -1.911002
N    1.636360  -2.762913  -1.659128
H    -0.278603  -2.837762  4.166415
H    0.740715  -2.302817  2.861891
H    -2.196368  -3.269918  2.619615
H    -0.798763  -4.293001  2.395313
H    -1.566963  -1.922831  0.574614
H    -1.922660  -3.630962  0.292794
H    0.779099  -3.715445  0.570943
H    -0.243168  -1.847945  -2.845718
H    -1.525410  -2.267441  -1.756174
H    2.310036  -3.250908  -1.056782
N    -1.264161  -0.663881  5.799508
C    -2.539290  -1.380001  5.771548
H    -0.942975  -0.319719  6.703889
H    -3.255102  -0.882980  5.101539
H    -2.958428  -1.368139  6.781276
H    -2.410980  -2.426255  5.467029
Hg    0.280161  2.665495  5.148437
