36
Energy: -574589.72235 eV PBE+vdW (tier 2 basis)
C    0.668403  -0.439993  2.209909
C    -0.160041  -1.355529  3.033819
O    0.484353  -2.292309  3.691882
H    1.584091  -0.208586  2.771894
H    0.149978  0.487348  1.951231
H    0.993541  -0.951411  1.291250
N    -1.471124  -1.275576  3.149496
C    -2.500233  -0.656148  2.313710
C    -3.599900  -0.310115  3.357250
O    -3.596110  -0.965662  4.412737
H    -1.961976  -1.633589  4.004774
H    -2.118162  0.233369  1.798002
C    -3.005002  -1.711251  1.281554
C    -3.679747  -2.928152  1.953521
C    -3.472725  -4.285220  1.252616
N    -3.741499  -5.394253  2.194328
C    -2.897787  -5.783410  3.162152
N    -3.348865  -6.265022  4.320139
N    -1.528237  -5.756847  2.991906
H    -2.135925  -2.023148  0.680994
H    -3.693799  -1.218076  0.583140
H    -4.755456  -2.742157  2.076596
H    -3.302877  -3.031895  2.982808
H    -2.451354  -4.386545  0.864197
H    -4.138837  -4.421983  0.393168
H    -4.716382  -5.676645  2.286831
H    -2.729668  -6.832920  4.891842
H    -4.326773  -6.215259  4.590338
H    -1.284919  -5.889135  2.006358
N    -4.491807  0.625282  3.022830
C    -5.600858  1.037648  3.884922
H    -4.364438  1.124750  2.147431
H    -6.556913  0.877757  3.372591
H    -5.501814  2.099447  4.139266
H    -5.569527  0.441467  4.800320
Hg    -0.505739  -4.094336  3.591887
