36
Energy: -574587.481196 eV PBE+vdW (tier 2 basis)
C    0.062724  0.279495  0.011558
C    -0.106385  -0.074967  1.457880
O    0.420720  -1.135782  1.880629
H    0.094574  1.359125  -0.156165
H    -0.765568  -0.147095  -0.571117
H    0.989520  -0.181958  -0.347382
N    -0.719694  0.763256  2.357746
C    -2.030417  1.388860  2.171461
C    -3.037118  0.214666  1.871901
O    -2.594549  -0.843631  1.385293
H    -0.590973  0.406612  3.306472
H    -2.290970  1.794454  3.160751
C    -2.147702  2.548738  1.160800
C    -1.508942  3.869516  1.634128
C    0.007560  4.053679  1.387025
N    0.350468  4.394721  0.011163
C    0.199553  5.616581  -0.587808
N    -0.304054  6.660080  0.106154
N    0.501447  5.857574  -1.855975
H    -3.222703  2.734845  1.023668
H    -1.789367  2.252496  0.166867
H    -1.678623  3.995534  2.714296
H    -2.050562  4.696711  1.153397
H    0.570380  3.150780  1.650443
H    0.386644  4.845105  2.054921
H    0.856057  3.713933  -0.545297
H    -0.365177  7.544321  -0.391449
H    -0.446703  6.663318  1.108371
H    0.888407  5.038029  -2.340168
N    -4.321028  0.417209  2.180427
C    -5.368666  -0.591023  2.030932
H    -4.589565  1.310440  2.586462
H    -6.276023  -0.108896  1.649852
H    -5.597753  -1.056440  2.999680
H    -5.029451  -1.355478  1.327241
Hg    -1.206656  -2.791405  2.587183
