36
Energy: -574590.125436 eV PBE+vdW (tier 2 basis)
C    0.327441  -0.403679  0.563137
C    -0.110590  -0.560780  1.987339
O    0.624170  -1.319953  2.704287
H    -0.298145  0.287290  -0.011623
H    0.324083  -1.388602  0.077378
H    1.365638  -0.045271  0.551877
N    -1.204857  0.118377  2.367978
C    -1.906094  0.290050  3.667380
C    -0.915814  0.773478  4.753747
O    -0.191938  -0.031445  5.378751
H    -1.613776  0.656794  1.609103
H    -2.616128  1.106425  3.476533
C    -2.722224  -0.956953  4.074825
C    -3.354551  -0.875431  5.478873
C    -3.657692  -2.251239  6.114092
N    -2.481756  -3.144384  6.095448
C    -1.302204  -2.918117  6.691285
N    -1.195403  -2.116274  7.740633
N    -0.097127  -3.442894  6.212253
H    -2.064928  -1.838092  4.010225
H    -3.492803  -1.121243  3.308724
H    -4.299886  -0.316410  5.442952
H    -2.694231  -0.311100  6.152133
H    -4.447396  -2.781082  5.568735
H    -4.029480  -2.129218  7.141116
H    -2.457371  -3.832154  5.349254
H    -0.278411  -2.007747  8.163652
H    -1.994468  -1.696373  8.204058
H    -0.191767  -4.417477  5.907778
N    -0.891520  2.090899  4.973331
C    0.005164  2.751982  5.921171
H    -1.535018  2.680748  4.453866
H    -0.559439  3.122402  6.786020
H    0.496658  3.598087  5.427957
H    0.757738  2.033964  6.255766
Hg    0.344747  -2.291876  4.539052
