36
Energy: -574588.866362 eV PBE+vdW (tier 2 basis)
C    0.691258  -1.616111  0.335276
C    0.429133  -0.676550  1.486744
O    1.396380  0.142649  1.738631
H    0.285267  -1.189079  -0.593496
H    0.211796  -2.581619  0.542327
H    1.765402  -1.766936  0.193797
N    -0.737603  -0.779548  2.118644
C    -1.077304  0.213117  3.087609
C    -0.163761  0.216088  4.368025
O    0.502056  1.245348  4.674888
H    -1.863802  -2.954109  -0.584010
H    -0.878458  1.243124  2.677478
C    -2.565878  0.215583  3.482130
C    -3.527353  0.500455  2.303365
C    -4.247562  -0.716246  1.720867
N    -3.324183  -1.644880  1.062135
C    -3.710534  -2.638567  0.258809
N    -5.005068  -2.957960  0.127375
N    -2.788304  -3.334237  -0.432559
H    -2.698498  0.989756  4.250233
H    -2.832196  -0.737491  3.959387
H    -3.008171  1.040849  1.497017
H    -4.314734  1.178295  2.656989
H    -4.984614  -0.364563  0.983355
H    -4.798588  -1.232188  2.526358
H    -2.321190  -1.543593  1.307088
H    -5.708167  -2.594386  0.757664
H    -5.319860  -3.599117  -0.590941
H    -3.038290  -4.165218  -0.954423
N    -0.124404  -0.840943  5.171090
C    -0.829222  -2.116620  5.073133
H    0.446037  -0.701423  6.006915
H    -1.142506  -2.303597  4.043313
H    -1.691001  -2.138861  5.752865
H    -0.131288  -2.908928  5.369213
Hg    1.208818  2.186975  2.666307
