36
Energy: -574588.16347 eV PBE+vdW (tier 2 basis)
C    0.853409  2.087941  0.571612
C    0.462821  1.046215  1.578807
O    1.273690  0.142310  1.881341
H    1.585293  2.765392  1.034352
H    0.000231  2.674615  0.212230
H    1.351475  1.601533  -0.274758
N    -0.780975  1.125339  2.123800
C    -1.224588  0.279608  3.220932
C    -1.347560  -1.204514  2.779208
O    -0.698924  -2.103379  3.370181
H    -1.349001  1.930100  1.871852
H    -0.439050  0.264774  3.996487
C    -2.508401  0.837429  3.865339
C    -2.948390  0.043991  5.106408
C    -4.028705  0.733000  5.947474
N    -5.324591  0.781403  5.282487
C    -6.353559  1.633006  5.590726
N    -6.208692  2.520437  6.600492
N    -7.487395  1.695798  4.913034
H    -3.320342  0.883162  3.121420
H    -2.293363  1.877976  4.155675
H    -2.084959  -0.105877  5.771033
H    -3.285458  -0.968059  4.829905
H    -3.722975  1.767262  6.173635
H    -4.118374  0.203939  6.913499
H    -5.581457  -0.003123  4.690548
H    -6.984959  3.158402  6.752854
H    -5.511060  2.437109  7.329434
H    -7.561616  0.976303  4.184270
N    -2.178656  -1.491442  1.778901
C    -2.388392  -2.837614  1.246127
H    -2.714642  -0.730392  1.369566
H    -1.490334  -3.436508  1.424847
H    -2.587349  -2.764899  0.172161
H    -3.240431  -3.325041  1.738343
Hg    1.611217  -1.467379  3.721277
