36
Energy: -574590.013156 eV PBE+vdW (tier 2 basis)
C    -2.524836  -1.174710  -0.114045
C    -1.731397  -0.079847  0.504871
O    -0.957705  0.597750  -0.304977
H    -2.014128  -2.137703  0.044803
H    -2.585973  -1.010818  -1.195084
H    -3.531055  -1.243339  0.314827
N    -1.753557  0.220604  1.791332
C    -2.376825  -0.469467  2.922323
C    -2.965704  0.722040  3.729400
O    -2.487075  1.846772  3.488593
H    -1.623352  1.217649  2.129933
H    -3.159768  -1.157079  2.578052
C    -1.298903  -1.245335  3.731658
C    -0.362057  -0.373654  4.612801
C    1.147737  -0.625618  4.474178
N    1.721452  -0.062028  3.237017
C    2.296735  1.148125  3.065765
N    2.857617  1.793385  4.092615
N    2.295472  1.698375  1.830803
H    -0.728105  -1.851290  3.010743
H    -1.821269  -1.972215  4.367392
H    -0.612932  -0.546018  5.667857
H    -0.542205  0.698498  4.446936
H    1.389134  -1.696445  4.483126
H    1.662449  -0.191302  5.339188
H    1.718044  -0.660911  2.417828
H    3.103631  2.775128  4.024523
H    3.171661  1.297273  4.920294
H    2.950046  2.454617  1.640715
N    -3.893233  0.455248  4.647994
C    -4.510258  1.469503  5.505407
H    -4.231578  -0.499339  4.729360
H    -5.590827  1.504241  5.323905
H    -4.070414  2.441127  5.267436
H    -4.329313  1.231110  6.560128
Hg    0.693727  1.345914  0.646464
