36
Energy: -574588.115228 eV PBE+vdW (tier 2 basis)
C    0.986194  -1.567744  1.024614
C    0.508971  -0.425748  1.872873
O    1.346838  0.472261  2.168608
H    1.409810  -1.160645  0.096200
H    0.189414  -2.277177  0.774758
H    1.799928  -2.087343  1.546874
N    -0.785172  -0.421370  2.251628
C    -1.563033  0.706057  2.782138
C    -1.644525  0.648270  4.324704
O    -0.588648  0.611555  5.027491
H    -1.318223  -1.239698  1.971513
H    -0.978065  1.618412  2.574723
C    -2.899057  0.844536  2.027097
C    -3.763372  -0.431216  1.882470
C    -5.274352  -0.133703  1.930798
N    -5.672643  0.192214  3.290493
C    -6.498546  1.206009  3.740949
N    -7.158595  1.968573  2.838881
N    -6.506049  1.339204  5.049182
H    -2.670212  1.235381  1.026729
H    -3.468120  1.647340  2.521012
H    -3.542538  -1.173505  2.668548
H    -3.550746  -0.929176  0.926709
H    -5.839275  -1.004785  1.561457
H    -5.509540  0.712389  1.271493
H    -5.557042  -0.530861  3.999070
H    -7.358245  1.647665  1.897564
H    -7.708490  2.754618  3.167765
H    -7.146771  2.071919  5.372921
N    -2.826499  0.656188  4.924322
C    -3.011244  0.666402  6.377604
H    -3.668102  0.650002  4.348098
H    -4.054446  0.925604  6.580357
H    -2.339886  1.403044  6.832843
H    -2.786869  -0.320517  6.802282
Hg    1.393519  1.530285  4.225493
