36
Energy: -574589.37831 eV PBE+vdW (tier 2 basis)
C    0.744562  -0.071050  0.333552
C    0.550310  -0.523338  1.737013
O    1.431671  -1.354295  2.208365
H    1.745136  -0.353716  -0.007702
H    0.605600  1.013072  0.238259
H    0.012572  -0.568444  -0.322266
N    -0.467914  -0.157599  2.521825
C    -1.572715  0.767455  2.222651
C    -1.243072  1.952546  3.177731
O    -0.552420  1.645877  4.172909
H    -0.212800  0.130942  3.523105
H    -1.585950  1.029941  1.159097
C    -2.938812  0.197884  2.689543
C    -3.455546  -1.146916  2.145749
C    -2.901565  -2.453046  2.747222
N    -2.955719  -2.487292  4.220377
C    -1.961603  -2.836725  5.049043
N    -1.962104  -2.440812  6.322549
N    -0.887999  -3.631782  4.669061
H    -3.686653  0.961484  2.433572
H    -2.921831  0.174314  3.790882
H    -3.311755  -1.218362  1.057167
H    -4.547287  -1.149368  2.284715
H    -1.858112  -2.611941  2.450057
H    -3.475278  -3.300608  2.345841
H    -3.813762  -2.134227  4.643456
H    -1.353379  -2.922514  6.978256
H    -2.629573  -1.773682  6.697765
H    -1.185179  -4.343926  3.993622
N    -1.722888  3.176198  2.960433
C    -2.557305  3.655520  1.861491
H    -1.483042  3.849901  3.687927
H    -2.179692  4.624784  1.517721
H    -3.599815  3.778579  2.183639
H    -2.525078  2.962805  1.015022
Hg    0.540463  -2.539101  3.670917
