36
Energy: -574588.139152 eV PBE+vdW (tier 2 basis)
C    -1.787253  0.001308  0.545314
C    -0.808509  0.207529  1.665802
O    0.366591  -0.224130  1.476189
H    -2.809412  0.299470  0.803301
H    -1.780134  -1.059901  0.262660
H    -1.445613  0.566697  -0.332256
N    -1.261071  0.825004  2.775751
C    -0.706471  0.963456  4.143029
C    0.230967  2.174448  4.301444
O    1.306769  2.357181  3.633036
H    -2.216634  1.156677  2.684777
H    -1.589178  1.219100  4.739752
C    -0.120653  -0.343127  4.736136
C    -1.187463  -1.384855  5.141431
C    -1.704199  -1.289290  6.597505
N    -2.348081  -0.019715  6.920603
C    -1.723796  1.113307  7.370961
N    -0.543627  0.988528  8.030343
N    -2.146936  2.337568  7.090174
H    0.495358  -0.070361  5.605217
H    0.561222  -0.813280  4.013914
H    -0.762503  -2.393117  5.038235
H    -2.038162  -1.353495  4.442705
H    -0.882680  -1.474984  7.299772
H    -2.438922  -2.089029  6.763269
H    -3.283124  0.122583  6.547937
H    -0.213208  1.837940  8.478470
H    -0.326108  0.130108  8.524502
H    -3.094065  2.345021  6.696611
N    -0.116032  3.075863  5.199224
C    0.686123  4.257792  5.522482
H    -0.965114  2.907446  5.793623
H    0.258118  4.718750  6.416783
H    0.653405  4.979062  4.696386
H    1.730649  3.978788  5.704183
Hg    2.226139  0.725440  2.391670
