36
Energy: -574588.169971 eV PBE+vdW (tier 2 basis)
C    0.082344  0.096568  0.042630
C    -0.062886  0.106872  1.537248
O    0.945768  0.321691  2.247602
H    0.282865  1.122255  -0.297394
H    -0.807973  -0.284603  -0.470529
H    0.953456  -0.510907  -0.229050
N    -1.297565  -0.127802  2.051470
C    -1.623588  -0.008451  3.465507
C    -0.953783  -1.113016  4.327323
O    -0.163628  -0.772440  5.249033
H    -2.060383  -0.228762  1.387753
H    -1.159278  0.917248  3.844831
C    -3.143275  0.121434  3.684976
C    -3.521684  0.301115  5.164322
C    -5.015312  0.544805  5.405010
N    -5.445674  1.836600  4.911594
C    -6.731164  2.284255  4.762508
N    -7.764349  1.475086  5.085183
N    -6.809382  3.513123  4.280956
H    -3.669915  -0.750394  3.269518
H    -3.473451  0.993334  3.098713
H    -2.946322  1.128124  5.610637
H    -3.247025  -0.593937  5.740698
H    -5.215589  0.469136  6.490259
H    -5.618454  -0.240114  4.915677
H    -4.767072  2.582589  4.770757
H    -8.713599  1.805770  4.954541
H    -7.653652  0.609507  5.600883
H    -7.776983  3.836283  4.162136
N    -1.209758  -2.410907  4.148587
C    -2.166431  -3.077904  3.269117
H    -0.696426  -3.011097  4.796104
H    -1.765867  -4.067326  3.023328
H    -2.296396  -2.526014  2.335481
H    -3.137502  -3.214739  3.764193
Hg    1.441688  0.889746  4.578941
