36
Energy: -574587.983364 eV PBE+vdW (tier 2 basis)
C    0.862238  -1.947257  1.044119
C    0.481044  -0.606081  1.596355
O    1.322901  0.331946  1.499726
H    1.155551  -1.822677  -0.007277
H    0.052380  -2.682504  1.106866
H    1.745864  -2.318269  1.579833
N    -0.741543  -0.474493  2.148490
C    -1.454898  0.773624  2.450621
C    -1.317949  1.131226  3.946681
O    -0.164163  1.215341  4.474280
H    -1.289079  -1.328815  2.199823
H    -0.901964  1.577121  1.935449
C    -2.876118  0.752763  1.849569
C    -3.689905  -0.548119  2.021876
C    -5.208078  -0.370128  1.763919
N    -5.917525  0.161551  2.927931
C    -5.811729  1.464188  3.384103
N    -5.855767  2.462994  2.471034
N    -5.544460  1.747753  4.639193
H    -2.776164  0.957256  0.774341
H    -3.418788  1.622229  2.246373
H    -3.568221  -0.980839  3.028959
H    -3.333511  -1.307151  1.309164
H    -5.660018  -1.343969  1.539169
H    -5.383683  0.268711  0.888997
H    -6.092911  -0.516877  3.666186
H    -5.862873  3.407949  2.843903
H    -6.350453  2.324955  1.596347
H    -5.698908  0.959090  5.276216
N    -2.381593  1.376708  4.698216
C    -2.300186  1.810655  6.095212
H    -3.325424  1.297029  4.311799
H    -3.239436  2.310578  6.347732
H    -1.458821  2.499944  6.221007
H    -2.148039  0.949411  6.758970
Hg    1.697788  1.829330  3.226512
