36
Energy: -574589.981913 eV PBE+vdW (tier 2 basis)
C    0.245215  1.552382  0.727609
C    0.160476  0.363006  1.618087
O    1.292428  -0.270091  1.865408
H    -0.731042  2.008842  0.536981
H    0.681243  1.228671  -0.230274
H    0.936361  2.295323  1.147327
N    -1.006883  -0.048674  2.048014
C    -1.450812  -1.316864  2.644609
C    -2.984526  -1.276437  2.326686
O    -3.468650  -0.174562  2.035719
H    -1.886440  0.474947  1.796818
H    -0.952858  -2.141880  2.116371
C    -1.199293  -1.469501  4.162602
C    -1.732813  -0.351495  5.069993
C    -1.048872  -0.319520  6.448467
N    0.360198  0.085872  6.296818
C    1.473589  -0.631016  6.562128
N    1.528418  -1.422460  7.636434
N    2.512866  -0.527383  5.704434
H    -0.112451  -1.595609  4.313209
H    -1.622527  -2.435686  4.471172
H    -2.814780  -0.464952  5.224037
H    -1.609103  0.635514  4.595089
H    -1.072140  -1.307206  6.927614
H    -1.562994  0.385855  7.113786
H    0.517997  0.962302  5.805911
H    2.256331  -2.121825  7.743184
H    0.932215  -1.247972  8.440307
H    3.439646  -0.813440  6.016580
N    -3.703967  -2.402912  2.409897
C    -3.263443  -3.774084  2.648623
H    -4.695480  -2.261192  2.221127
H    -2.210431  -3.904732  2.377621
H    -3.849251  -4.448562  2.014857
H    -3.410838  -4.071472  3.696168
Hg    2.019154  -0.413261  3.741717
