36
Energy: -574589.876313 eV PBE+vdW (tier 2 basis)
C    0.422221  0.436287  0.157206
C    -0.110291  -0.282857  1.342973
O    0.544358  -1.361727  1.700529
H    0.131270  -0.091870  -0.763262
H    1.519288  0.404313  0.198149
H    0.083789  1.474753  0.104081
N    -1.174055  0.079336  2.036356
C    -2.199271  1.108685  1.836213
C    -2.207356  1.800326  3.232226
O    -1.830935  1.093373  4.185282
H    -1.209364  -0.092322  3.085038
H    -1.947275  1.782320  1.008190
C    -3.569729  0.408684  1.650037
C    -3.747927  -0.486507  0.406037
C    -4.453404  -1.824374  0.706650
N    -3.507588  -2.805964  1.267668
C    -3.525918  -3.451571  2.454411
N    -4.670281  -3.637123  3.119313
N    -2.349063  -3.891721  2.952768
H    -4.346348  1.185432  1.660743
H    -3.732012  -0.180870  2.566780
H    -2.782074  -0.705803  -0.077255
H    -4.337766  0.040589  -0.355060
H    -4.887517  -2.245351  -0.209848
H    -5.273988  -1.674362  1.419534
H    -2.772218  -3.104814  0.632598
H    -4.671359  -3.925746  4.092161
H    -5.562531  -3.647389  2.635061
H    -2.360365  -4.599576  3.684274
N    -2.651723  3.053187  3.318565
C    -2.762248  3.793522  4.577549
H    -2.910401  3.535487  2.462778
H    -2.167299  4.712283  4.521370
H    -2.384446  3.162848  5.386091
H    -3.809834  4.052015  4.772559
Hg    -0.727748  -2.743248  2.535096
