36
Energy: -574588.84134 eV PBE+vdW (tier 2 basis)
C    -0.448305  -0.230953  0.349874
C    -0.403650  -0.053939  1.845709
O    0.761551  0.206596  2.332811
H    -0.636776  0.740100  -0.130468
H    -1.253541  -0.923231  0.078157
H    0.509151  -0.609352  -0.019819
N    -1.545340  -0.180854  2.527107
C    -1.556172  0.209525  3.897328
C    -0.646875  -0.701295  4.811716
O    0.304893  -0.223133  5.475596
H    -3.367410  -0.293863  1.606150
H    -1.066220  1.212469  4.040235
C    -2.994900  0.360108  4.428520
C    -3.911790  -0.844724  4.159697
C    -5.368172  -0.480869  3.849643
N    -5.584796  0.537310  2.795766
C    -5.318561  0.421093  1.478561
N    -6.150847  0.993307  0.596642
N    -4.234680  -0.236404  1.046705
H    -3.398967  1.247958  3.918604
H    -2.969131  0.610003  5.497842
H    -3.948545  -1.510555  5.033959
H    -3.516903  -1.445655  3.327419
H    -5.842694  -0.058087  4.743402
H    -5.923143  -1.394122  3.590025
H    -6.288716  1.232897  3.022922
H    -5.867565  1.171970  -0.360299
H    -7.105412  1.228001  0.845123
H    -4.159087  -0.455630  0.059729
N    -0.953498  -1.990624  4.871190
C    -0.260000  -2.960917  5.719666
H    -1.762346  -2.304613  4.341725
H    -0.344784  -3.948926  5.256780
H    -0.705729  -2.991688  6.722664
H    0.792504  -2.673665  5.808756
Hg    1.227964  1.495429  4.136624
