36
Energy: -574587.883751 eV PBE+vdW (tier 2 basis)
C    -0.267639  1.322887  1.107256
C    -0.172664  0.454410  2.320632
O    0.798812  0.523711  3.123697
H    -0.512795  2.345646  1.432200
H    -1.022605  1.005586  0.383113
H    0.709982  1.355923  0.612957
N    -1.116848  -0.464761  2.630755
C    -2.187011  -1.031763  1.818955
C    -3.444851  -1.052199  2.763200
O    -3.506406  -1.907271  3.641879
H    -0.933102  -0.955388  3.510798
H    -2.376609  -0.369316  0.965350
C    -1.842673  -2.455271  1.346589
C    -2.954647  -3.133181  0.534610
C    -2.558303  -4.570856  0.172050
N    -3.623010  -5.244670  -0.563637
C    -3.452279  -6.292329  -1.422650
N    -4.534395  -6.814792  -2.046124
N    -2.300419  -6.888856  -1.701614
H    -1.615869  -3.059291  2.237845
H    -0.919565  -2.391404  0.750659
H    -3.164839  -2.569073  -0.386718
H    -3.882369  -3.156335  1.128116
H    -2.321694  -5.135606  1.089994
H    -1.653501  -4.560325  -0.451950
H    -4.574461  -5.025267  -0.275870
H    -4.376934  -7.624562  -2.638737
H    -5.463051  -6.410094  -2.014077
H    -1.492796  -6.430794  -1.265417
N    -4.362473  -0.093041  2.549649
C    -5.596288  0.002592  3.328931
H    -4.248007  0.526204  1.754112
H    -6.410667  -0.563898  2.857724
H    -5.888658  1.055256  3.400994
H    -5.413942  -0.405690  4.328193
Hg    2.121365  2.477816  3.685532
