36
Energy: -574587.933146 eV PBE+vdW (tier 2 basis)
C    0.522955  -1.158513  0.761920
C    -0.011294  -0.386857  1.925364
O    0.706829  0.374607  2.630303
H    1.036912  -0.465120  0.083596
H    -0.245517  -1.707795  0.207741
H    1.278196  -1.873420  1.118993
N    -1.321170  -0.507683  2.235062
C    -1.968650  0.194480  3.334390
C    -1.067508  0.207844  4.586563
O    -0.433509  -0.831357  4.921610
H    -1.910476  -1.054641  1.612182
H    -2.117128  1.242630  3.029392
C    -3.361665  -0.408768  3.632323
C    -3.371909  -1.853691  4.153605
C    -4.787518  -2.474357  4.201941
N    -5.695248  -1.850330  5.156192
C    -5.777659  -2.101157  6.497328
N    -4.971368  -3.025140  7.067509
N    -6.593214  -1.455023  7.318418
H    -3.949873  -0.333397  2.702491
H    -3.857927  0.258526  4.351711
H    -2.907866  -1.905209  5.148554
H    -2.769510  -2.507688  3.505133
H    -4.709106  -3.549479  4.424527
H    -5.266661  -2.405459  3.216261
H    -6.388714  -1.201345  4.798389
H    -5.131097  -3.208281  8.054024
H    -4.424092  -3.694770  6.541523
H    -7.214584  -0.798459  6.830110
N    -1.041752  1.318365  5.326392
C    -1.645870  2.621451  5.042423
H    -0.468609  1.245933  6.166029
H    -1.287655  3.019282  4.082665
H    -1.341291  3.315399  5.830684
H    -2.741404  2.569746  5.037912
Hg    1.955028  -0.676619  4.429764
