36
Energy: -574587.505209 eV PBE+vdW (tier 2 basis)
C    -1.074579  -1.085714  1.476597
C    -1.493664  -0.859550  2.894047
O    -0.905530  -1.358029  3.844965
H    -0.356156  -0.296576  1.195870
H    -1.918680  -1.066289  0.779527
H    -0.546489  -2.042490  1.415037
N    -2.585461  0.043000  3.193058
C    -2.935560  1.187772  2.377243
C    -1.943457  2.365692  2.682925
O    -1.349698  2.481612  3.784781
H    -3.406301  -0.468662  3.618425
H    -2.798061  0.947010  1.309733
C    -4.386579  1.677067  2.630844
C    -5.481927  1.240173  1.633225
C    -6.257089  -0.068036  1.911342
N    -5.522945  -1.297578  1.648121
C    -4.732698  -2.000386  2.509862
N    -4.784554  -1.640928  3.866013
N    -3.833905  -2.882306  2.183054
H    -4.367183  2.775393  2.613893
H    -4.666952  1.424183  3.665022
H    -5.079219  1.210512  0.608993
H    -6.245444  2.031301  1.626241
H    -7.140274  -0.078935  1.258286
H    -6.642995  -0.069964  2.939379
H    -5.497390  -1.614712  0.682328
H    -4.400888  -2.399858  4.432256
H    -5.695626  -1.351016  4.218987
H    -3.836152  -3.118285  1.185260
N    -1.766574  3.284826  1.737608
C    -2.369890  3.350007  0.403965
H    -1.159843  4.057807  2.011025
H    -2.221381  2.415792  -0.151641
H    -1.864303  4.146924  -0.148968
H    -3.439419  3.591305  0.451448
Hg    -1.469737  0.683866  5.326849
