36
Energy: -574588.123527 eV PBE+vdW (tier 2 basis)
C    -1.155160  -2.487774  0.706003
C    -0.497093  -1.263770  1.289072
O    0.776493  -1.262696  1.237234
H    -0.394566  -3.234234  0.462801
H    -1.682980  -2.210105  -0.218137
H    -1.870841  -2.918970  1.417391
N    -1.211575  -0.273228  1.803453
C    -2.669196  -0.126491  1.869913
C    -2.875161  1.408827  1.813691
O    -1.933927  2.146724  2.129072
H    -0.749547  0.600258  2.099032
H    -3.125296  -0.593968  0.986897
C    -3.213825  -0.746907  3.186994
C    -4.730929  -0.682073  3.395264
C    -5.529666  -1.523085  2.375951
N    -6.948310  -1.204556  2.364899
C    -7.492406  -0.215473  1.600671
N    -8.837816  -0.095305  1.573702
N    -6.654400  0.565341  0.924606
H    -2.718839  -0.244299  4.030429
H    -2.873525  -1.793529  3.219324
H    -5.081716  0.357480  3.359525
H    -4.950481  -1.038359  4.410973
H    -5.437845  -2.592571  2.607433
H    -5.159210  -1.374312  1.354504
H    -7.560517  -1.738489  2.975382
H    -9.274933  0.670359  1.075459
H    -9.460202  -0.777139  1.994171
H    -7.172806  1.251754  0.365561
N    -4.075602  1.880829  1.417893
C    -4.328798  3.310871  1.339021
H    -4.839919  1.240437  1.137652
H    -3.950469  3.725053  0.391254
H    -3.811961  3.826954  2.157044
H    -5.406802  3.485799  1.397382
Hg    2.303995  0.416816  1.724969
