36
Energy: -574587.730964 eV PBE+vdW (tier 2 basis)
C    -0.587418  1.507033  -0.188044
C    -0.300481  0.738666  1.064585
O    0.838956  0.298347  1.370078
H    0.350618  1.818899  -0.654571
H    -1.204150  2.393256  0.006525
H    -1.117495  0.866612  -0.908281
N    -1.297828  0.428406  1.929254
C    -2.738758  0.468624  1.726618
C    -3.313410  1.187457  3.006656
O    -3.353058  0.564111  4.062001
H    -0.983518  -0.084603  2.757903
H    -2.949060  1.075874  0.836945
C    -3.313676  -0.958217  1.601892
C    -4.843108  -1.099960  1.576625
C    -5.522861  -0.642681  0.281462
N    -6.948475  -0.959542  0.331577
C    -7.780583  -1.034003  -0.745429
N    -9.072816  -1.392181  -0.559286
N    -7.447732  -0.754760  -2.000117
H    -2.947453  -1.530777  2.465414
H    -2.869710  -1.419819  0.706457
H    -5.280864  -0.575015  2.440281
H    -5.065515  -2.166763  1.723323
H    -5.074213  -1.166068  -0.576603
H    -5.389998  0.441412  0.118755
H    -7.357832  -1.054755  1.258395
H    -9.668375  -1.406416  -1.382181
H    -9.446295  -1.746127  0.314338
H    -6.445854  -0.565185  -2.112233
N    -3.698470  2.465536  2.846162
C    -4.265802  3.258247  3.938111
H    -3.673321  2.873624  1.918071
H    -5.358902  3.161763  3.975426
H    -4.003607  4.309988  3.784569
H    -3.847647  2.902733  4.885395
Hg    3.044720  1.277392  1.017463
