36
Energy: -574588.812413 eV PBE+vdW (tier 2 basis)
C    -0.528323  -2.383337  0.162891
C    -1.062311  -1.437683  1.193113
O    -0.759541  -0.225791  1.171943
H    0.559779  -2.465631  0.294975
H    -0.693764  -1.960814  -0.835689
H    -0.969899  -3.384301  0.218088
N    -1.878507  -1.955595  2.162804
C    -2.478161  -1.094308  3.160581
C    -1.465460  -0.686640  4.253483
O    -0.955216  0.498832  4.237443
H    -2.126749  -2.939499  2.119353
H    -2.645549  -0.155894  2.616073
C    -3.895897  -1.461546  3.621936
C    -4.979255  -1.007232  2.614763
C    -4.935909  0.467176  2.151488
N    -4.132714  0.615816  0.909355
C    -3.622175  1.768626  0.348029
N    -2.957079  2.719422  1.293764
N    -3.452083  2.124811  -0.852978
H    -4.075411  -0.962025  4.586183
H    -4.000585  -2.538065  3.815789
H    -5.954181  -1.183552  3.087148
H    -4.966842  -1.656388  1.725738
H    -4.517187  1.112654  2.941383
H    -5.962033  0.823051  1.976831
H    -4.463475  -0.012435  0.178011
H    -2.530658  3.423725  0.673365
H    -3.625101  3.205769  1.906303
H    -3.916257  1.562557  -1.571171
N    -1.078234  -1.499443  5.214844
C    -1.532831  -2.862872  5.500455
H    -0.396202  -1.099534  5.862483
H    -0.716032  -3.394803  5.997861
H    -1.773912  -3.397121  4.577776
H    -2.404967  -2.851318  6.166075
Hg    -1.529188  1.676580  2.545230
