36
Energy: -574589.829233 eV PBE+vdW (tier 2 basis)
C    0.287585  0.972170  0.527583
C    -0.248355  -0.081151  1.428741
O    0.215780  -1.284871  1.253449
H    0.040507  1.983152  0.864445
H    -0.105374  0.817079  -0.487975
H    1.377874  0.859048  0.461431
N    -1.149022  0.154069  2.370807
C    -1.969436  1.305732  2.748313
C    -2.338067  0.984326  4.224636
O    -2.334984  -0.214791  4.590902
H    -1.321522  -0.571450  3.093552
H    -1.372986  2.228012  2.710623
C    -3.228796  1.493779  1.853323
C    -4.066497  0.278595  1.400609
C    -4.823222  -0.581508  2.444589
N    -4.013901  -1.696309  2.961582
C    -3.768637  -2.841836  2.332980
N    -4.431715  -3.227828  1.244157
N    -2.733351  -3.720549  2.721075
H    -2.895638  1.999199  0.935185
H    -3.879580  2.218887  2.364526
H    -3.457839  -0.385154  0.765386
H    -4.826461  0.693995  0.723486
H    -5.748332  -0.979372  2.006496
H    -5.139645  0.010761  3.312017
H    -3.383990  -1.425946  3.734179
H    -5.210879  -2.706710  0.855530
H    -4.274456  -4.172915  0.905588
H    -2.652800  -3.780306  3.742920
N    -2.655085  2.009670  5.007677
C    -3.058298  1.888422  6.410841
H    -2.579539  2.948658  4.624688
H    -4.087913  2.243669  6.538959
H    -2.390260  2.491169  7.036606
H    -2.988556  0.839624  6.708647
Hg    -1.022963  -2.773425  2.044910
