36
Energy: -574589.927328 eV PBE+vdW (tier 2 basis)
C    -0.021848  0.569355  -0.228853
C    -0.575787  -0.392663  0.781621
O    -0.089265  -1.461323  1.079868
H    0.213389  1.542999  0.225187
H    -0.736889  0.740651  -1.047032
H    0.894305  0.146352  -0.649405
N    -1.764027  -0.010396  1.499345
C    -2.720379  1.028656  1.132216
C    -2.134776  2.406474  1.472390
O    -1.461104  2.596834  2.557055
H    -2.194551  -0.860509  1.867171
H    -2.956945  0.989069  0.059963
C    -4.041484  0.881513  1.958871
C    -4.519646  -0.543285  2.329999
C    -4.108064  -1.112886  3.707295
N    -2.855102  -1.911215  3.744772
C    -1.871175  -1.814488  4.680849
N    -1.306379  -2.938954  5.135041
N    -1.457537  -0.616210  5.132585
H    -4.830027  1.373333  1.375077
H    -3.967369  1.474832  2.885989
H    -4.304874  -1.269704  1.530200
H    -5.616665  -0.492001  2.358572
H    -4.911346  -1.778180  4.053243
H    -4.027559  -0.317256  4.459112
H    -2.945629  -2.843156  3.344170
H    -0.397584  -2.929222  5.587245
H    -1.772819  -3.838186  5.066313
H    -0.873651  -0.629604  5.966226
N    -2.339975  3.446322  0.691798
C    -3.051636  3.483663  -0.594388
H    -1.955762  4.327522  1.036496
H    -2.996742  4.507854  -0.972491
H    -4.108032  3.218390  -0.471494
H    -2.575675  2.821254  -1.327040
Hg    -1.332002  0.965611  3.854108
