36
Energy: -574587.960914 eV PBE+vdW (tier 2 basis)
C    -0.274430  0.171476  -0.203758
C    -0.172833  -0.018394  1.275244
O    0.909808  -0.446058  1.766569
H    0.178547  1.135618  -0.481310
H    -1.309551  0.128546  -0.559111
H    0.317909  -0.606889  -0.700028
N    -1.221321  0.236225  2.094556
C    -2.112644  1.390550  1.990544
C    -1.504849  2.454452  2.940065
O    -0.697292  2.107581  3.841810
H    -1.014697  0.006646  3.068362
H    -2.070803  1.763018  0.958602
C    -3.581547  1.030472  2.313613
C    -3.852673  0.529670  3.737205
C    -5.363565  0.264596  3.924061
N    -5.711531  -0.234322  5.244048
C    -6.047514  0.574318  6.296308
N    -6.537703  -0.002076  7.418496
N    -5.853650  1.870953  6.117510
H    -3.885792  0.270974  1.578223
H    -4.202311  1.915216  2.111765
H    -3.547072  1.273962  4.488087
H    -3.294521  -0.396596  3.942391
H    -5.707921  -0.484967  3.197385
H    -5.924129  1.191307  3.755947
H    -5.731033  -1.241282  5.380194
H    -6.737648  0.567470  8.232141
H    -6.838802  -0.970381  7.456934
H    -6.103409  2.414790  6.951596
N    -1.856501  3.739597  2.819648
C    -2.845878  4.354477  1.940665
H    -1.396933  4.351656  3.495536
H    -3.821491  4.442750  2.439158
H    -2.961902  3.782338  1.015036
H    -2.499492  5.360821  1.680929
Hg    1.551820  0.713523  3.771343
