36
Energy: -574589.860761 eV PBE+vdW (tier 2 basis)
C    -0.115329  1.837780  2.664834
C    -0.345460  0.711863  3.626931
O    0.054945  0.757349  4.804223
H    -0.349646  2.789862  3.154764
H    -0.693254  1.748449  1.738459
H    0.954517  1.865747  2.412698
N    -1.017456  -0.386352  3.149584
C    -1.277428  -1.525823  4.008827
C    -0.066752  -2.484039  4.010212
O    0.847220  -2.386441  4.914565
H    -1.326158  -0.396417  2.181762
H    -1.257153  -1.085077  5.012516
C    -2.685491  -2.125555  3.901651
C    -3.723250  -1.274413  4.671359
C    -3.523529  -1.190391  6.214967
N    -3.084256  0.132774  6.698930
C    -1.952409  0.468753  7.344273
N    -1.597389  1.750867  7.433015
N    -1.103590  -0.430993  7.955329
H    -2.672162  -3.144599  4.316687
H    -3.005182  -2.225696  2.853306
H    -4.713719  -1.705783  4.480789
H    -3.756387  -0.258463  4.249993
H    -2.808553  -1.944345  6.569789
H    -4.471639  -1.419476  6.717973
H    -3.738655  0.891862  6.514209
H    -0.871939  2.007112  8.094878
H    -2.039534  2.491012  6.898997
H    -1.605228  -1.250436  8.307884
N    0.069532  -3.380876  3.055194
C    1.207833  -4.298486  2.916918
H    -0.652006  -3.418978  2.339061
H    0.870908  -5.190925  2.382228
H    1.577012  -4.575195  3.908434
H    2.015781  -3.816670  2.351632
Hg    0.266967  -1.171332  6.571186
