36
Energy: -574588.116265 eV PBE+vdW (tier 2 basis)
C    1.090292  0.593077  -0.635941
C    0.767404  0.817547  0.815408
O    1.689663  0.663582  1.658989
H    0.204157  0.534884  -1.277464
H    1.674491  -0.330156  -0.732519
H    1.735101  1.414121  -0.980149
N    -0.505484  1.159473  1.110954
C    -1.195643  1.280340  2.409116
C    -1.012495  2.680980  3.024864
O    0.112401  3.200926  3.261905
H    -1.105353  1.282752  0.300896
H    -2.260192  1.187296  2.148028
C    -0.900814  0.160939  3.432097
C    -1.233514  -1.245970  2.915106
C    -1.073283  -2.306429  4.009288
N    -1.407287  -3.632267  3.509444
C    -1.227177  -4.812102  4.174621
N    -0.734085  -4.805581  5.432467
N    -1.481212  -6.004121  3.655256
H    -1.514446  0.387863  4.317571
H    0.146342  0.196827  3.760228
H    -0.579352  -1.504717  2.069438
H    -2.271185  -1.266425  2.543954
H    -1.720687  -2.060764  4.871712
H    -0.031482  -2.318735  4.376227
H    -1.846610  -3.707537  2.597449
H    -0.608080  -5.711343  5.874820
H    -0.594845  -3.972430  5.989046
H    -1.871376  -5.953384  2.706457
N    -2.125043  3.355781  3.311154
C    -2.136832  4.683666  3.928503
H    -3.016137  2.968983  3.013683
H    -3.091606  4.820637  4.444262
H    -2.020060  5.464723  3.165958
H    -1.311552  4.759860  4.642939
Hg    2.201749  2.131339  3.450514
