36
Energy: -574588.823325 eV PBE+vdW (tier 2 basis)
C    0.459724  -3.694116  0.139094
C    0.510724  -2.718196  1.290743
O    1.801993  -2.379786  1.497706
H    0.926959  -3.253263  -0.751096
H    -0.586157  -3.938786  -0.070181
H    1.023185  -4.601733  0.388283
N    -0.590129  -2.357947  1.865301
C    -0.721194  -1.268435  2.817823
C    -0.472584  -1.721442  4.275544
O    0.585283  -1.317398  4.901327
H    -3.367059  4.347468  -0.327680
H    0.035253  -0.462940  2.671868
C    -2.081772  -0.556948  2.608285
C    -2.137119  0.116399  1.230769
C    -3.523620  0.638183  0.831008
N    -4.000903  1.806512  1.586721
C    -3.979945  3.081046  1.168575
N    -4.718004  4.001301  1.806903
N    -3.223833  3.453902  0.128086
H    -2.225862  0.177148  3.416574
H    -2.889532  -1.297096  2.674294
H    -1.395846  0.930475  1.174873
H    -1.849359  -0.627355  0.472592
H    -4.277991  -0.150774  0.957925
H    -3.541736  0.896155  -0.236294
H    -4.474986  1.632340  2.466481
H    -4.581363  4.991868  1.642962
H    -5.489898  3.737899  2.407563
H    -2.526144  2.839550  -0.269707
N    -1.288754  -2.527790  4.930707
C    -2.512174  -3.186259  4.468024
H    -0.980718  -2.745624  5.879838
H    -2.571459  -4.160250  4.965140
H    -2.464526  -3.347620  3.387510
H    -3.401776  -2.603864  4.739414
Hg    2.128930  -1.420416  3.323136
