36
Energy: -574589.877956 eV PBE+vdW (tier 2 basis)
C    0.074386  -1.778400  -0.196766
C    0.009630  -0.811834  0.937695
O    0.852146  0.185533  0.841793
H    -0.173260  -1.262453  -1.134158
H    -0.594456  -2.632700  -0.052643
H    1.107835  -2.140287  -0.294221
N    -0.824132  -1.040178  1.926999
C    -1.030040  -0.448830  3.260488
C    -1.654395  -1.667675  4.030034
O    -2.336700  -2.439415  3.351960
H    -1.450518  -1.872079  1.867915
H    -0.063232  -0.133680  3.678183
C    -2.067975  0.703887  3.181634
C    -2.457710  1.474113  4.454031
C    -1.368255  2.257890  5.217850
N    -0.340300  2.875583  4.366313
C    -0.468974  3.891366  3.484260
N    -1.374383  4.852229  3.674056
N    0.342492  3.873870  2.405481
H    -2.988342  0.268282  2.766073
H    -1.734507  1.420325  2.409773
H    -2.933331  0.797650  5.179036
H    -3.251898  2.170479  4.150118
H    -0.809421  1.604662  5.895090
H    -1.843425  3.008225  5.865253
H    0.597219  2.494710  4.434860
H    -1.607850  5.512037  2.938959
H    -1.749738  5.042543  4.598468
H    0.464986  4.730558  1.867813
N    -1.478815  -1.814205  5.353862
C    -0.585886  -1.124916  6.274216
H    -1.984782  -2.617877  5.726150
H    0.184189  -0.567684  5.730239
H    -0.069744  -1.864059  6.897948
H    -1.136178  -0.444034  6.938667
Hg    0.660275  2.044168  1.595704
