36
Energy: -574587.469815 eV PBE+vdW (tier 2 basis)
C    -1.810577  -0.338830  5.129200
C    -2.266343  -1.659429  5.652061
O    -1.829762  -2.068016  6.757154
H    -2.520794  0.109942  4.430423
H    -0.824081  -0.440491  4.653242
H    -1.671988  0.327842  5.990690
N    -3.233616  -2.425905  5.026373
C    -3.192940  -2.971423  3.662684
C    -2.225316  -4.190309  3.838177
O    -1.066144  -3.934404  4.258095
H    -3.599845  -3.113020  5.690526
H    -4.209143  -3.350396  3.462552
C    -2.778350  -1.980164  2.569167
C    -2.782644  -2.466652  1.108095
C    -4.151954  -2.733784  0.424823
N    -4.574482  -4.132031  0.490110
C    -5.240646  -4.734537  1.519148
N    -6.080085  -3.981779  2.289719
N    -4.998470  -5.970392  1.906340
H    -1.759426  -1.626903  2.771502
H    -3.438355  -1.104527  2.657865
H    -2.137516  -3.349827  0.981687
H    -2.295436  -1.671713  0.527244
H    -4.069092  -2.486662  -0.641537
H    -4.935825  -2.084232  0.833604
H    -4.042318  -4.771178  -0.096727
H    -6.667406  -4.525034  2.918397
H    -6.541591  -3.178311  1.872805
H    -4.486320  -6.522704  1.210243
N    -2.694517  -5.426140  3.685188
C    -1.904733  -6.609967  4.010151
H    -3.644066  -5.578550  3.304578
H    -2.437582  -7.494037  3.648956
H    -1.784565  -6.709545  5.101806
H    -0.910422  -6.550496  3.553150
Hg    -0.573381  -4.169322  6.654922
