36
Energy: -574587.701335 eV PBE+vdW (tier 2 basis)
C    -0.757370  1.345132  -0.853248
C    -0.806369  0.501332  0.382192
O    0.116771  -0.318926  0.610010
H    -0.126807  2.228138  -0.666728
H    -1.749788  1.670364  -1.183001
H    -0.268414  0.774047  -1.650937
N    -1.854006  0.595021  1.252224
C    -2.442297  1.862597  1.695214
C    -1.562179  2.336220  2.882599
O    -0.890677  1.492342  3.530113
H    -1.747862  -0.052545  2.037015
H    -2.377231  2.581623  0.868032
C    -3.912222  1.699728  2.132137
C    -4.910938  1.356231  1.010027
C    -5.078010  -0.139929  0.726250
N    -6.097281  -0.357886  -0.289674
C    -6.613377  -1.560740  -0.677825
N    -6.174961  -2.702311  -0.105977
N    -7.543730  -1.700267  -1.613060
H    -4.229572  2.646624  2.588009
H    -3.964767  0.956982  2.944020
H    -4.626603  1.878794  0.082330
H    -5.892678  1.756013  1.302842
H    -5.379713  -0.660942  1.653074
H    -4.124020  -0.590729  0.394069
H    -6.478945  0.454447  -0.765903
H    -6.613178  -3.564805  -0.416426
H    -5.495599  -2.744851  0.642024
H    -7.847687  -0.804042  -2.013749
N    -1.543991  3.625551  3.238869
C    -2.346170  4.737469  2.740803
H    -0.938307  3.818107  4.038750
H    -1.729983  5.643635  2.746342
H    -3.221532  4.911796  3.382800
H    -2.680489  4.554519  1.715116
Hg    0.978728  -0.217336  2.911022
