36
Energy: -574587.989819 eV PBE+vdW (tier 2 basis)
C    0.043297  1.753809  -0.543716
C    -0.057265  1.468258  0.920525
O    0.804222  1.961423  1.701571
H    -0.440671  2.718435  -0.761299
H    -0.411100  0.965641  -1.153281
H    1.101280  1.865091  -0.808824
N    -1.040516  0.679644  1.417844
C    -2.446716  0.718469  1.014186
C    -3.058333  1.944478  1.740853
O    -2.605071  2.325585  2.849980
H    -0.929819  0.490534  2.415527
H    -2.499106  0.864454  -0.074010
C    -3.114085  -0.619600  1.408353
C    -4.566770  -0.783178  0.954228
C    -5.201948  -2.120845  1.393651
N    -4.712086  -3.294506  0.685139
C    -3.884552  -4.238305  1.235713
N    -3.768928  -5.429028  0.601795
N    -3.251899  -3.890510  2.343363
H    -3.053262  -0.734295  2.502019
H    -2.488440  -1.415653  0.979903
H    -4.649346  -0.678962  -0.139742
H    -5.202464  -0.001786  1.397620
H    -6.285815  -2.065988  1.216131
H    -5.039708  -2.286282  2.464129
H    -5.119625  -3.490884  -0.225689
H    -3.098052  -6.113551  0.929967
H    -4.406223  -5.731228  -0.127739
H    -2.652796  -4.646549  2.694404
N    -4.092760  2.560737  1.159885
C    -4.786613  3.715561  1.726438
H    -4.465500  2.164410  0.300709
H    -5.115987  4.368139  0.911450
H    -4.103626  4.253713  2.389697
H    -5.662323  3.395919  2.307915
Hg    -0.213085  2.852001  3.680053
