36
Energy: -574589.90756 eV PBE+vdW (tier 2 basis)
C    -0.582231  0.991988  2.485002
C    -1.975877  1.534806  2.580549
O    -2.100373  2.761220  2.454390
H    -3.835836  3.634762  -3.126071
H    -0.421048  0.185198  1.761256
H    0.146415  1.803668  2.427600
N    -3.081193  0.747426  2.792074
C    -3.449468  -0.557376  2.201728
C    -2.771759  -1.732121  2.937362
O    -1.535935  -1.729180  3.104503
H    -3.883674  1.336241  3.010514
H    -4.533234  -0.631731  2.373322
C    -3.184561  -0.616235  0.676292
C    -4.262435  0.021405  -0.220481
C    -4.682278  1.483097  0.017311
N    -3.622762  2.492656  -0.089824
C    -3.376634  3.265451  -1.156843
N    -2.607462  4.354468  -1.009366
N    -3.872491  2.967199  -2.364897
H    -3.098026  -1.670805  0.378900
H    -2.198992  -0.175803  0.466851
H    -5.186546  -0.573467  -0.147540
H    -3.922947  -0.096923  -1.261022
H    -5.133868  1.610522  1.010486
H    -5.485483  1.740459  -0.687572
H    -3.140434  2.755159  0.775141
H    -2.262706  4.872256  -1.808678
H    -2.395079  4.723947  -0.090121
H    -4.317568  2.079341  -2.554442
N    -3.570311  -2.734077  3.319211
C    -3.092077  -3.953144  3.969611
H    -4.570967  -2.643471  3.172630
H    -3.633827  -4.814229  3.564301
H    -3.256978  -3.904710  5.053837
H    -2.022989  -4.064627  3.769451
Hg    0.019935  -0.086516  4.281214
