36
Energy: -574589.531303 eV PBE+vdW (tier 2 basis)
C    -0.747769  1.190326  0.856971
C    -0.577398  0.347851  2.068995
O    0.549985  0.488628  2.719492
H    -1.795064  1.283064  0.554392
H    -0.165077  0.763166  0.026899
H    -0.327142  2.184596  1.055325
N    -1.470418  -0.521041  2.506283
C    -2.714556  -1.077702  1.974381
C    -3.482617  -1.391301  3.293820
O    -2.788459  -1.484776  4.330875
H    -1.494753  -0.822648  3.526492
H    -3.244180  -0.347935  1.349827
C    -2.471065  -2.388924  1.174322
C    -1.770302  -3.537483  1.950502
C    -0.274732  -3.639597  1.614500
N    0.540809  -4.553481  2.444991
C    1.260175  -4.182649  3.519703
N    2.412784  -4.779648  3.808893
N    0.838284  -3.207706  4.411442
H    -1.910712  -2.135828  0.261260
H    -3.451675  -2.736199  0.824748
H    -2.251184  -4.490751  1.697121
H    -1.912243  -3.411427  3.033339
H    0.200257  -2.645881  1.653118
H    -0.150102  -3.988343  0.580881
H    0.794317  -5.436877  2.005319
H    2.800795  -4.663559  4.741341
H    2.885044  -5.415711  3.172355
H    -0.177385  -3.286113  4.544329
N    -4.797403  -1.599671  3.275438
C    -5.733657  -1.505944  2.156822
H    -5.188017  -1.844052  4.185213
H    -5.321070  -0.895776  1.347704
H    -6.653253  -1.022731  2.503890
H    -5.985723  -2.501044  1.767169
Hg    0.976773  -1.252530  3.780331
