36
Energy: -574587.920619 eV PBE+vdW (tier 2 basis)
C    2.016725  0.783121  1.390356
C    1.292209  0.472537  2.667944
O    1.958728  0.420447  3.735083
H    2.335085  1.835025  1.410618
H    1.396133  0.602179  0.505557
H    2.926748  0.174153  1.336733
N    -0.039367  0.249634  2.597029
C    -0.899926  0.068611  3.757249
C    -0.634277  -1.279736  4.486819
O    -0.201498  -1.262914  5.675254
H    -0.479117  0.362809  1.671465
H    -0.619917  0.817483  4.519675
C    -2.384645  0.288149  3.414496
C    -2.787308  1.783986  3.381453
C    -3.813064  2.141871  2.275478
N    -3.182550  2.288909  0.962206
C    -2.643873  1.212461  0.264090
N    -3.442264  0.135395  0.074778
N    -1.378997  1.168133  -0.077550
H    -2.995697  -0.228095  4.167646
H    -2.610985  -0.205539  2.461198
H    -1.902226  2.423646  3.240545
H    -3.219806  2.071928  4.349188
H    -4.279534  3.106932  2.510539
H    -4.618488  1.398534  2.226255
H    -2.647333  3.148895  0.852113
H    -3.084168  -0.581244  -0.549374
H    -4.448427  0.266616  0.061386
H    -0.919754  2.083318  -0.038221
N    -0.879914  -2.457292  3.918248
C    -1.511239  -2.771780  2.638277
H    -0.679249  -3.250906  4.529614
H    -1.140112  -3.750161  2.315179
H    -1.240714  -2.036720  1.875720
H    -2.603179  -2.830274  2.738499
Hg    1.440054  0.367360  6.057871
