36
Energy: -574587.567131 eV PBE+vdW (tier 2 basis)
C    0.134040  -0.115733  0.201167
C    -0.189197  0.112648  1.640562
O    0.750997  0.488590  2.402338
H    0.383008  -1.177477  0.047808
H    1.035012  0.459282  -0.042877
H    -0.681846  0.172909  -0.467246
N    -1.444087  0.003845  2.161585
C    -2.414595  -1.088252  1.994772
C    -1.855534  -2.314158  2.773892
O    -0.617885  -2.410174  3.006284
H    -1.475699  0.401369  3.101499
H    -3.314674  -0.745588  2.527067
C    -2.803201  -1.456076  0.549652
C    -3.628258  -0.415787  -0.222754
C    -5.025730  -0.076643  0.360455
N    -5.801809  -1.266352  0.698866
C    -5.823504  -1.823913  1.962131
N    -5.871031  -0.974105  3.024196
N    -5.644761  -3.105555  2.180763
H    -3.360299  -2.401805  0.601801
H    -1.907001  -1.705948  -0.030897
H    -3.751831  -0.789295  -1.249500
H    -3.090402  0.540149  -0.311374
H    -5.584932  0.507315  -0.385194
H    -4.941785  0.549467  1.255146
H    -5.966283  -1.924538  -0.061592
H    -6.008308  -1.423737  3.925516
H    -6.353567  -0.086923  2.915792
H    -5.741411  -3.692935  1.346463
N    -2.717027  -3.255028  3.159178
C    -2.335114  -4.441124  3.919896
H    -3.706094  -3.195754  2.865092
H    -3.199659  -4.778504  4.499630
H    -1.497876  -4.205329  4.583983
H    -2.022564  -5.248780  3.241894
Hg    0.965194  -0.968643  4.237856
