36
Energy: -574587.856535 eV PBE+vdW (tier 2 basis)
C    0.317537  0.565055  0.192371
C    0.202634  0.566763  1.690477
O    1.192597  0.937350  2.367513
H    0.752598  1.516448  -0.135143
H    -0.644041  0.402282  -0.309469
H    1.020032  -0.227324  -0.102129
N    -0.968297  0.146515  2.223648
C    -1.312648  0.159081  3.642140
C    -0.594015  -0.967784  4.431314
O    0.277857  -0.655823  5.295958
H    -1.699385  -0.106471  1.565146
H    -0.889255  1.076680  4.081948
C    -2.841356  0.190967  3.859222
C    -3.474263  1.594102  3.928065
C    -3.300322  2.515395  2.715410
N    -3.823050  1.937915  1.485159
C    -3.286949  2.108784  0.233143
N    -2.358381  3.093264  0.062230
N    -3.511644  1.300395  -0.777221
H    -3.067830  -0.307600  4.812057
H    -3.331241  -0.419939  3.085926
H    -3.081345  2.134205  4.801940
H    -4.547700  1.461480  4.132218
H    -2.240376  2.754640  2.538971
H    -3.802685  3.474744  2.933513
H    -4.679791  1.392744  1.534424
H    -2.437008  3.960798  0.583500
H    -2.026723  3.191402  -0.894407
H    -4.281167  0.640097  -0.621804
N    -0.873395  -2.258147  4.259623
C    -1.927227  -2.899518  3.475591
H    -0.320354  -2.872200  4.860389
H    -1.618831  -3.932374  3.284801
H    -2.058838  -2.403569  2.509605
H    -2.879280  -2.918139  4.022279
Hg    1.728377  1.088477  4.713198
