36
Energy: -574588.656713 eV PBE+vdW (tier 2 basis)
C    1.168927  -1.340293  0.484482
C    0.439473  -0.090045  0.855596
O    0.731379  1.005798  0.311607
H    0.782167  -1.726788  -0.470705
H    1.099874  -2.119098  1.251023
H    2.222013  -1.085623  0.312958
N    -0.553990  -0.116670  1.792976
C    -1.586450  -1.142774  1.869733
C    -2.824440  -0.628370  1.098177
O    -2.882680  0.594061  0.633425
H    -0.892118  0.821038  2.012873
H    -1.221794  -2.028907  1.331901
C    -1.911350  -1.587703  3.312583
C    -2.484032  -0.492623  4.220117
C    -2.690138  -0.924551  5.675616
N    -3.755856  -1.928615  5.809595
C    -3.967387  -2.685354  6.898674
N    -4.906375  -3.642452  6.872371
N    -3.232209  -2.509542  8.002717
H    -0.980440  -1.984423  3.744160
H    -2.611112  -2.431070  3.229202
H    -3.433023  -0.104306  3.815535
H    -1.798983  0.366979  4.263789
H    -2.935682  -0.035881  6.278845
H    -1.759106  -1.359952  6.068706
H    -4.500708  -1.906320  5.119654
H    -5.326972  -3.949035  6.004122
H    -5.222875  -4.094218  7.722282
H    -2.692733  -1.666378  8.152653
N    -3.878636  -1.368504  1.056322
C    -4.947155  -1.310358  0.110233
H    -3.274103  -3.170595  8.769815
H    -4.685800  -0.788088  -0.819075
H    -5.828364  -0.838195  0.576116
H    -5.260945  -2.343702  -0.115683
Hg    -1.380509  1.908306  -0.525263
