36
Energy: -574587.512418 eV PBE+vdW (tier 2 basis)
C    -0.274970  0.363244  -0.046235
C    0.049654  0.229482  1.407455
O    1.156890  0.673844  1.823326
H    -1.285625  0.752073  -0.208452
H    -0.190341  -0.622879  -0.530443
H    0.458662  1.026335  -0.514516
N    -0.811638  -0.337291  2.291598
C    -1.641577  -1.530285  2.056785
C    -0.674722  -2.692862  1.692594
O    0.565397  -2.569922  1.843611
H    -0.486646  -0.245314  3.252913
H    -2.035404  -1.780665  3.054139
C    -2.847142  -1.308135  1.106648
C    -4.156951  -2.011183  1.519261
C    -4.959381  -1.227587  2.580935
N    -6.229371  -1.847640  2.929449
C    -7.406205  -1.658447  2.260881
N    -8.523533  -2.270594  2.717230
N    -7.564303  -0.938431  1.158717
H    -2.581309  -1.607159  0.083783
H    -3.032608  -0.225901  1.061881
H    -3.975825  -3.031857  1.893731
H    -4.787278  -2.126918  0.625893
H    -5.146767  -0.202250  2.229643
H    -4.391391  -1.126570  3.516570
H    -6.219928  -2.518547  3.693029
H    -9.377658  -2.119128  2.188313
H    -8.589298  -2.739208  3.613991
H    -6.727180  -0.404271  0.903091
N    -1.196182  -3.834700  1.237183
C    -0.395815  -5.022742  0.932100
H    -2.183700  -3.861599  1.004980
H    0.037657  -4.954803  -0.074365
H    -1.041122  -5.904062  0.988722
H    0.416143  -5.110089  1.660480
Hg    2.326395  -1.032858  2.994604
