36
Energy: -574589.460846 eV PBE+vdW (tier 2 basis)
C    -0.864846  2.350021  -0.323525
C    -0.805428  0.870009  -0.341884
O    0.379187  0.351811  -0.529994
H    -1.891066  2.725099  -0.295256
H    -0.375011  2.710103  -1.242041
H    -0.291953  2.736865  0.528253
N    -1.876580  0.067507  -0.325530
C    -3.093119  0.105566  0.505617
C    -2.895239  1.162550  1.627808
O    -1.801687  1.209073  2.194144
H    -1.686951  -0.871755  -0.673704
H    -3.969097  0.305931  -0.127299
C    -3.197757  -1.265574  1.238017
C    -3.098518  -2.556372  0.401599
C    -2.585764  -3.756910  1.244467
N    -1.692420  -4.658100  0.493176
C    -0.428446  -4.375766  0.146763
N    0.143170  -4.975062  -0.902551
N    0.342375  -3.486447  0.856585
H    -4.141014  -1.260171  1.801304
H    -2.393181  -1.254425  1.990816
H    -2.405611  -2.449126  -0.451957
H    -4.062936  -2.801742  -0.061557
H    -3.414379  -4.373430  1.608623
H    -2.065470  -3.400408  2.143213
H    -2.110025  -5.501279  0.104025
H    1.157033  -5.019283  -0.950890
H    -0.380360  -5.564282  -1.543031
H    0.032792  -3.402127  1.827111
N    -3.970589  1.911060  1.920240
C    -4.006094  2.874279  3.020244
H    -4.813601  1.792121  1.366635
H    -4.742786  2.566370  3.772215
H    -4.274846  3.866957  2.640500
H    -3.014271  2.913118  3.478197
Hg    0.548434  -1.598806  0.105787
