36
Energy: -574588.013144 eV PBE+vdW (tier 2 basis)
C    2.174842  -1.586723  0.283292
C    1.431579  -0.560795  1.088633
O    1.307329  0.593416  0.598150
H    1.714113  -1.654329  -0.711304
H    2.176101  -2.578553  0.748910
H    3.207214  -1.243599  0.135382
N    0.930656  -0.945376  2.282713
C    -0.041020  -0.225894  3.111667
C    0.690557  0.562244  4.220173
O    1.477043  1.504475  3.914611
H    1.158800  -1.893591  2.566060
H    -0.469793  0.562078  2.470993
C    -1.227777  -1.133733  3.515156
C    -0.925252  -2.512410  4.125254
C    -2.186913  -3.358602  4.410872
N    -3.011586  -2.888292  5.515334
C    -4.167483  -2.162371  5.401700
N    -4.891606  -1.938282  6.527126
N    -4.625988  -1.596248  4.299206
H    -1.808447  -1.286624  2.592953
H    -1.880025  -0.543628  4.178002
H    -0.331127  -2.449981  5.051369
H    -0.323467  -3.117502  3.428603
H    -1.872980  -4.382388  4.653086
H    -2.804786  -3.437798  3.505146
H    -2.769367  -3.242012  6.436970
H    -5.753810  -1.413980  6.412323
H    -4.774575  -2.472465  7.380836
H    -4.131109  -1.904928  3.457384
N    0.496594  0.256409  5.497790
C    1.138151  0.961462  6.610668
H    -0.082603  -0.548336  5.713032
H    0.521095  0.838770  7.505237
H    1.228116  2.023596  6.362969
H    2.140602  0.555823  6.799310
Hg    1.354817  2.583154  1.824203
