36
Energy: -574587.695651 eV PBE+vdW (tier 2 basis)
C    0.127500  -1.322132  -0.664090
C    0.021383  -0.216196  0.336039
O    0.645395  0.861738  0.123028
H    -0.575694  -1.136910  -1.490533
H    -0.066390  -2.304537  -0.220466
H    1.133878  -1.307058  -1.099915
N    -0.704467  -0.354656  1.471295
C    -2.026651  -0.975169  1.558804
C    -3.029217  0.198180  1.397730
O    -2.652823  1.378904  1.611020
H    -0.635762  0.468082  2.072858
H    -2.136468  -1.666381  0.713404
C    -2.202667  -1.776192  2.872063
C    -2.143686  -0.946203  4.159944
C    -2.108632  -1.788690  5.452615
N    -3.301208  -2.585988  5.719649
C    -4.413916  -2.137212  6.371481
N    -5.386896  -3.025309  6.691668
N    -4.666543  -0.873215  6.676921
H    -1.407694  -2.537406  2.876776
H    -3.155677  -2.321753  2.817822
H    -2.989881  -0.242802  4.206600
H    -1.228687  -0.334646  4.184895
H    -1.923983  -1.127480  6.310824
H    -1.263538  -2.489790  5.420335
H    -3.273965  -3.565169  5.448942
H    -6.202004  -2.652517  7.170013
H    -5.237676  -4.027983  6.721931
H    -3.855015  -0.258717  6.552072
N    -4.299958  -0.047864  1.057071
C    -4.976668  -1.325044  0.859229
H    -4.871769  0.794626  0.980383
H    -4.271902  -2.100511  0.543569
H    -5.726075  -1.202597  0.069441
H    -5.490883  -1.650500  1.774443
Hg    -0.613727  2.825392  0.672953
