36
Energy: -574588.075839 eV PBE+vdW (tier 2 basis)
C    1.766087  1.278693  0.700501
C    0.601696  2.183308  0.991009
O    0.631861  3.356198  0.541268
H    2.015816  1.346003  -0.365556
H    1.579591  0.233421  0.971156
H    2.640174  1.647408  1.255409
N    -0.419147  1.665115  1.712139
C    -1.711890  2.296551  2.002438
C    -1.616672  3.031987  3.361418
O    -0.978030  4.119552  3.460433
H    -0.284583  0.719908  2.061073
H    -1.851997  3.094918  1.256401
C    -2.877407  1.301964  1.869591
C    -3.332133  0.959427  0.437167
C    -2.424195  0.003256  -0.363983
N    -3.027770  -0.433051  -1.614626
C    -3.902105  -1.478562  -1.741304
N    -4.415746  -1.747940  -2.964504
N    -4.322257  -2.263280  -0.761221
H    -3.747333  1.754165  2.368226
H    -2.650532  0.373564  2.423101
H    -3.485914  1.886525  -0.135793
H    -4.323991  0.491342  0.517696
H    -2.170791  -0.884570  0.235649
H    -1.471253  0.479961  -0.627389
H    -2.871190  0.156364  -2.427360
H    -5.055296  -2.534136  -3.030144
H    -4.111861  -1.300516  -3.821639
H    -3.847654  -2.080370  0.128347
N    -2.175173  2.495147  4.438543
C    -2.111967  3.095208  5.775316
H    -2.641962  1.598033  4.344419
H    -2.934584  2.695665  6.374578
H    -2.206244  4.182467  5.691442
H    -1.156638  2.856716  6.260066
Hg    -0.222114  5.322653  1.585166
