36
Energy: -574590.413708 eV PBE+vdW (tier 2 basis)
C    -0.313093  0.194326  -0.028885
C    -0.105465  0.166289  1.457508
O    1.022298  -0.044667  1.944907
H    -1.359967  0.307398  -0.329887
H    0.090658  -0.728563  -0.463413
H    0.270789  1.025409  -0.447485
N    -1.205698  0.374105  2.230669
C    -1.284011  0.425736  3.697721
C    -0.481065  1.638120  4.235558
O    0.780963  1.658464  4.473760
H    -2.077995  0.538409  1.738656
H    -2.336456  0.668856  3.887292
C    -0.986043  -0.892501  4.484808
C    -0.848383  -2.195925  3.681011
C    -0.114205  -3.311807  4.456350
N    1.247527  -2.915394  4.856330
C    2.340914  -2.827934  4.054604
N    2.630094  -3.830446  3.218852
N    3.110571  -1.728699  4.148694
H    -1.780041  -1.003807  5.235880
H    -0.075301  -0.738423  5.087939
H    -0.301376  -2.021122  2.745870
H    -1.838863  -2.576382  3.395835
H    -0.073346  -4.216975  3.839161
H    -0.644872  -3.587149  5.376249
H    1.331088  -2.394757  5.723924
H    3.318746  -3.721725  2.482077
H    2.282769  -4.768019  3.395943
H    4.049875  -1.769285  3.755379
N    -1.152662  2.752223  4.461483
C    -0.546243  4.002519  4.934246
H    -2.155447  2.745839  4.296946
H    -1.335762  4.751831  5.028971
H    0.208169  4.350445  4.218897
H    -0.070587  3.845527  5.909545
Hg    2.050417  0.027085  4.173606
