36
Energy: -574587.954784 eV PBE+vdW (tier 2 basis)
C    -0.564621  0.622025  0.264136
C    -0.420147  0.190960  1.696825
O    0.749949  -0.135683  2.073740
H    0.115198  1.462865  0.074687
H    -1.591790  0.915429  0.019473
H    -0.245041  -0.201011  -0.388607
N    -1.518682  0.237345  2.460330
C    -1.752138  -0.289333  3.813077
C    -0.821201  0.377145  4.862904
O    0.213908  -0.180292  5.331707
H    -2.407998  0.425825  1.939754
H    -2.755125  0.070853  4.071490
C    -1.788155  -1.829143  3.920118
C    -2.639403  -2.556978  2.865855
C    -4.175913  -2.585406  3.030791
N    -4.885574  -1.319773  3.221984
C    -4.786667  -0.206537  2.442493
N    -5.364386  0.941982  2.907694
N    -4.066174  -0.111634  1.336231
H    -2.106492  -2.088232  4.940802
H    -0.767083  -2.245671  3.825531
H    -2.343909  -3.615567  2.884056
H    -2.360426  -2.208599  1.862574
H    -4.434659  -3.196445  3.904022
H    -4.588595  -3.114923  2.155001
H    -5.561187  -1.307026  3.980985
H    -5.528607  1.655336  2.202717
H    -6.056113  0.906329  3.649836
H    -3.867690  -1.033788  0.939518
N    -1.159024  1.569448  5.347256
C    -2.362635  2.368605  5.119945
H    -0.508712  1.923223  6.052169
H    -2.770217  2.203795  4.119275
H    -2.084387  3.424988  5.205364
H    -3.124494  2.149309  5.880410
Hg    1.539688  -1.331734  3.837427
