36
Energy: -574587.516069 eV PBE+vdW (tier 2 basis)
C    0.382124  0.316485  0.421705
C    -0.032281  -0.043961  1.809826
O    0.858472  -0.167010  2.696019
H    0.572280  -0.597769  -0.160406
H    1.332952  0.859856  0.480391
H    -0.364138  0.934906  -0.086391
N    -1.345544  -0.156296  2.190604
C    -2.371807  -0.998262  1.571529
C    -1.946693  -2.469035  1.893596
O    -0.721914  -2.752728  1.861935
H    -1.413541  -0.167225  3.210541
H    -3.292284  -0.786214  2.134861
C    -2.675919  -0.789325  0.076954
C    -3.557013  0.456124  -0.186014
C    -4.914948  0.149422  -0.872295
N    -5.595234  -1.052801  -0.386408
C    -5.752930  -1.415315  0.925808
N    -5.810649  -0.434380  1.865981
N    -5.694466  -2.668927  1.331746
H    -3.192586  -1.697588  -0.261791
H    -1.753345  -0.760324  -0.510048
H    -3.042148  1.171651  -0.840387
H    -3.727039  0.993293  0.756161
H    -4.774348  -0.007687  -1.947748
H    -5.573863  1.028025  -0.773281
H    -5.715797  -1.807142  -1.056148
H    -6.091007  -0.742745  2.793150
H    -6.144268  0.487710  1.602098
H    -5.802985  -3.345501  0.568843
N    -2.902095  -3.338100  2.216519
C    -2.623442  -4.715749  2.612090
H    -3.893259  -3.047779  2.150626
H    -3.544229  -5.298328  2.515264
H    -2.297759  -4.757499  3.662523
H    -1.835643  -5.139749  1.980213
Hg    0.935462  -2.352885  3.666198
