36
Energy: -574587.781371 eV PBE+vdW (tier 2 basis)
C    0.552517  0.655152  0.814854
C    0.318184  0.183982  2.226265
O    1.231596  0.462275  3.058723
H    1.560698  1.070224  0.734943
H    -0.169864  1.445381  0.563320
H    0.445933  -0.171746  0.100542
N    -0.796514  -0.473706  2.554297
C    -1.905252  -0.858351  1.672105
C    -3.157920  -0.764725  2.576017
O    -3.119976  -1.254552  3.703543
H    -0.922553  -0.777523  3.522960
H    -1.961425  -0.143339  0.840544
C    -1.706009  -2.297550  1.136545
C    -2.739306  -2.729484  0.078010
C    -3.526566  -4.010368  0.413881
N    -4.252435  -3.988526  1.685714
C    -5.356179  -3.243454  1.946008
N    -5.952837  -3.336785  3.157227
N    -5.884048  -2.349973  1.108065
H    -1.717705  -2.970572  2.006408
H    -0.692514  -2.356379  0.719280
H    -2.239066  -2.916585  -0.881192
H    -3.448321  -1.913420  -0.125926
H    -2.842474  -4.865373  0.474251
H    -4.229319  -4.234979  -0.403148
H    -3.915533  -4.609789  2.415982
H    -6.839767  -2.855696  3.267276
H    -5.725872  -4.059740  3.831586
H    -5.523856  -2.464158  0.154236
N    -4.258428  -0.129071  2.081793
C    -5.391936  0.235636  2.920767
H    -4.196613  0.306378  1.164238
H    -6.308054  0.209440  2.323464
H    -5.252652  1.249935  3.325798
H    -5.449161  -0.465626  3.758392
Hg    1.471675  0.117424  5.398743
