36
Energy: -574589.833774 eV PBE+vdW (tier 2 basis)
C    -0.501140  0.519178  1.272864
C    -1.373239  0.259746  2.465352
O    -1.567494  1.207842  3.239112
H    -0.843765  0.135724  0.306297
H    -0.157297  1.555492  1.257626
H    -3.115903  2.338275  3.115969
N    -1.934322  -0.963131  2.721738
C    -2.485621  -2.000377  1.830575
C    -1.388260  -2.890738  1.213038
O    -0.338981  -2.378750  0.773478
H    -2.356838  -0.958842  3.648933
H    -3.087776  -2.626356  2.502545
C    -3.430273  -1.446911  0.735143
C    -4.796228  -0.949811  1.242955
C    -4.874824  0.368558  2.021279
N    -4.625749  1.537764  1.151622
C    -4.432331  2.799943  1.599457
N    -4.885127  3.828946  0.868910
N    -3.780082  3.022841  2.742190
H    -3.619185  -2.261010  0.020443
H    -2.912074  -0.670690  0.152441
H    -5.244988  -1.721870  1.886602
H    -5.475884  -0.882623  0.378262
H    -4.166763  0.394369  2.855414
H    -5.882137  0.456249  2.456972
H    -5.041286  1.475062  0.225136
H    -5.621865  3.710166  0.183264
H    -4.573128  4.777345  1.045719
H    -3.756275  3.954277  3.141512
N    -1.624338  -4.205708  1.124561
C    -2.795030  -4.961921  1.571901
H    -0.874022  -4.727969  0.674792
H    -2.628459  -6.015556  1.331471
H    -3.709340  -4.641884  1.055827
H    -2.933433  -4.886195  2.658546
Hg    1.352007  -0.610947  1.432554
