36
Energy: -574588.169967 eV PBE+vdW (tier 2 basis)
C    1.299619  1.817003  2.168037
C    0.476661  0.775066  2.869073
O    0.800232  0.431439  4.031180
H    1.099315  2.792490  2.633893
H    1.080261  1.880342  1.095979
H    2.362807  1.596975  2.316860
N    -0.582469  0.254037  2.200490
C    -1.582254  -0.629484  2.787033
C    -1.007663  -2.050167  3.040159
O    -0.880017  -2.494326  4.211075
H    -0.771019  0.637724  1.277884
H    -1.832231  -0.253593  3.793647
C    -2.876310  -0.618335  1.950134
C    -4.004363  -1.450032  2.574636
C    -5.382472  -1.285040  1.901417
N    -5.494307  -1.856308  0.565805
C    -5.368432  -1.177328  -0.613369
N    -5.579801  -1.854452  -1.769820
N    -4.992023  0.085327  -0.740185
H    -2.667348  -0.952053  0.919894
H    -3.187276  0.436041  1.878195
H    -4.138031  -1.155418  3.627074
H    -3.738827  -2.518262  2.587168
H    -5.672089  -0.225255  1.865493
H    -6.135673  -1.782209  2.526663
H    -5.721179  -2.846318  0.517991
H    -5.522050  -1.312909  -2.626887
H    -6.068746  -2.741893  -1.808649
H    -5.011764  0.591218  0.150562
N    -0.671354  -2.790174  1.987565
C    -0.101235  -4.135583  2.078094
H    -0.861613  -2.418261  1.060787
H    0.472470  -4.220773  3.005915
H    0.551704  -4.298963  1.215254
H    -0.893655  -4.895548  2.082447
Hg    -0.182693  -0.864757  5.811766
