36
Energy: -574590.141248 eV PBE+vdW (tier 2 basis)
C    -0.427737  1.786801  1.384447
C    -0.370518  0.678863  2.393387
O    0.765879  0.594196  3.041683
H    0.392581  2.491388  1.547823
H    -1.381613  2.327747  1.419996
H    -0.311422  1.365513  0.374065
N    -1.313770  -0.195201  2.675966
C    -2.535999  -0.299091  1.890720
C    -3.557762  0.694743  2.427887
O    -3.351589  1.165918  3.632152
H    -2.461420  0.819821  3.909970
H    -2.370912  -0.100455  0.818748
C    -3.120677  -1.731415  2.071333
C    -2.178989  -2.850734  1.569899
C    -2.013302  -4.021677  2.553360
N    -1.283180  -3.590203  3.753973
C    -0.077694  -4.016025  4.184425
N    0.265265  -5.303904  4.045900
N    0.751290  -3.123013  4.756115
H    -4.090138  -1.803358  1.561644
H    -3.343889  -1.848250  3.143985
H    -1.182060  -2.441979  1.351023
H    -2.561393  -3.257878  0.624675
H    -1.441101  -4.824997  2.073504
H    -2.988406  -4.438599  2.843399
H    -1.579325  -2.703765  4.152289
H    1.222009  -5.609269  4.184961
H    -0.441639  -6.025559  3.952541
H    1.523146  -3.484741  5.312188
N    -4.641419  1.091928  1.815915
C    -5.116199  0.717301  0.481651
H    -5.235238  1.733653  2.348129
H    -5.429501  1.625138  -0.045256
H    -5.975274  0.040516  0.568859
H    -4.321520  0.230780  -0.089277
Hg    0.770952  -1.218586  4.016561
