36
Energy: -574588.663987 eV PBE+vdW (tier 2 basis)
C    1.891011  0.786722  1.188663
C    1.218648  1.372147  2.385495
O    1.743925  2.361043  2.976492
H    2.973308  0.780522  1.372324
H    1.727718  1.434975  0.314909
H    1.550762  -0.230317  0.970113
N    0.056096  0.855137  2.863899
C    -1.109347  0.479697  2.066459
C    -1.867846  1.771108  1.686349
O    -1.862743  2.808747  2.494352
H    -0.189174  1.211739  3.789662
H    -0.760775  0.008163  1.138835
C    -1.971782  -0.505287  2.894079
C    -3.279557  -0.982032  2.255083
C    -3.080929  -1.828357  0.988599
N    -4.339747  -2.191175  0.337036
C    -4.956627  -1.459432  -0.601636
N    -6.012739  -1.969430  -1.252055
N    -4.517954  -0.229936  -0.902245
H    -2.215575  -0.021232  3.852295
H    -1.327229  -1.363984  3.134750
H    -3.930383  -0.123783  2.035224
H    -3.816733  -1.583339  3.002104
H    -2.561138  -2.765390  1.228364
H    -2.459816  -1.313284  0.242009
H    -4.812372  -3.030016  0.657963
H    -6.611805  -1.387839  -1.825126
H    -6.243907  -2.954194  -1.198380
H    -4.852614  0.234517  -1.737316
N    -2.630485  1.762479  0.637229
C    -3.165244  2.974676  0.061323
H    -3.834607  0.267806  -0.323911
H    -3.198757  2.857369  -1.032168
H    -2.596769  3.874935  0.323511
H    -4.209318  3.109517  0.391408
Hg    -0.059341  3.863971  3.320082
