36
Energy: -574589.06515 eV PBE+vdW (tier 2 basis)
C    0.493832  0.925260  -0.039031
C    0.273544  0.790442  1.438827
O    1.127624  1.319807  2.209491
H    0.548543  1.994006  -0.286903
H    -0.297134  0.459191  -0.636523
H    1.464902  0.486052  -0.300187
N    -0.826620  0.130564  1.850531
C    -1.401857  0.085874  3.209371
C    -0.934946  -1.167049  3.968172
O    0.122722  -1.118065  4.765932
H    -1.382502  -0.302041  1.117374
H    -1.027434  0.975579  3.737690
C    -2.933648  0.180668  3.112227
C    -3.607899  0.439339  4.465905
C    -5.115356  0.721484  4.369547
N    -5.948428  -0.435153  4.011529
C    -6.666564  -1.184244  4.861793
N    -7.621448  -1.996795  4.385696
N    -6.439938  -1.140381  6.180816
H    -3.304776  -0.757922  2.670096
H    -3.173113  1.003253  2.420438
H    -3.156404  1.325959  4.937841
H    -3.425592  -0.407193  5.145082
H    -5.312587  1.498706  3.618062
H    -5.488227  1.125821  5.319915
H    -6.068973  -0.637879  3.024913
H    -8.046076  -2.708129  4.969194
H    -8.011366  -1.869986  3.459416
H    -5.618960  -0.692556  6.565515
N    -1.608544  -2.254031  3.895534
C    -1.204814  -3.552795  4.371702
H    -7.109990  -1.521246  6.838629
H    -1.792484  -4.312552  3.839487
H    -1.436272  -3.657244  5.443253
H    -0.133724  -3.746421  4.223331
Hg    1.594813  0.380164  4.262750
