36
Energy: -574590.208985 eV PBE+vdW (tier 2 basis)
C    1.282663  -4.202011  1.272366
C    1.253674  -3.427869  2.532876
O    2.371630  -3.247178  3.160817
H    1.822271  -3.628578  0.504582
H    0.285053  -4.477255  0.919626
H    1.872880  -5.114842  1.445437
N    0.112613  -2.965009  3.067708
C    -0.917284  -2.214979  2.338878
C    -0.182036  -1.235388  1.380530
O    0.990536  -0.887943  1.630670
H    0.215262  -2.657981  4.035480
H    -1.550470  -2.902828  1.759792
C    -1.822164  -1.479662  3.368781
C    -1.145226  -0.732198  4.538106
C    -0.344421  0.538277  4.193576
N    0.406664  1.043951  5.349000
C    1.738069  1.205438  5.460243
N    2.194088  2.086308  6.367603
N    2.629629  0.546118  4.691962
H    -2.499116  -2.227650  3.803895
H    -2.464225  -0.786676  2.807146
H    -0.507731  -1.406845  5.138532
H    -1.949896  -0.463002  5.238226
H    -1.028213  1.332842  3.860243
H    0.365215  0.381477  3.374777
H    -0.143260  1.442719  6.105671
H    3.150189  2.051932  6.703287
H    1.612009  2.840803  6.716232
H    3.572429  0.927820  4.722540
N    -0.886687  -0.806183  0.330923
C    -0.396473  0.155506  -0.656994
H    -1.816031  -1.191763  0.184717
H    0.624548  0.439957  -0.391462
H    -1.037725  1.044976  -0.668290
H    -0.400680  -0.300054  -1.654266
Hg    2.498959  -1.334044  3.940746
