36
Energy: -574589.056518 eV PBE+vdW (tier 2 basis)
C    0.553920  1.812800  -0.287109
C    -0.018029  2.409332  0.976037
O    0.541626  3.629125  1.162307
H    1.634982  1.662967  -0.173581
H    0.411014  2.505122  -1.127298
H    0.060262  0.859393  -0.493936
N    -0.892692  1.739032  1.651062
C    -1.766403  2.238911  2.709322
C    -1.181534  2.016519  4.124283
O    -0.491254  2.927822  4.725488
H    -5.420327  -0.534061  -2.375099
H    -1.943819  3.337972  2.663228
C    -3.153119  1.581518  2.529160
C    -3.824542  2.007206  1.217118
C    -5.195443  1.337403  1.040040
N    -5.919002  1.780225  -0.157403
C    -6.020489  1.124808  -1.322454
N    -6.945291  1.502222  -2.216467
N    -5.212523  0.094915  -1.608596
H    -3.796012  1.847133  3.382807
H    -3.022992  0.486559  2.522317
H    -3.162980  1.760123  0.373641
H    -3.957411  3.100646  1.205650
H    -5.844212  1.560158  1.898750
H    -5.107786  0.242225  1.004768
H    -6.425868  2.657300  -0.088957
H    -6.911098  1.182680  -3.177428
H    -7.727109  2.090882  -1.954452
H    -4.373750  -0.086017  -1.074008
N    -1.381935  0.872857  4.746940
C    -0.837545  0.530965  6.063993
H    -1.972553  0.187869  4.283717
H    -0.754859  -0.557319  6.133152
H    -1.498755  0.898071  6.859232
H    0.149288  0.988248  6.181936
Hg    0.336798  4.170853  3.151265
