36
Energy: -574589.792876 eV PBE+vdW (tier 2 basis)
C    -0.336515  0.865483  -0.734110
C    -0.285517  0.637181  0.737277
O    0.656391  -0.129670  1.246248
H    0.587881  1.354071  -1.074845
H    -1.192451  1.475324  -1.039203
H    -0.384120  -0.110263  -1.238671
N    -1.224720  1.133558  1.506032
C    -1.530114  0.993696  2.938909
C    -3.086208  0.800793  2.884208
O    -3.673652  1.276171  1.907019
H    -2.102257  1.505832  1.064315
H    -1.020838  0.113388  3.352223
C    -1.240675  2.310979  3.740583
C    0.031322  2.399551  4.608585
C    1.283450  2.069026  3.804200
N    2.557534  2.291109  4.483724
C    3.785055  2.091377  3.953698
N    4.854467  2.479893  4.665320
N    3.969074  1.531252  2.739902
H    -2.093922  2.482115  4.409593
H    -1.262455  3.146158  3.025499
H    -0.041683  1.719542  5.470412
H    0.087167  3.423929  5.005238
H    1.267590  2.658417  2.869836
H    1.184191  0.993077  3.573051
H    2.520450  2.572005  5.459055
H    5.795259  2.214884  4.397163
H    4.767415  3.099186  5.463778
H    4.919792  1.536419  2.380696
N    -3.660147  0.182715  3.921974
C    -5.107526  -0.005257  4.046620
H    -3.067940  -0.205728  4.648912
H    -5.470153  0.463983  4.968691
H    -5.348429  -1.074624  4.063401
H    -5.591568  0.462338  3.185426
Hg    2.501200  0.589040  1.704363
