36
Energy: -574587.840342 eV PBE+vdW (tier 2 basis)
C    -2.371725  -1.505622  1.526924
C    -1.961764  -1.078727  2.900408
O    -1.104621  -1.751054  3.521266
H    -1.871271  -0.871842  0.777645
H    -3.464746  -1.448432  1.397769
H    -2.040349  -2.535696  1.359889
N    -2.532000  0.015609  3.498580
C    -2.711519  1.311244  2.824049
C    -1.299174  1.949576  2.737771
O    -0.427494  1.689388  3.605066
H    -2.175166  0.147860  4.448060
H    -3.108820  1.133636  1.815047
C    -3.653923  2.243479  3.622860
C    -5.171279  2.096306  3.441318
C    -5.850522  0.853763  4.069444
N    -5.648508  -0.362975  3.316549
C    -6.315499  -0.786254  2.197768
N    -7.425792  -0.138580  1.787218
N    -5.739079  -1.821499  1.605025
H    -3.408078  3.275114  3.330912
H    -3.385564  2.180631  4.689950
H    -5.440870  2.161362  2.376028
H    -5.635583  2.969199  3.923172
H    -6.928019  1.049298  4.172605
H    -5.472513  0.681072  5.085840
H    -4.873358  -0.972408  3.562582
H    -7.943725  -0.498843  0.993615
H    -7.912573  0.534450  2.369074
H    -6.255278  -2.141262  0.776740
N    -1.068564  2.813818  1.746103
C    0.187497  3.539630  1.562250
H    -1.844359  3.064749  1.137359
H    1.004904  2.959801  1.999659
H    0.143189  4.518816  2.058868
H    0.359109  3.687380  0.491317
Hg    0.594187  -0.425695  4.652943
