36
Energy: -574588.13993 eV PBE+vdW (tier 2 basis)
C    -0.699169  0.703687  0.382611
C    -0.842640  0.951401  1.890228
O    0.409461  1.208062  2.512554
H    -1.653092  0.783265  -0.151855
H    -0.267452  -0.281829  0.159482
H    -0.012635  1.457568  -0.018171
N    -1.524177  -0.141130  2.586226
C    -2.187691  -1.353579  2.099787
C    -1.162269  -2.471541  1.651124
O    0.021470  -2.593804  2.125021
H    -1.608636  0.029215  3.584552
H    -2.589824  -1.806401  3.023750
C    -3.408477  -1.175133  1.155256
C    -4.673957  -0.528342  1.773051
C    -4.839670  0.989334  1.628348
N    -3.738423  1.672045  2.317801
C    -2.822870  2.488070  1.779836
N    -3.190047  3.476640  0.960002
N    -1.523770  2.281811  2.106780
H    -3.740697  -2.173377  0.842270
H    -3.117390  -0.661805  0.229695
H    -4.758970  -0.801914  2.837913
H    -5.554015  -0.979774  1.294511
H    -5.803815  1.296506  2.055355
H    -4.829439  1.295076  0.573501
H    -3.417079  1.209065  3.160840
H    -2.511977  3.971788  0.390313
H    -4.136797  3.845067  0.982602
H    -0.875598  3.061379  2.001852
N    -1.573638  -3.432201  0.840845
C    -0.760437  -4.598939  0.476383
H    -2.526573  -3.402403  0.495656
H    -1.261314  -5.122969  -0.341508
H    -0.654458  -5.274197  1.334582
H    0.234764  -4.274535  0.154643
Hg    1.037478  -0.764520  2.757189
