36
Energy: -574589.774499 eV PBE+vdW (tier 2 basis)
C    -0.372897  1.280229  0.648565
C    -0.952374  0.541482  1.791455
O    -0.492812  0.779007  2.976779
H    -0.571871  2.355076  0.761571
H    -0.731186  0.914417  -0.317628
H    0.721837  1.164160  0.691666
N    -1.895587  -0.406829  1.634927
C    -3.153202  -0.257482  0.891277
C    -3.676551  1.177450  1.117017
O    -3.337609  1.811460  2.138874
H    -1.990337  -1.001843  2.457884
H    -2.985237  -0.438309  -0.178956
C    -4.158469  -1.334414  1.402493
C    -4.304567  -1.570528  2.925984
C    -5.412680  -0.894291  3.749209
N    -5.455457  0.577036  3.906223
C    -4.956215  1.282684  4.942200
N    -5.676386  2.298063  5.439795
N    -3.759721  0.964555  5.491631
H    -3.841573  -2.284081  0.950968
H    -5.140462  -1.113917  0.962228
H    -3.350347  -1.460795  3.470066
H    -4.521058  -2.642721  3.046887
H    -5.381649  -1.332145  4.755958
H    -6.387134  -1.163940  3.321232
H    -6.203352  1.043206  3.402262
H    -5.246174  3.023636  6.004359
H    -6.684618  2.342233  5.326119
H    -3.606334  1.351396  6.422357
N    -4.506968  1.694215  0.201537
C    -4.885451  1.136236  -1.101764
H    -4.805719  2.646362  0.404275
H    -4.020903  1.053971  -1.773629
H    -5.606528  1.816544  -1.563149
H    -5.368168  0.156940  -1.002650
Hg    -2.099125  0.874444  4.309354
