36
Energy: -574589.59597 eV PBE+vdW (tier 2 basis)
C    0.499726  0.637786  0.233605
C    -0.108898  -0.319022  1.185420
O    0.682719  -1.023717  1.927409
H    0.986263  1.450816  0.791936
H    -0.219108  1.038669  -0.486144
H    1.303251  0.114766  -0.307222
N    -1.440853  -0.503322  1.263950
C    -2.452099  0.560710  1.338788
C    -1.902793  1.679227  2.256153
O    -1.074135  1.408456  3.145742
H    -1.705839  -1.353519  1.760684
H    -2.644971  0.963698  0.333497
C    -3.792796  -0.033784  1.861111
C    -3.803165  -0.980138  3.088806
C    -4.141912  -0.473096  4.505769
N    -3.201345  0.400202  5.237410
C    -1.951703  0.129640  5.637447
N    -1.211667  1.084133  6.206712
N    -1.356725  -1.102633  5.506137
H    -4.220842  -0.595999  1.019967
H    -4.479568  0.807838  2.027964
H    -2.905870  -1.619105  3.128833
H    -4.606009  -1.707044  2.896379
H    -4.362106  -1.353087  5.129470
H    -5.078904  0.095735  4.465379
H    -3.612085  1.252693  5.609927
H    -1.473902  2.062954  6.198968
H    -0.378165  0.817388  6.719559
H    -2.029650  -1.869418  5.453567
N    -2.384738  2.906142  2.022257
C    -2.012223  4.098216  2.781625
H    -3.021543  3.032361  1.240206
H    -1.750490  4.906904  2.090261
H    -1.143418  3.861714  3.401920
H    -2.843463  4.433959  3.415170
Hg    -0.159144  -1.165014  3.838727
