36
Energy: -574588.40416 eV PBE+vdW (tier 2 basis)
C    -1.530872  -0.994574  3.569389
C    -2.115724  -1.518118  2.300922
O    -1.776113  -2.688078  1.931291
H    -2.135345  -0.203187  4.018015
H    -0.503448  -0.642041  3.396350
H    -1.447766  -1.839602  4.266820
N    -3.052635  -0.848081  1.568689
C    -3.070966  0.517454  0.994475
C    -2.948038  0.360419  -0.539189
O    -2.045642  -0.434803  -1.091138
H    -3.635002  -1.495672  1.035596
H    -4.060194  0.949244  1.196207
C    -1.970594  1.440960  1.551188
C    -1.850726  2.838299  0.914660
C    -2.986621  3.837798  1.160114
N    -4.161313  3.568515  0.322616
C    -5.261959  4.325569  0.301600
N    -5.356505  5.426284  1.059589
N    -6.299457  3.967591  -0.474478
H    -0.996573  0.945118  1.424656
H    -2.133142  1.560505  2.630984
H    -1.647382  2.767081  -0.163769
H    -0.948641  3.292048  1.346820
H    -2.597471  4.842895  0.929764
H    -3.279383  3.826709  2.223332
H    -4.085741  2.789686  -0.356692
H    -6.205171  5.978472  1.085578
H    -4.561056  5.786449  1.570112
H    -7.097676  4.575523  -0.608831
N    -3.636497  1.161928  -1.284944
C    -3.667021  1.066317  -2.729730
H    -6.278234  3.108010  -1.006452
H    -2.866384  1.688076  -3.162619
H    -4.616587  1.484278  -3.088922
H    -3.545796  0.040065  -3.097468
Hg    -1.617097  -2.454514  -0.372985
