36
Energy: -574589.092762 eV PBE+vdW (tier 2 basis)
C    0.037496  -0.314824  0.067393
C    0.084726  -0.152251  1.575874
O    1.190515  0.147912  2.078838
H    -0.842555  0.153294  -0.378435
H    0.023026  -1.390159  -0.163141
H    0.948976  0.114010  -0.356328
N    -1.025713  -0.262854  2.361336
C    -2.047352  -1.304202  2.352558
C    -1.407542  -2.637663  2.881219
O    -0.672222  -2.607729  3.900758
H    -4.341845  2.402182  2.595167
H    -2.738600  -1.018094  3.164601
C    -2.942364  -1.418797  1.094948
C    -3.973347  -0.285150  0.919538
C    -3.440302  1.069433  0.425673
N    -4.516864  1.990333  0.039198
C    -4.996178  3.024223  0.746252
N    -5.777380  3.930981  0.144793
N    -4.695515  3.171964  2.044070
H    -3.546622  -2.328983  1.221488
H    -2.354159  -1.559348  0.179034
H    -4.529728  -0.149664  1.860989
H    -4.714883  -0.639654  0.188008
H    -2.824197  0.929175  -0.472996
H    -2.799764  1.565306  1.166692
H    -4.944159  1.833750  -0.868876
H    -6.338922  4.582787  0.680590
H    -5.833060  3.998591  -0.864790
H    -4.902317  4.035966  2.531156
N    -1.663362  -3.790266  2.269351
C    -1.141145  -5.076757  2.741909
H    -2.286165  -3.796825  1.470316
H    -1.251025  -5.811765  1.940114
H    -1.693431  -5.416152  3.627169
H    -0.083621  -4.970654  3.005075
Hg    0.210963  -0.375457  4.257152
