36
Energy: -574589.850351 eV PBE+vdW (tier 2 basis)
C    -2.372047  2.091193  0.492275
C    -1.282788  1.103156  0.306494
O    -0.090403  1.594806  0.122344
H    -2.145492  2.744148  1.342886
H    -3.348862  1.616032  0.619272
H    -2.404554  2.721327  -0.411174
N    -1.504128  -0.210699  0.159244
C    -2.390338  -1.046443  0.985274
C    -2.532208  -0.339106  2.367904
O    -1.588782  0.346717  2.775867
H    -0.716045  -0.732763  -0.222438
H    -3.357097  -1.197632  0.483688
C    -1.655052  -2.385410  1.243340
C    -1.206549  -3.209572  0.015477
C    0.197074  -3.821507  0.182388
N    1.236039  -2.778491  0.085938
C    2.210465  -2.469039  0.974725
N    2.646557  -3.374341  1.853925
N    2.715911  -1.217057  0.953735
H    -2.302600  -3.000804  1.880906
H    -0.782345  -2.128857  1.866554
H    -1.223107  -2.621170  -0.917922
H    -1.913432  -4.029203  -0.168721
H    0.378561  -4.583661  -0.587124
H    0.283730  -4.309510  1.161448
H    1.331449  -2.330963  -0.822608
H    3.207306  -3.102562  2.655293
H    2.552806  -4.369460  1.674409
H    3.610328  -1.052614  1.412368
N    -3.672068  -0.578233  3.029981
C    -3.943353  -0.090021  4.382013
H    -4.389344  -1.137255  2.577144
H    -4.005977  -0.928409  5.086607
H    -4.891047  0.460433  4.394699
H    -3.129070  0.575363  4.680196
Hg    1.435914  0.302631  0.540978
