36
Energy: -574588.129544 eV PBE+vdW (tier 2 basis)
C    -0.195175  0.285085  0.209189
C    -0.310705  0.016350  1.685210
O    0.703128  -0.411677  2.287081
H    -1.073601  0.789994  -0.208617
H    -0.048041  -0.671575  -0.310325
H    0.698761  0.893236  0.026400
N    -1.507555  0.271830  2.260797
C    -1.939440  0.027271  3.645858
C    -1.011627  0.731438  4.664386
O    -0.222919  0.101080  5.419433
H    -2.230401  0.598202  1.626961
H    -2.906137  0.547631  3.724124
C    -2.204304  -1.460100  3.945483
C    -2.961614  -1.690042  5.260898
C    -3.378425  -3.153194  5.443189
N    -4.067297  -3.339034  6.702450
C    -4.691029  -4.468371  7.152818
N    -4.697631  -5.585590  6.394651
N    -5.245633  -4.322169  8.346743
H    -1.262198  -2.029519  3.940702
H    -2.794145  -1.844125  3.099794
H    -3.867724  -1.063439  5.280552
H    -2.336207  -1.386076  6.113354
H    -2.491051  -3.814398  5.406501
H    -4.043208  -3.466758  4.617095
H    -4.114353  -2.578970  7.379153
H    -5.177481  -6.413482  6.728551
H    -4.234066  -5.657333  5.496524
H    -5.718318  -5.172929  8.676083
N    -1.104759  2.058415  4.788408
C    -2.038815  2.977285  4.138467
H    -0.464612  2.452761  5.478444
H    -1.882463  2.997631  3.052957
H    -1.854302  3.980718  4.531339
H    -3.082435  2.715375  4.359514
Hg    1.389082  -1.328733  4.398864
