36
Energy: -574588.737038 eV PBE+vdW (tier 2 basis)
C    1.046937  -0.653214  1.936230
C    0.381313  0.174234  3.018232
O    1.200390  0.161475  4.089307
H    0.396343  -0.742965  1.062145
H    1.303469  -1.646243  2.326124
H    1.987715  -0.172515  1.638969
N    -0.765440  0.716931  2.771187
C    -1.773915  1.377024  3.620480
C    -1.473568  2.801023  4.160290
O    -0.878882  3.053525  5.284191
H    -2.244727  -0.824036  -0.380478
H    -2.610028  1.558550  2.929667
C    -2.367716  0.468104  4.732573
C    -3.374878  -0.584802  4.231329
C    -2.854510  -1.799007  3.449418
N    -2.444690  -1.474764  2.079949
C    -2.553657  -2.290660  1.026984
N    -2.951846  -3.563174  1.156201
N    -2.251101  -1.819182  -0.197450
H    -2.901760  1.107236  5.450967
H    -1.570044  -0.036523  5.302795
H    -4.165606  -0.090890  3.645460
H    -3.874802  -0.991172  5.121864
H    -3.676629  -2.525097  3.398173
H    -2.021935  -2.278240  3.991731
H    -1.834157  -0.640140  1.989526
H    -3.219053  -4.114832  0.349387
H    -2.962813  -4.028507  2.054515
H    -2.189534  -2.436836  -0.997759
N    -1.926637  3.852036  3.500723
C    -2.704265  3.903395  2.258501
H    -1.724720  4.747023  3.951375
H    -2.299395  3.204931  1.519666
H    -2.617888  4.917523  1.856958
H    -3.765449  3.694896  2.446996
Hg    0.624542  1.547141  5.502081
