36
Energy: -574587.768744 eV PBE+vdW (tier 2 basis)
C    -1.273699  0.942005  1.699853
C    -2.226725  0.924012  2.850930
O    -2.176931  1.873691  3.683518
H    -1.727413  0.576760  0.774172
H    -0.394076  0.328283  1.944334
H    -0.925235  1.971252  1.560334
N    -3.194317  -0.026843  3.006257
C    -3.034863  -1.482297  2.903765
C    -2.093286  -1.888707  4.075435
O    -1.261827  -1.050582  4.505674
H    -3.848944  0.242495  3.742325
H    -4.039152  -1.885602  3.103092
C    -2.558998  -2.033936  1.544594
C    -3.540089  -1.705444  0.411700
C    -3.003227  -2.008326  -1.001225
N    -2.892137  -3.422482  -1.330043
C    -1.704195  -4.100064  -1.423847
N    -1.706959  -5.299643  -2.052668
N    -0.653406  -3.523260  -0.866688
H    -2.454852  -3.123020  1.648723
H    -1.549869  -1.671943  1.312783
H    -3.783545  -0.632310  0.421181
H    -4.495848  -2.228697  0.569388
H    -2.013979  -1.559221  -1.142137
H    -3.689883  -1.560668  -1.734732
H    -3.736827  -3.892967  -1.645643
H    -0.864134  -5.861329  -2.072253
H    -2.472952  -5.611859  -2.640448
H    0.196449  -4.087195  -0.981727
N    -2.180030  -3.108955  4.615134
C    -3.010684  -4.242347  4.225431
H    -1.533551  -3.257570  5.391614
H    -3.910311  -3.908361  3.698978
H    -3.318142  -4.781372  5.128106
H    -2.451381  -4.935140  3.580900
Hg    -1.635806  1.093197  5.866669
