36
Energy: -574587.923533 eV PBE+vdW (tier 2 basis)
C    1.061592  1.796117  1.145807
C    0.592143  0.560604  1.865392
O    1.385464  -0.415982  1.893741
H    0.365335  2.637637  1.235428
H    1.200281  1.551957  0.083828
H    2.042464  2.087330  1.541122
N    -0.637629  0.609061  2.422438
C    -1.441797  -0.436847  3.085483
C    -0.791631  -0.912499  4.405761
O    -0.111969  -1.978331  4.509198
H    -1.107213  1.500643  2.304174
H    -2.354689  0.085280  3.393716
C    -1.854936  -1.605884  2.170226
C    -2.812312  -1.263640  1.013266
C    -4.327043  -1.249320  1.331524
N    -4.861250  -0.013852  1.886898
C    -5.032198  0.272440  3.212155
N    -5.560031  1.484511  3.532958
N    -4.643915  -0.497984  4.215156
H    -2.289308  -2.395570  2.801145
H    -0.954635  -2.060987  1.721736
H    -2.679045  -2.037577  0.244840
H    -2.526033  -0.318812  0.526957
H    -4.593365  -2.091799  1.986070
H    -4.868315  -1.417904  0.391332
H    -5.189756  0.670951  1.210719
H    -5.836657  1.603397  4.502422
H    -6.069959  2.039751  2.854292
H    -4.407117  -1.443248  3.899012
N    -1.013393  -0.204650  5.512193
C    -1.949358  0.901123  5.705320
H    -0.559238  -0.584468  6.344402
H    -1.937396  1.168547  6.765475
H    -2.974270  0.594491  5.432813
H    -1.645733  1.780882  5.123670
Hg    1.352847  -2.549502  2.831775
