36
Energy: -574588.758218 eV PBE+vdW (tier 2 basis)
C    0.546248  1.177865  0.739983
C    -0.081814  0.405205  1.875831
O    -0.440157  -0.851739  1.404143
H    0.679374  2.224812  1.021460
H    -0.068756  1.101755  -0.166675
H    1.518856  0.730715  0.493498
N    -0.218295  0.944656  3.021655
C    -0.995651  0.679827  4.226107
C    -0.306900  -0.233708  5.277855
O    -0.133949  -1.509758  5.159578
H    -3.375468  -1.056852  -1.126421
H    -1.047803  1.658703  4.733291
C    -2.476453  0.242119  4.031451
C    -3.404120  1.272538  3.361461
C    -3.204844  1.572509  1.866888
N    -3.328053  0.408037  0.978685
C    -4.402825  0.084286  0.244882
N    -5.597722  0.640987  0.477468
N    -4.280430  -0.824203  -0.735970
H    -2.883905  0.044349  5.034414
H    -2.548776  -0.719080  3.493451
H    -3.326246  2.233089  3.893722
H    -4.434904  0.924228  3.527244
H    -2.219218  2.014419  1.683124
H    -3.931967  2.330841  1.546929
H    -2.495361  -0.167937  0.853789
H    -5.782226  1.180724  1.312707
H    -6.353748  0.557166  -0.192125
H    -5.094289  -1.215529  -1.195564
N    0.086128  0.332923  6.400101
C    0.727428  -0.371450  7.514972
H    -0.085692  1.330319  6.503416
H    1.275632  0.360032  8.114716
H    1.417820  -1.125830  7.124915
H    -0.028033  -0.864149  8.140196
Hg    -0.367597  -2.034395  3.104266
