36
Energy: -574587.994596 eV PBE+vdW (tier 2 basis)
C    -0.128641  -0.994113  -1.761204
C    0.538367  -0.730917  -0.453186
O    1.756823  -1.062478  -0.330177
H    -0.563008  -2.005379  -1.755917
H    0.642511  -0.985991  -2.541279
H    -0.901691  -0.258481  -1.996938
N    -0.060444  -0.089103  0.590194
C    -1.363136  -0.369630  1.207860
C    -1.155167  -1.665133  2.043507
O    -0.371742  -2.557427  1.596411
H    0.635553  0.194482  1.282568
H    -1.530679  0.463295  1.905269
C    -2.562695  -0.462479  0.242033
C    -3.930348  -0.487994  0.940659
C    -4.280446  0.839446  1.649506
N    -5.345553  0.708254  2.628706
C    -5.134355  0.356818  3.930122
N    -6.160975  0.505428  4.796396
N    -3.935853  -0.110891  4.261369
H    -2.478810  -1.364513  -0.377022
H    -2.508907  0.402215  -0.435810
H    -3.982188  -1.311542  1.665760
H    -4.695275  -0.709011  0.184734
H    -4.602939  1.585924  0.912191
H    -3.409537  1.256933  2.170307
H    -6.289291  0.947866  2.339984
H    -7.025235  0.974075  4.548414
H    -6.095891  0.142551  5.739253
H    -3.874738  -0.245068  5.275816
N    -1.826003  -1.789046  3.180933
C    -1.698997  -2.932722  4.075568
H    -2.530756  -1.063165  3.456235
H    -2.699911  -3.312721  4.315915
H    -1.212552  -2.624905  5.012101
H    -1.114434  -3.720039  3.594742
Hg    2.051462  -2.527029  1.485803
