36
Energy: -574587.748454 eV PBE+vdW (tier 2 basis)
C    -1.297325  0.211691  -1.107413
C    -0.406651  0.468173  0.066658
O    0.836268  0.568091  -0.117106
H    -1.507940  1.163106  -1.619594
H    -2.237280  -0.272280  -0.821385
H    -0.760815  -0.419043  -1.826204
N    -0.908626  0.569529  1.324322
C    -2.127258  1.296290  1.683201
C    -1.645960  2.721466  2.069172
O    -0.447296  2.906230  2.394922
H    -0.169702  0.727635  2.012943
H    -2.766368  1.357041  0.793223
C    -2.924164  0.587005  2.803606
C    -2.173428  0.407092  4.132376
C    -3.023329  -0.213109  5.246679
N    -3.343209  -1.612997  5.001453
C    -4.322850  -2.333233  5.627615
N    -5.062689  -1.759479  6.601235
N    -4.648125  -3.575190  5.300222
H    -3.240141  -0.386355  2.400461
H    -3.848353  1.156515  2.980216
H    -1.821693  1.378471  4.509586
H    -1.268255  -0.206768  3.995418
H    -3.971559  0.340167  5.356538
H    -2.482726  -0.117476  6.206356
H    -2.709689  -2.154270  4.420170
H    -5.805391  -2.327587  6.999585
H    -4.805969  -0.904277  7.078621
H    -4.028230  -3.980115  4.588024
N    -2.512772  3.742079  2.077179
C    -3.949945  3.745296  1.824979
H    -2.090972  4.631158  2.349765
H    -4.212050  4.679761  1.316325
H    -4.520275  3.692989  2.763047
H    -4.239873  2.911900  1.177783
Hg    1.891687  2.346226  1.150286
