36
Energy: -574587.571379 eV PBE+vdW (tier 2 basis)
C    -0.751534  -0.202849  -0.260684
C    -0.240822  0.119572  1.107611
O    1.000499  0.066348  1.328140
H    -0.705689  0.699199  -0.890233
H    -1.775825  -0.590053  -0.241553
H    -0.085093  -0.942402  -0.719646
N    -1.087488  0.449057  2.114316
C    -2.237724  1.351426  1.991148
C    -1.624058  2.772952  1.911923
O    -0.580353  3.023343  2.568419
H    -0.608972  0.556802  3.010482
H    -2.784756  1.093527  1.076236
C    -3.113309  1.168268  3.254096
C    -4.487458  1.852614  3.305974
C    -5.590777  1.117197  2.516301
N    -6.928753  1.639209  2.760086
C    -7.737014  1.269682  3.798533
N    -8.968575  1.822184  3.897745
N    -7.417770  0.420286  4.765172
H    -2.521447  1.522296  4.112192
H    -3.236526  0.083192  3.394219
H    -4.431435  2.905144  2.992318
H    -4.793801  1.881963  4.361803
H    -5.579869  0.044789  2.761861
H    -5.425675  1.177764  1.431391
H    -7.248473  2.391873  2.156884
H    -9.537770  1.533429  4.688198
H    -9.401594  2.381913  3.171775
H    -6.525004  -0.057419  4.603330
N    -2.185972  3.737152  1.171548
C    -3.420356  3.733160  0.397599
H    -1.670726  4.619072  1.202405
H    -3.222477  4.151035  -0.597207
H    -4.187072  4.351497  0.883890
H    -3.801429  2.715946  0.275658
Hg    1.794463  1.952320  2.585683
