36
Energy: -574588.584041 eV PBE+vdW (tier 2 basis)
C    -0.766181  -0.391771  0.019463
C    -0.609644  -0.174291  1.500342
O    0.566469  0.196423  1.884076
H    -0.985610  0.566636  -0.473320
H    -1.588384  -1.089841  -0.174354
H    0.163003  -0.778967  -0.410360
N    -1.672043  -0.377962  2.284459
C    -1.566988  0.020913  3.644221
C    -0.476626  -0.740688  4.506559
O    0.398340  -0.070636  5.119745
H    -3.635865  -0.397171  1.546368
H    -1.147813  1.065968  3.705561
C    -2.940416  0.127902  4.344994
C    -3.928218  -1.023444  4.105013
C    -5.389224  -0.581263  3.983875
N    -5.674454  0.484373  2.992833
C    -5.551378  0.411164  1.652108
N    -6.447013  1.048270  0.883650
N    -4.545692  -0.264862  1.080658
H    -3.378622  1.059015  3.952217
H    -2.786073  0.304947  5.418205
H    -3.895309  -1.746820  4.930725
H    -3.653134  -1.585463  3.205427
H    -5.738427  -0.170095  4.938864
H    -6.015587  -1.457241  3.760474
H    -6.327780  1.191742  3.315199
H    -6.258724  1.253010  -0.091288
H    -7.361451  1.304251  1.238925
H    -4.583736  -0.450645  0.084850
N    -0.493113  -2.061013  4.653325
C    -1.335508  -3.083483  4.041552
H    0.218524  -2.399678  5.303333
H    -0.682649  -3.902003  3.713932
H    -1.849101  -2.683533  3.165774
H    -2.056945  -3.480953  4.765548
Hg    1.038165  1.611874  3.596346
