36
Energy: -574587.96003 eV PBE+vdW (tier 2 basis)
C    -0.829096  -1.544505  -0.473712
C    -0.958261  -0.776783  0.811403
O    -0.394715  0.337383  0.910477
H    -1.301316  -0.966975  -1.279706
H    -1.284782  -2.540103  -0.426711
H    0.234142  -1.639361  -0.726264
N    -1.682866  -1.341289  1.809557
C    -1.999358  -0.689193  3.074434
C    -0.766769  -0.543779  4.004282
O    -0.389318  0.614966  4.337659
H    -2.108887  -2.242544  1.614188
H    -2.265483  0.356802  2.853734
C    -3.197736  -1.363554  3.774611
C    -4.574161  -1.037333  3.160853
C    -5.214436  0.237026  3.721153
N    -6.520790  0.464599  3.120900
C    -7.352779  1.519582  3.370947
N    -7.003447  2.443275  4.295004
N    -8.492297  1.735163  2.732947
H    -3.184895  -1.076520  4.836552
H    -3.054068  -2.452476  3.765789
H    -5.246489  -1.881556  3.371483
H    -4.499207  -0.963932  2.064092
H    -4.577716  1.122262  3.537243
H    -5.322391  0.138445  4.817039
H    -6.874062  -0.224663  2.464332
H    -7.664794  3.199436  4.447356
H    -6.246539  2.327532  4.956348
H    -8.727079  0.991806  2.064157
N    -0.106876  -1.594434  4.494293
C    -0.406132  -3.023084  4.422845
H    0.673179  -1.327229  5.097265
H    0.533466  -3.569424  4.555566
H    -0.817342  -3.292711  3.446568
H    -1.097473  -3.327893  5.219889
Hg    -0.194416  2.164870  2.526385
