36
Energy: -574588.35151 eV PBE+vdW (tier 2 basis)
C    -0.309376  0.392799  -0.521776
C    -0.078485  0.570460  0.942433
O    1.071796  0.885427  1.360308
H    -1.217000  -0.178695  -0.739735
H    0.560397  -0.126153  -0.945332
H    -0.354748  1.375291  -1.014524
N    -1.085560  0.382020  1.840360
C    -2.437652  0.925740  1.730551
C    -2.409403  2.424458  2.109904
O    -1.542139  2.879200  2.985842
H    -0.751277  0.346840  2.805637
H    -2.747579  0.867376  0.679054
C    -3.415618  0.124240  2.622712
C    -4.018837  -1.117688  1.929174
C    -5.526454  -0.994933  1.660588
N    -5.835617  0.263090  0.966118
C    -6.749976  1.177391  1.329207
N    -7.862108  0.812408  1.976077
N    -6.511119  2.464444  1.035434
H    -4.213369  0.804112  2.947725
H    -2.885361  -0.162495  3.541344
H    -3.872633  -2.016647  2.541428
H    -3.492393  -1.324364  0.984235
H    -6.076536  -0.989557  2.611057
H    -5.879977  -1.853753  1.073490
H    -5.222135  0.543882  0.207886
H    -8.454083  1.499454  2.429259
H    -8.215820  -0.135924  1.915420
H    -7.256003  3.152002  1.026902
N    -3.361374  3.180278  1.661526
C    -3.313750  4.620236  1.722922
H    -5.542986  2.785619  0.987999
H    -3.793311  5.027382  0.819816
H    -2.299611  5.024818  1.826291
H    -3.924256  4.968895  2.573701
Hg    0.691023  2.655150  2.914241
