36
Energy: -574588.224414 eV PBE+vdW (tier 2 basis)
C    -0.180297  -0.489193  -0.196129
C    -0.154829  -0.233806  1.283279
O    0.925379  0.144264  1.802992
H    0.706249  -1.068314  -0.478332
H    -0.120418  0.476241  -0.718571
H    -1.085691  -1.015796  -0.519333
N    -1.301856  -0.427900  1.975090
C    -1.523890  -0.056007  3.368062
C    -0.792050  -1.007410  4.350402
O    0.150244  -0.556517  5.064551
H    -2.116795  -0.694812  1.429298
H    -1.029168  0.913985  3.544110
C    -3.025137  0.142686  3.653427
C    -3.321079  0.396226  5.133876
C    -4.792295  0.724405  5.437476
N    -5.796035  -0.218942  4.929282
C    -5.992768  -1.489727  5.405907
N    -7.234753  -2.017291  5.268731
N    -4.955443  -2.115598  5.935335
H    -3.597187  -0.728414  3.302955
H    -3.349541  0.999656  3.042836
H    -2.736971  1.255344  5.498026
H    -3.028346  -0.470264  5.739246
H    -5.056062  1.694915  4.998852
H    -4.902443  0.819374  6.528153
H    -6.574576  0.203054  4.432110
H    -7.395476  -2.998356  5.463306
H    -8.053949  -1.453310  5.068907
H    -5.234573  -3.023997  6.322846
N    -1.127512  -2.290674  4.493263
C    -2.292509  -3.012619  3.996200
H    -0.547742  -2.779331  5.177812
H    -2.087513  -4.082879  4.097915
H    -2.468200  -2.797689  2.937817
H    -3.193468  -2.767163  4.589867
Hg    1.597544  0.921908  3.951381
