36
Energy: -574587.756616 eV PBE+vdW (tier 2 basis)
C    -0.266862  2.376162  -1.200792
C    0.216852  1.600734  -0.016904
O    1.458039  1.497347  0.183342
H    -0.286211  3.448597  -0.952931
H    -1.259501  2.055360  -1.533940
H    0.454695  2.256567  -2.017752
N    -0.652970  0.990168  0.827391
C    -1.891257  1.586975  1.330293
C    -1.483861  2.384116  2.595914
O    -0.427744  2.084853  3.212513
H    -0.175889  0.447868  1.550410
H    -2.278910  2.272902  0.565205
C    -2.945458  0.504681  1.646964
C    -3.421088  -0.241461  0.395136
C    -4.547968  -1.264792  0.643512
N    -4.171680  -2.435654  1.428920
C    -3.626308  -3.578708  0.918340
N    -3.457406  -4.645480  1.737308
N    -3.184037  -3.732354  -0.321005
H    -3.801701  0.986761  2.141497
H    -2.516486  -0.192701  2.384457
H    -2.571576  -0.746697  -0.089010
H    -3.814345  0.481264  -0.337004
H    -4.949515  -1.600790  -0.322754
H    -5.386342  -0.788591  1.170270
H    -4.376960  -2.413124  2.423855
H    -3.040728  -5.474374  1.323350
H    -3.930411  -4.746246  2.628556
H    -3.451396  -2.961729  -0.942702
N    -2.266979  3.367229  3.053270
C    -3.585445  3.791849  2.595477
H    -1.905311  3.818483  3.895315
H    -3.740915  3.530868  1.544368
H    -3.655588  4.881095  2.693737
H    -4.380539  3.338681  3.204287
Hg    2.063629  1.833520  2.491312
