36
Energy: -574588.045202 eV PBE+vdW (tier 2 basis)
C    -2.536203  1.195986  -1.178826
C    -2.267168  0.543066  0.144819
O    -2.292315  -0.707918  0.227998
H    -2.753897  2.266406  -1.087265
H    -3.373275  0.687010  -1.669661
H    -1.652226  1.063757  -1.819629
N    -2.011643  1.346891  1.209127
C    -1.564964  0.859012  2.506966
C    -2.683427  0.049197  3.214989
O    -2.499746  -1.152732  3.538255
H    -1.945098  2.345410  1.026147
H    -0.751850  0.128051  2.351033
C    -0.999979  2.019760  3.351457
C    -0.188637  1.605134  4.593203
C    -0.962137  1.166138  5.841548
N    -1.744198  2.252323  6.414645
C    -2.815677  2.111687  7.256634
N    -3.161982  0.862535  7.671868
N    -3.605685  3.101513  7.618110
H    -1.806141  2.719369  3.627179
H    -0.322567  2.581375  2.690983
H    0.460288  2.450888  4.866900
H    0.504506  0.792766  4.330865
H    -0.234269  0.791470  6.584696
H    -1.645428  0.328286  5.631094
H    -1.392339  3.200287  6.307663
H    -3.947944  0.832485  8.316958
H    -2.470993  0.127051  7.772859
H    -3.265371  4.026521  7.331135
N    -3.822342  0.678587  3.495888
C    -4.967017  0.055602  4.159549
H    -3.893152  1.665096  3.258813
H    -5.887741  0.497975  3.766102
H    -4.952789  -1.020746  3.964289
H    -4.922611  0.221770  5.244562
Hg    -1.433128  -2.397976  1.746996
