36
Energy: -574589.986063 eV PBE+vdW (tier 2 basis)
C    -2.903743  -0.572964  1.949711
C    -2.137627  -0.427972  3.232998
O    -1.504911  -1.388176  3.713885
H    -3.556164  0.277217  1.723210
H    -3.500612  -1.491531  1.986372
H    -2.183224  -0.693488  1.128196
N    -2.177354  0.798296  3.826390
C    -1.464121  1.246196  5.032001
C    0.060845  1.175558  4.769681
O    0.793538  0.135563  4.944368
H    -2.736642  1.504467  3.359054
H    -1.701562  2.313056  5.083802
C    -1.900001  0.633593  6.409888
C    -3.119013  -0.317034  6.415087
C    -3.102646  -1.363998  7.569337
N    -3.154231  -2.759834  7.090429
C    -2.134160  -3.433025  6.533979
N    -2.364883  -4.438478  5.690122
N    -0.813661  -3.161446  6.818509
H    -2.092714  1.479309  7.082766
H    -1.036723  0.131238  6.875310
H    -3.179330  -0.865435  5.468866
H    -4.041334  0.273415  6.475234
H    -3.970211  -1.241159  8.225599
H    -2.224812  -1.236898  8.215940
H    -4.082458  -3.170596  7.012849
H    -1.610381  -5.088774  5.492556
H    -3.285598  -4.649903  5.319556
H    -0.713265  -2.823649  7.779397
N    0.675674  2.252068  4.306946
C    0.118694  3.574599  3.999570
H    1.672298  2.119728  4.128108
H    -0.616734  3.517308  3.187883
H    0.943025  4.211044  3.666499
H    -0.326555  4.037417  4.888650
Hg    -0.000744  -1.682412  5.638568
