36
Energy: -574590.26622 eV PBE+vdW (tier 2 basis)
C    -1.317053  -0.588068  -0.573917
C    -1.829962  -1.118012  0.752155
O    -1.678328  -2.318699  0.994787
H    -2.092756  -0.471855  -1.342408
H    -2.415387  -3.856489  2.298813
H    -0.505160  -1.219728  -0.940586
N    -2.413875  -0.297179  1.690708
C    -3.229847  0.918763  1.525276
C    -2.493198  2.155067  2.116186
O    -1.471414  2.647458  1.545689
H    -2.590240  -0.796795  2.561762
H    -3.318963  1.132343  0.449228
C    -4.652250  0.658272  2.058972
C    -5.456641  -0.406061  1.264989
C    -5.740975  -1.742440  1.964003
N    -4.549664  -2.592694  2.043269
C    -4.373909  -3.660657  2.843452
N    -5.349843  -4.079605  3.658286
N    -3.178883  -4.262950  2.838813
H    -5.205318  1.606818  2.021725
H    -4.597779  0.366329  3.121669
H    -4.984030  -0.602410  0.288655
H    -6.438206  0.018106  1.019107
H    -6.539385  -2.260026  1.408406
H    -6.110470  -1.557076  2.983892
H    -3.865480  -2.519175  1.293601
H    -5.182327  -4.813570  4.336953
H    -6.312823  -3.802289  3.515154
H    -3.043817  -5.177784  3.252232
N    -2.941896  2.707951  3.234424
C    -2.316891  3.879050  3.860125
H    -3.780642  2.330993  3.662904
H    -2.833384  4.084414  4.800901
H    -2.397009  4.750752  3.199508
H    -1.257520  3.679885  4.056424
Hg    -0.638002  1.389932  -0.161824
