36
Energy: -574590.040618 eV PBE+vdW (tier 2 basis)
C    1.104372  0.778419  1.568812
C    0.040759  0.956301  2.601950
O    0.257752  1.858868  3.484414
H    1.237255  1.723356  1.024598
H    0.879327  -0.023367  0.857570
H    2.056620  0.563234  2.072348
N    -1.045609  0.166007  2.539549
C    -2.175615  0.160860  3.475733
C    -1.756171  -0.493885  4.816644
O    -1.398814  0.251135  5.753213
H    -1.055098  -0.509550  1.778486
H    -2.350466  1.214205  3.731379
C    -3.518866  -0.273565  2.889058
C    -4.683974  0.003782  3.869054
C    -4.880561  1.479987  4.334862
N    -4.610262  1.689978  5.768843
C    -3.608604  2.372209  6.350828
N    -3.293801  2.123317  7.624124
N    -2.884821  3.356032  5.725471
H    -3.530777  -1.341894  2.622822
H    -3.679674  0.276639  1.949468
H    -4.581553  -0.637885  4.756773
H    -5.606323  -0.324347  3.374548
H    -5.918576  1.785390  4.155666
H    -4.263038  2.179399  3.757317
H    -5.246398  1.204367  6.399364
H    -2.745479  2.807463  8.134820
H    -3.624854  1.306938  8.126184
H    -3.416500  3.825545  4.989645
N    -1.766337  -1.826922  4.888672
C    -1.316491  -2.590212  6.054604
H    -2.105378  -2.353484  4.088916
H    -2.172900  -3.032227  6.579257
H    -0.781764  -1.917718  6.730070
H    -0.646161  -3.392759  5.727763
Hg    -1.132733  2.645934  4.871374
