36
Energy: -574587.791988 eV PBE+vdW (tier 2 basis)
C    0.132923  1.357251  1.305995
C    -0.186640  0.585102  2.547015
O    0.781147  0.122636  3.207392
H    0.456875  2.373426  1.578181
H    -0.712076  1.411979  0.594261
H    0.988989  0.879572  0.813280
N    -1.462020  0.362212  2.950492
C    -2.521545  1.373940  2.972330
C    -2.298505  2.201266  4.266447
O    -1.688556  1.692457  5.241902
H    -1.507887  -0.250789  3.767384
H    -2.402805  2.012390  2.087486
C    -3.914869  0.707625  3.018522
C    -4.269485  -0.256580  1.876674
C    -4.754046  0.400015  0.560708
N    -3.716217  1.101136  -0.166084
C    -2.744268  0.570236  -0.969570
N    -2.795421  -0.735824  -1.310798
N    -1.798268  1.439274  -1.296420
H    -3.973481  0.149222  3.966780
H    -4.679785  1.493730  3.098782
H    -5.098160  -0.891599  2.220806
H    -3.430492  -0.935971  1.666317
H    -5.554542  1.122118  0.766653
H    -5.202647  -0.375228  -0.079940
H    -3.663664  2.115589  -0.126714
H    -2.105919  -1.101921  -1.957809
H    -3.639284  -1.289232  -1.203899
H    -1.094637  1.038541  -1.928286
N    -2.795017  3.438431  4.369349
C    -3.672389  4.161727  3.455205
H    -2.613443  3.877768  5.273554
H    -3.514160  3.836062  2.422244
H    -3.434282  5.229377  3.515966
H    -4.728967  4.026047  3.725359
Hg    0.480281  0.305411  5.583959
