36
Energy: -574590.051144 eV PBE+vdW (tier 2 basis)
C    -0.647111  0.445195  -0.590403
C    -0.547830  0.309529  0.887376
O    0.520894  -0.308271  1.351991
H    0.224555  0.984662  -0.983922
H    -1.572353  0.936248  -0.907370
H    -0.611489  -0.564966  -1.027321
N    -1.521374  0.731774  1.655866
C    -1.863150  0.418746  3.050332
C    -3.395322  0.749778  3.061646
O    -3.821124  1.471856  2.149964
H    -2.365529  1.208304  1.245820
H    -1.687049  -0.653630  3.215185
C    -1.122785  1.219223  4.148888
C    -1.070628  2.754645  3.994232
C    0.326341  3.354799  3.789822
N    1.260081  3.060281  4.892798
C    2.505124  2.546634  4.841186
N    3.356186  2.845191  5.836295
N    2.926596  1.739687  3.847716
H    -0.105150  0.806843  4.276324
H    -1.607424  0.957205  5.097948
H    -1.520888  3.223876  4.879629
H    -1.691577  3.091046  3.151271
H    0.243648  4.448056  3.701853
H    0.784693  3.023910  2.846711
H    1.015925  3.489933  5.782041
H    4.189152  2.291599  6.004334
H    3.231845  3.671650  6.411842
H    3.931290  1.592117  3.791598
N    -4.165164  0.273247  4.048483
C    -3.832986  -0.653602  5.126242
H    -5.135280  0.578898  3.983438
H    -4.677983  -1.333439  5.280098
H    -3.639525  -0.126016  6.070689
H    -2.963542  -1.267254  4.867784
Hg    1.745174  0.642938  2.638996
