36
Energy: -574588.00637 eV PBE+vdW (tier 2 basis)
C    2.261386  -2.395487  1.904817
C    1.678007  -1.078212  2.327543
O    2.376579  -0.042311  2.183529
H    3.136570  -2.612512  2.531789
H    2.623295  -2.306387  0.872239
H    1.547724  -3.224363  1.969658
N    0.420867  -1.084180  2.827296
C    -0.421559  0.083721  3.096594
C    -0.334218  0.458672  4.593629
O    0.778196  0.785112  5.093985
H    0.003337  -2.000180  2.959036
H    0.066099  0.931804  2.588698
C    -1.820508  -0.052484  2.453323
C    -2.608672  -1.353476  2.693366
C    -4.028153  -1.323566  2.104494
N    -4.027003  -1.286667  0.648820
C    -5.028415  -0.795224  -0.149839
N    -6.175950  -0.353696  0.417893
N    -4.924534  -0.652025  -1.457412
H    -1.679423  0.083258  1.371510
H    -2.417272  0.817106  2.772039
H    -2.717421  -1.584765  3.764337
H    -2.076771  -2.219400  2.265603
H    -4.564854  -0.431129  2.463976
H    -4.585324  -2.205939  2.466549
H    -3.308527  -1.812909  0.160406
H    -6.862764  0.041522  -0.218680
H    -6.498104  -0.652807  1.330087
H    -4.055197  -1.038928  -1.842499
N    -1.423228  0.443148  5.356675
C    -1.428121  0.810085  6.775275
H    -2.290873  0.108589  4.952112
H    -2.430831  1.153964  7.044837
H    -0.700615  1.609831  6.944028
H    -1.157138  -0.051667  7.399030
Hg    2.536150  1.699532  3.777994
