36
Energy: -574589.141786 eV PBE+vdW (tier 2 basis)
C    0.070768  -0.037587  2.040188
C    -0.857070  0.311564  3.190420
O    -0.404066  1.071216  4.075380
H    -0.435657  -0.044999  1.072465
H    0.486653  -1.038588  2.227278
H    0.898135  0.676622  2.032682
N    -2.149287  -0.119043  3.243872
C    -2.682819  -1.456638  3.014262
C    -2.240256  -2.381681  4.203988
O    -2.322562  -1.952329  5.382849
H    -3.909520  3.612741  -1.196435
H    -3.770719  -1.349019  3.168659
C    -2.540816  -2.042179  1.588371
C    -3.483452  -1.417933  0.541482
C    -3.162158  0.002655  0.062496
N    -4.119093  0.380097  -0.986087
C    -4.380411  1.625754  -1.410709
N    -5.410051  1.842410  -2.239916
N    -3.636847  2.658359  -0.991436
H    -2.851122  -3.095669  1.643870
H    -1.500704  -2.042817  1.240141
H    -4.513967  -1.437868  0.928734
H    -3.467161  -2.086756  -0.334035
H    -2.135550  0.043628  -0.338582
H    -3.242537  0.722491  0.889448
H    -4.547760  -0.377891  -1.509478
H    -5.506137  2.715063  -2.746221
H    -6.117861  1.136314  -2.403509
H    -2.713390  2.518853  -0.602688
N    -1.809404  -3.617003  3.966164
C    -1.435741  -4.550360  5.034023
H    -1.781388  -3.954723  3.011495
H    -0.829850  -4.029596  5.782657
H    -0.858396  -5.368032  4.594333
H    -2.330303  -4.956042  5.522982
Hg    -2.381740  0.473900  5.410180
