36
Energy: -574587.782377 eV PBE+vdW (tier 2 basis)
C    0.022944  0.615798  -0.291777
C    0.092446  0.229725  1.151411
O    1.205902  -0.106758  1.641801
H    0.288773  1.678660  -0.399618
H    -0.967121  0.436795  -0.724449
H    0.777466  0.044336  -0.845030
N    -1.016355  0.216582  1.930539
C    -2.066082  1.236452  1.927602
C    -1.543753  2.376641  2.835957
O    -0.679777  2.133466  3.718584
H    -0.835318  -0.147201  2.867896
H    -2.195304  1.596606  0.898071
C    -3.383893  0.643364  2.478859
C    -3.926744  -0.538302  1.660442
C    -4.875806  -0.197335  0.490911
N    -6.241169  0.127321  0.892527
C    -7.192229  -0.827916  1.141514
N    -8.470806  -0.429663  1.347834
N    -6.765028  -2.077995  1.158355
H    -4.131647  1.445406  2.564839
H    -3.189640  0.317633  3.512443
H    -4.461044  -1.233292  2.321290
H    -3.088084  -1.115845  1.244144
H    -4.924053  -1.065481  -0.176354
H    -4.508289  0.657874  -0.094490
H    -6.517404  1.102797  0.934174
H    -8.802900  0.504114  1.130189
H    -9.179012  -1.119363  1.571358
H    -7.507169  -2.745639  1.397529
N    -2.034584  3.615643  2.716601
C    -3.137282  4.094475  1.892114
H    -1.629471  4.281280  3.376749
H    -2.912556  5.115696  1.564742
H    -4.078411  4.112095  2.459751
H    -3.259145  3.469662  1.001866
Hg    1.594342  0.896479  3.783073
