36
Energy: -574588.594133 eV PBE+vdW (tier 2 basis)
C    -0.672821  -1.844577  1.101497
C    -0.171249  -0.731640  1.966775
O    0.989657  -0.771618  2.442668
H    -0.323951  -1.695666  0.068323
H    -1.764819  -1.926492  1.106015
H    -0.228908  -2.783227  1.452602
N    -0.972480  0.339148  2.249333
C    -1.816639  1.030415  1.282520
C    -0.935203  2.010126  0.470304
O    0.199841  2.460491  0.951159
H    -0.547373  0.969457  2.932159
H    -2.231803  0.292413  0.582565
C    -2.953948  1.796052  1.994011
C    -3.960213  0.888853  2.724877
C    -5.158517  0.414704  1.896822
N    -6.117071  1.511102  1.686691
C    -7.202116  1.453101  0.898096
N    -7.956785  2.546411  0.720576
N    -7.517357  0.317977  0.261595
H    -3.451553  2.424945  1.242941
H    -2.494422  2.491187  2.712482
H    -4.336923  1.402586  3.622734
H    -3.447519  -0.003381  3.111834
H    -5.651556  -0.414028  2.430279
H    -4.836675  0.043072  0.911132
H    -6.069405  2.288611  2.338471
H    -8.877620  2.490108  0.301476
H    -7.651028  3.459104  1.035204
H    -7.136148  -0.573051  0.553136
N    -1.425420  2.532256  -0.596618
C    -0.740601  3.189527  -1.661268
H    -8.260433  0.295040  -0.427190
H    -0.866379  4.280525  -1.554386
H    -1.246656  2.935607  -2.607839
H    0.325305  2.934776  -1.724999
Hg    2.000104  1.388520  1.850064
