36
Energy: -574587.558421 eV PBE+vdW (tier 2 basis)
C    -0.218689  0.682730  2.665096
C    -1.205023  1.744027  3.044249
O    -1.029536  2.370653  4.121874
H    -0.007691  0.682668  1.591598
H    -0.603874  -0.301776  2.966817
H    0.707157  0.860738  3.222285
N    -2.238409  2.114944  2.226722
C    -3.182337  1.219328  1.552506
C    -3.923874  0.438666  2.684020
O    -3.335675  0.264151  3.776345
H    -2.689067  2.959205  2.583200
H    -3.903782  1.893090  1.066684
C    -2.612527  0.290042  0.461360
C    -1.968937  1.067313  -0.698858
C    -1.617686  0.216814  -1.923681
N    -0.496677  -0.685369  -1.695973
C    -0.182446  -1.780586  -2.455068
N    -0.925662  -2.080847  -3.542522
N    0.789893  -2.628549  -2.157088
H    -3.456001  -0.300374  0.074013
H    -1.919289  -0.440789  0.897312
H    -1.076108  1.615348  -0.358220
H    -2.665278  1.843821  -1.048861
H    -1.387113  0.890724  -2.769610
H    -2.486297  -0.391024  -2.227248
H    0.222308  -0.395523  -1.039641
H    -0.676186  -2.931877  -4.039179
H    -1.546242  -1.425190  -4.001274
H    1.351256  -2.331460  -1.349838
N    -5.167541  -0.011457  2.482549
C    -5.999300  0.043811  1.285335
H    -5.564523  -0.485069  3.295465
H    -5.713128  0.883714  0.644018
H    -7.042889  0.183401  1.587230
H    -5.927272  -0.891448  0.712182
Hg    -2.829435  1.990320  5.685874
