36
Energy: -574590.270266 eV PBE+vdW (tier 2 basis)
C    0.369345  -0.634262  3.263387
C    0.082183  -1.058984  1.871869
O    0.402851  -2.272401  1.548350
H    -0.487659  -0.909917  3.900267
H    0.550712  0.441819  3.347445
H    1.233487  -1.195957  3.637743
N    -0.474079  -0.235681  0.978567
C    -1.478673  0.798953  1.254559
C    -2.707824  0.099891  1.896195
O    -2.957390  -1.095425  1.627580
H    -0.497760  -0.576869  0.016832
H    -1.058229  1.523971  1.966088
C    -1.831615  1.575251  -0.044827
C    -2.008999  0.840262  -1.393022
C    -3.215031  -0.090712  -1.640087
N    -3.026089  -1.435379  -1.085549
C    -2.948436  -2.599644  -1.750207
N    -3.480035  -2.757453  -2.969018
N    -2.292187  -3.628402  -1.161671
H    -1.031537  2.312387  -0.199244
H    -2.737027  2.160656  0.170469
H    -1.087022  0.310564  -1.691358
H    -2.091613  1.647678  -2.135655
H    -3.355014  -0.173470  -2.724389
H    -4.138892  0.340390  -1.227891
H    -3.017470  -1.475359  -0.045598
H    -4.240765  -2.168328  -3.290181
H    -3.236605  -3.551968  -3.550568
H    -2.452248  -4.577263  -1.491287
N    -3.446879  0.851729  2.714022
C    -4.680215  0.402800  3.362055
H    -3.143144  1.803919  2.900764
H    -5.532221  0.991805  3.001230
H    -4.594309  0.527121  4.447691
H    -4.836015  -0.652603  3.126023
Hg    -0.873766  -3.138832  0.183799
