36
Energy: -574589.578814 eV PBE+vdW (tier 2 basis)
C    -1.249901  1.402108  -0.189958
C    -1.010427  1.359184  1.290749
O    -0.982312  2.335881  2.020273
H    -2.305015  1.654572  -0.366696
H    -1.019810  0.460616  -0.701941
H    -0.653728  2.212990  -0.624139
N    -0.785771  0.078905  1.849719
C    -0.781847  -0.006561  3.295299
C    0.561957  -0.531068  3.816645
O    0.805511  -0.942514  5.033719
H    -1.017542  -0.738697  1.292547
H    -0.748162  1.076003  3.577621
C    -2.093776  -0.536433  3.912138
C    -2.487511  -2.007846  3.672272
C    -3.665235  -2.461194  4.586671
N    -3.451995  -3.771017  5.230722
C    -2.581470  -4.008458  6.219956
N    -2.156455  -5.241936  6.484969
N    -2.074327  -3.003788  7.038337
H    -2.883000  0.122713  3.522097
H    -2.093200  -0.306592  4.993887
H    -1.629744  -2.686176  3.827167
H    -2.766923  -2.158709  2.620999
H    -4.595808  -2.550260  4.017040
H    -3.866354  -1.710525  5.363001
H    -3.920223  -4.569534  4.805861
H    -2.397752  -6.047918  5.914933
H    -1.696501  -5.411733  7.375317
H    -2.797856  -2.304848  7.236448
N    1.596605  -0.402724  3.019287
C    2.994816  -0.662700  3.360450
H    1.372660  -0.010396  2.101753
H    3.462130  0.252624  3.747151
H    3.520666  -0.980099  2.455186
H    3.054189  -1.444722  4.121910
Hg    -0.554630  -1.962446  6.153919
