36
Energy: -574587.794419 eV PBE+vdW (tier 2 basis)
C    -0.752581  -0.050668  -0.601530
C    -0.260287  -0.277764  0.791053
O    0.982293  -0.104882  0.957649
H    -1.199606  0.954059  -0.644039
H    0.093484  -0.094343  -1.292732
H    -1.536354  -0.772028  -0.938745
N    -1.055905  -0.486659  1.874363
C    -2.108440  -1.485022  2.128818
C    -1.393154  -2.787057  2.572636
O    -0.214212  -3.041471  2.198386
H    -0.544241  -0.270214  2.731072
H    -2.679140  -1.085711  2.981332
C    -3.091352  -1.761270  0.980402
C    -4.002614  -0.571492  0.649137
C    -4.951744  -0.865201  -0.546804
N    -4.647389  -0.141816  -1.777183
C    -3.709749  -0.519363  -2.687940
N    -3.745737  0.055302  -3.913609
N    -2.822974  -1.431661  -2.303177
H    -3.722536  -2.604084  1.296378
H    -2.561597  -2.119375  0.089093
H    -3.421151  0.333352  0.431037
H    -4.615060  -0.329227  1.529192
H    -5.975970  -0.580846  -0.281741
H    -4.958365  -1.939315  -0.773314
H    -5.238055  0.652670  -2.004311
H    -3.009781  -0.129109  -4.584617
H    -4.567601  0.535851  -4.265395
H    -2.168413  -1.660908  -3.059272
N    -2.039822  -3.674724  3.333819
C    -3.420773  -3.667465  3.806470
H    -1.488665  -4.508624  3.542692
H    -4.077027  -4.228887  3.126684
H    -3.796133  -2.644774  3.912380
H    -3.451137  -4.149604  4.789749
Hg    1.875327  -1.722963  2.414821
