36
Energy: -574590.079081 eV PBE+vdW (tier 2 basis)
C    -1.499272  1.407191  -0.252857
C    -1.069360  0.869738  1.080293
O    0.053288  1.152529  1.546232
H    -2.467879  1.026611  -0.593979
H    -0.730668  1.169775  -0.998759
H    -1.548853  2.502793  -0.186572
N    -1.960867  0.075076  1.735551
C    -1.833815  -0.521054  3.075150
C    -1.613255  0.592565  4.135140
O    -0.483580  1.086735  4.480007
H    -2.847757  -0.081272  1.267492
H    -2.840514  -0.904903  3.278587
C    -0.870318  -1.759773  3.213918
C    -0.084511  -2.157181  1.951218
C    0.955742  -3.280063  2.113595
N    1.980980  -3.155660  3.176825
C    2.665593  -2.080414  3.593647
N    3.310206  -2.124691  4.769058
N    2.749426  -0.904601  2.894074
H    -1.486723  -2.610982  3.533565
H    -0.189377  -1.593769  4.065749
H    0.380171  -1.279236  1.486551
H    -0.783956  -2.534540  1.191433
H    1.457374  -3.428609  1.145688
H    0.443902  -4.223805  2.341345
H    2.213882  -4.036355  3.630766
H    3.223045  -2.901634  5.415221
H    4.048216  -1.449156  4.939512
H    2.616112  -1.043631  1.890559
N    -2.695825  1.077458  4.718570
C    -2.682040  2.168900  5.699425
H    -3.594464  0.667002  4.481560
H    -3.714704  2.469179  5.893376
H    -2.116914  3.019991  5.303802
H    -2.217190  1.833466  6.634735
Hg    1.274039  0.415555  3.504037
