36
Energy: -574587.819225 eV PBE+vdW (tier 2 basis)
C    -0.164474  1.793263  -0.000417
C    -0.149826  0.854594  1.164435
O    0.918350  0.704605  1.816757
H    -0.353192  2.816803  0.358243
H    -0.916788  1.518217  -0.747302
H    0.830185  1.798146  -0.461146
N    -1.255519  0.149187  1.512967
C    -2.619026  0.679819  1.556011
C    -2.720372  1.456033  2.897736
O    -2.043956  1.090690  3.886858
H    -1.076090  -0.499515  2.281662
H    -2.758701  1.366925  0.709585
C    -3.613351  -0.499200  1.459258
C    -5.094864  -0.105918  1.378076
C    -6.045452  -1.303291  1.257716
N    -5.955197  -1.970577  -0.033932
C    -6.394365  -3.235181  -0.316996
N    -7.009340  -3.964724  0.639212
N    -6.202181  -3.838286  -1.480434
H    -3.455914  -1.156461  2.329767
H    -3.321995  -1.081355  0.572283
H    -5.271928  0.582685  0.534521
H    -5.398835  0.436257  2.284892
H    -7.081854  -0.958369  1.427703
H    -5.820361  -2.044003  2.043035
H    -5.687249  -1.414539  -0.841012
H    -7.271015  -4.913554  0.385766
H    -7.393323  -3.574103  1.490794
H    -5.775253  -3.226720  -2.186846
N    -3.558026  2.499270  2.950900
C    -3.768650  3.324174  4.138992
H    -4.113445  2.713372  2.126739
H    -3.862246  4.372692  3.836770
H    -2.916961  3.199652  4.813054
H    -4.683465  3.019974  4.665570
Hg    0.572344  0.656767  4.207233
