36
Energy: -574590.002162 eV PBE+vdW (tier 2 basis)
C    1.098517  -1.468288  0.965446
C    0.868382  -0.612220  2.162734
O    1.956127  -0.164055  2.744503
H    1.622780  -0.891935  0.191350
H    0.167570  -1.878154  0.561314
H    1.763791  -2.296601  1.249846
N    -0.355544  -0.409076  2.590446
C    -0.880282  0.154659  3.840101
C    -2.238966  -0.617811  3.977568
O    -2.786291  -0.932751  2.917095
H    -1.159288  -0.822660  2.070728
H    -0.177812  -0.061471  4.657608
C    -1.149754  1.675927  3.714909
C    -1.503221  2.383277  5.038322
C    -0.895661  3.788279  5.170739
N    0.569690  3.660603  5.237651
C    1.499234  4.283912  4.488955
N    1.327941  5.552906  4.111846
N    2.598077  3.577318  4.133227
H    -1.939458  1.829133  2.966310
H    -0.249419  2.142135  3.274996
H    -1.155479  1.793069  5.900548
H    -2.591778  2.461300  5.154998
H    -1.276464  4.283012  6.074346
H    -1.147020  4.419509  4.307670
H    0.926921  2.921286  5.837307
H    0.709498  6.171476  4.628737
H    1.894941  5.971321  3.381244
H    3.419975  4.095112  3.824415
N    -2.769493  -0.866719  5.185424
C    -2.203865  -0.725924  6.522404
H    -3.679663  -1.322600  5.122887
H    -2.424508  -1.631243  7.099423
H    -2.631490  0.134410  7.054525
H    -1.114561  -0.624124  6.481517
Hg    2.298589  1.683867  3.476475
