36
Energy: -574588.077375 eV PBE+vdW (tier 2 basis)
C    -0.747950  -1.029723  -0.261944
C    -0.311787  -0.583905  1.101799
O    0.662273  0.218070  1.175514
H    -0.949935  -0.139899  -0.873712
H    -1.642098  -1.662458  -0.240431
H    0.078548  -1.567761  -0.744641
N    -0.992896  -1.051385  2.167375
C    -0.964968  -0.531598  3.541038
C    -0.028471  -1.388556  4.421392
O    1.182863  -1.554873  4.069163
H    -1.721716  -1.727263  1.956696
H    -0.456337  0.445732  3.489351
C    -2.395115  -0.259740  4.051236
C    -3.437380  -1.371223  3.828545
C    -4.727149  -1.164053  4.656707
N    -4.472568  -1.181921  6.098271
C    -3.785544  -2.207157  6.720984
N    -4.055786  -3.473562  6.330501
N    -2.789837  -1.993852  7.555026
H    -2.742667  0.661445  3.562294
H    -2.315301  -0.007598  5.119506
H    -3.029074  -2.366940  4.064898
H    -3.749633  -1.404394  2.773928
H    -5.463058  -1.934765  4.387584
H    -5.192369  -0.197475  4.427952
H    -4.409130  -0.281248  6.563961
H    -3.594151  -4.214364  6.849583
H    -4.957153  -3.702799  5.926167
H    -2.752766  -1.031087  7.906186
N    -0.439940  -1.954824  5.546436
C    0.448996  -2.709144  6.435310
H    -1.412549  -1.879646  5.862748
H    -0.071561  -2.845198  7.386848
H    1.384271  -2.158895  6.586707
H    0.686520  -3.688523  6.000588
Hg    2.303447  0.027764  2.799919
