36
Energy: -574588.553971 eV PBE+vdW (tier 2 basis)
C    -1.573746  -0.593790  0.269122
C    -0.841904  -0.467822  1.594007
O    0.456612  -0.724378  1.366900
H    -1.839989  -1.647564  0.103746
H    -0.934047  -0.279778  -0.561122
H    -2.480095  0.019721  0.284123
N    -1.525504  -0.173931  2.651730
C    -1.243228  -0.236717  4.097188
C    -0.309866  0.844244  4.705698
O    0.976333  0.747979  4.780672
H    -3.245924  -0.824098  2.549180
H    -2.213675  -0.007908  4.556973
C    -0.869423  -1.649918  4.612700
C    -1.769225  -2.771635  4.070409
C    -3.120474  -2.997119  4.751489
N    -4.113546  -1.884522  4.793890
C    -4.839409  -1.433722  3.738621
N    -6.157174  -1.241001  3.892656
N    -4.240751  -1.150733  2.580173
H    -0.885924  -1.632359  5.713354
H    0.169341  -1.907145  4.342972
H    -1.234481  -3.723139  4.206034
H    -1.893851  -2.671260  2.984424
H    -2.953720  -3.247241  5.806667
H    -3.595664  -3.873939  4.286963
H    -4.624143  -1.852630  5.672172
H    -6.692401  -0.687035  3.232447
H    -6.680672  -1.723124  4.615223
H    -4.814225  -0.967201  1.763597
N    -0.843500  1.914786  5.269277
C    -2.255704  2.281053  5.406126
H    -0.161667  2.555756  5.679821
H    -2.795738  2.096489  4.472114
H    -2.299537  3.352929  5.621623
H    -2.726417  1.742240  6.238725
Hg    1.628394  -0.297057  3.015094
