36
Energy: -574590.427521 eV PBE+vdW (tier 2 basis)
C    -0.751101  0.450713  -0.247791
C    -0.417588  0.392268  1.213347
O    0.764947  0.312337  1.602590
H    -0.256372  1.328215  -0.685054
H    -1.824979  0.504467  -0.455694
H    -0.329027  -0.431854  -0.745127
N    -1.461149  0.438851  2.087477
C    -1.363526  0.457477  3.552109
C    -0.399139  1.579644  4.013825
O    0.840226  1.422723  4.299894
H    -2.393980  0.508203  1.693682
H    -2.355322  0.790444  3.883105
C    -1.112755  -0.925840  4.248212
C    -0.707518  -2.098495  3.336439
C    -0.202030  -3.348217  4.064908
N    0.985113  -3.219816  4.963207
C    2.286973  -3.123919  4.573380
N    3.183794  -3.957114  5.118451
N    2.672080  -2.195838  3.682429
H    -2.038800  -1.197022  4.772633
H    -0.378802  -0.790044  5.060833
H    0.025834  -1.801968  2.575346
H    -1.582070  -2.428638  2.757079
H    0.004786  -4.125023  3.315075
H    -0.991697  -3.737592  4.719347
H    0.868584  -3.732252  5.833277
H    4.178887  -3.757212  5.093363
H    2.905049  -4.846147  5.521714
H    3.608100  -2.305084  3.296951
N    -0.910168  2.789357  4.147370
C    -0.141599  3.977506  4.533212
H    -1.909160  2.903502  3.997701
H    0.030957  3.984161  5.616921
H    -0.714481  4.864903  4.251489
H    0.822774  3.977356  4.015638
Hg    1.826160  -0.333051  3.730661
