36
Energy: -574588.021436 eV PBE+vdW (tier 2 basis)
C    0.337591  0.243558  0.106901
C    0.084672  0.142717  1.586532
O    1.082114  0.046065  2.343951
H    -0.556474  0.514268  -0.466205
H    0.714151  -0.725561  -0.249105
H    1.126388  0.983680  -0.071331
N    -1.204708  0.181813  1.990440
C    -1.775971  0.003253  3.338431
C    -1.201728  1.044651  4.340624
O    -0.338737  0.769613  5.212706
H    -1.882114  0.262023  1.238147
H    -2.835807  0.270594  3.214643
C    -1.707899  -1.454372  3.830139
C    -2.533753  -1.789536  5.083052
C    -4.047274  -1.956023  4.820031
N    -4.783310  -2.430291  5.981640
C    -4.936963  -3.744790  6.329415
N    -5.659135  -4.041935  7.435459
N    -4.412645  -4.780717  5.693445
H    -0.658642  -1.731705  4.022435
H    -2.018197  -2.091033  2.987873
H    -2.372104  -1.043258  5.874766
H    -2.156502  -2.739333  5.488750
H    -4.216783  -2.651692  3.984914
H    -4.512822  -1.005777  4.522936
H    -5.123537  -1.725610  6.630016
H    -5.752935  -5.025597  7.670076
H    -6.230646  -3.371461  7.936588
H    -3.960433  -4.523246  4.810463
N    -1.710955  2.274874  4.260619
C    -1.280328  3.398574  5.091294
H    -2.479722  2.436790  3.615071
H    -1.887133  3.460909  6.004601
H    -1.398393  4.324004  4.518861
H    -0.232570  3.259230  5.373058
Hg    1.574103  -0.505809  4.597501
