36
Energy: -574587.657372 eV PBE+vdW (tier 2 basis)
C    -2.076712  2.247733  0.321083
C    -0.797359  1.805754  0.960929
O    0.283872  2.315543  0.563602
H    -2.908443  2.284101  1.030966
H    -2.326123  1.570150  -0.507945
H    -1.915786  3.242895  -0.108265
N    -0.763186  0.941032  2.023927
C    -1.441253  -0.352863  2.102456
C    -0.835542  -1.221755  0.942056
O    -0.465947  -0.643392  -0.100700
H    0.174391  0.913100  2.428904
H    -1.120004  -0.784984  3.062162
C    -2.982088  -0.351747  2.075221
C    -3.593965  0.410734  3.257681
C    -5.136209  0.331719  3.320878
N    -5.829696  1.046098  2.256457
C    -6.042137  2.394566  2.178412
N    -5.621167  3.205223  3.178097
N    -6.597257  2.991920  1.135119
H    -3.298840  -1.405309  2.117412
H    -3.347600  0.033221  1.114335
H    -3.269534  1.461958  3.244766
H    -3.221189  -0.008108  4.204816
H    -5.478587  0.712749  4.296342
H    -5.467976  -0.713268  3.273589
H    -6.260866  0.499407  1.517851
H    -5.873833  4.185617  3.087761
H    -5.380618  2.866605  4.102093
H    -6.952901  2.329002  0.435424
N    -0.739668  -2.537542  1.145656
C    -0.151377  -3.475900  0.191501
H    -1.058536  -2.915149  2.034915
H    -0.764435  -4.383721  0.158322
H    0.866972  -3.750534  0.499356
H    -0.124707  -3.009307  -0.796454
Hg    1.765790  0.710778  -0.466307
