36
Energy: -574589.601397 eV PBE+vdW (tier 2 basis)
C    0.882899  0.065822  0.177578
C    0.619884  0.035777  1.647949
O    1.652250  0.109827  2.404215
H    1.547604  -0.769537  -0.081838
H    1.418939  0.990790  -0.073705
H    -0.032661  0.000478  -0.420030
N    -0.655928  -0.074983  2.063208
C    -1.070266  -0.129421  3.466027
C    -0.797862  -1.520075  4.095527
O    0.166435  -1.602814  4.892227
H    -1.358327  -0.131247  1.329616
H    -0.334202  0.505289  3.967179
C    -2.388319  0.547349  3.883861
C    -2.255814  0.981159  5.369589
C    -1.361660  2.234370  5.525175
N    -0.564895  2.391320  6.766002
C    0.728655  2.006916  6.880783
N    1.619288  2.807029  7.466659
N    1.155688  0.774627  6.473070
H    -3.256405  -0.110336  3.762342
H    -2.565780  1.426678  3.245661
H    -1.859464  0.146651  5.966503
H    -3.252278  1.187527  5.777799
H    -1.988514  3.132346  5.464263
H    -0.656276  2.317707  4.682833
H    -0.872071  3.135602  7.389150
H    1.435434  3.787525  7.655692
H    2.487699  2.409823  7.814012
H    0.396238  0.087836  6.526064
N    -1.548760  -2.581497  3.796676
C    -2.706967  -2.703654  2.915291
H    -1.256095  -3.431042  4.281116
H    -3.634861  -2.787038  3.496290
H    -2.596071  -3.605075  2.301935
H    -2.787895  -1.846636  2.241723
Hg    1.752142  0.370182  4.521059
