36
Energy: -574587.495075 eV PBE+vdW (tier 2 basis)
C    -0.813246  -0.425442  -0.775712
C    -0.310227  -0.365410  0.622046
O    0.876108  -0.360364  0.906440
H    -1.551529  0.368551  -0.961110
H    -1.351215  -1.386810  -0.907630
H    0.018086  -0.343332  -1.480590
N    -1.276741  -0.377205  1.738351
C    -2.232026  0.727681  1.896854
C    -1.486496  2.030618  2.306429
O    -0.452038  2.009347  3.025529
H    -1.782860  -1.313179  1.789746
H    -2.738189  0.924437  0.937572
C    -3.287681  0.407280  2.999851
C    -4.749779  0.175130  2.572443
C    -5.184844  -1.255929  2.189035
N    -4.749544  -1.709804  0.875749
C    -3.619379  -2.402150  0.546302
N    -2.790867  -2.807439  1.618396
N    -3.179685  -2.633848  -0.649975
H    -3.294325  1.258137  3.696045
H    -2.917670  -0.437439  3.600457
H    -5.033370  0.866057  1.764201
H    -5.379849  0.451200  3.430306
H    -6.282675  -1.284287  2.186548
H    -4.869958  -1.969766  2.962556
H    -5.346555  -1.464468  0.090304
H    -2.173794  -3.551040  1.284446
H    -3.291253  -3.128615  2.447567
H    -3.812492  -2.316759  -1.390916
N    -2.001722  3.199232  1.936766
C    -3.221163  3.467111  1.170461
H    -1.503104  4.008890  2.307280
H    -3.193931  4.515311  0.858485
H    -4.121060  3.310521  1.778783
H    -3.270164  2.854393  0.262585
Hg    0.555497  -0.073128  3.361370
