36
Energy: -574588.007756 eV PBE+vdW (tier 2 basis)
C    -1.058634  0.235340  -0.738674
C    -0.926968  -0.152662  0.705557
O    0.149507  -0.649087  1.110344
H    -0.430619  1.118447  -0.923017
H    -2.091356  0.462706  -1.027146
H    -0.669758  -0.575350  -1.365669
N    -1.999439  0.048996  1.513985
C    -1.965327  -0.134093  2.958049
C    -1.810339  -1.622607  3.367673
O    -0.818453  -1.962278  4.068123
H    -2.801272  0.521472  1.105717
H    -1.035770  0.324445  3.335375
C    -3.134473  0.593426  3.652155
C    -3.042755  0.537286  5.186362
C    -3.982042  1.507870  5.911154
N    -5.386230  1.135451  5.795919
C    -6.457187  1.971108  5.980485
N    -6.247092  3.265146  6.312119
N    -7.714858  1.610980  5.789202
H    -4.101014  0.201858  3.303615
H    -3.085146  1.643833  3.324245
H    -2.022087  0.795892  5.504270
H    -3.214054  -0.486554  5.556436
H    -3.863553  2.521818  5.496591
H    -3.689668  1.557499  6.975656
H    -5.612539  0.145203  5.793261
H    -7.075461  3.848787  6.389494
H    -5.382851  3.611609  6.709721
H    -7.820595  0.611418  5.579794
N    -2.706337  -2.553346  3.030531
C    -3.990335  -2.432520  2.346457
H    -2.463192  -3.483827  3.374546
H    -4.150479  -3.344018  1.759792
H    -3.994047  -1.584094  1.659351
H    -4.816992  -2.337871  3.063733
Hg    1.263487  -1.072889  3.250297
