36
Energy: -574590.154296 eV PBE+vdW (tier 2 basis)
C    -1.408384  -0.974309  -0.279648
C    -0.901118  -1.024112  1.129581
O    0.303413  -0.983296  1.413803
H    -1.150983  0.006626  -0.703035
H    -2.490158  -1.124172  -0.367158
H    -0.881822  -1.727231  -0.878138
N    -1.841120  -1.115902  2.133806
C    -1.478366  -0.919262  3.533671
C    -0.836163  -2.207844  4.128852
O    -1.260912  -2.950616  5.122178
H    -2.816054  -1.222910  1.878815
H    -0.629248  -0.215149  3.520020
C    -2.600363  -0.226023  4.328960
C    -4.018293  -0.816275  4.228299
C    -5.067403  -0.197627  5.176761
N    -4.680765  0.074484  6.586414
C    -4.771655  -0.780466  7.633463
N    -5.231748  -0.326406  8.805165
N    -4.389979  -2.066679  7.506261
H    -2.628174  0.817487  3.982699
H    -2.276968  -0.144519  5.382716
H    -4.024730  -1.916598  4.326006
H    -4.424674  -0.649613  3.218811
H    -5.967641  -0.826391  5.172858
H    -5.362596  0.782392  4.783873
H    -4.727648  1.055367  6.846657
H    -5.058913  -0.823537  9.673477
H    -5.817072  0.501730  8.860608
H    -4.671007  -2.699116  8.253317
N    0.276121  -2.573045  3.552178
C    1.074575  -3.746065  3.906048
H    0.546184  -1.967583  2.726615
H    0.544758  -4.668091  3.634114
H    1.280700  -3.758047  4.982300
H    2.015061  -3.693083  3.352231
Hg    -2.798955  -2.545668  6.357903
