36
Energy: -574590.509861 eV PBE+vdW (tier 2 basis)
C    -1.151293  0.275400  -0.295152
C    -1.393642  -0.279447  1.075378
O    -1.010323  -1.489207  1.236731
H    -1.649371  -0.369301  -1.031610
H    -0.074768  0.234774  -0.508984
H    -1.506817  1.303842  -0.416774
N    -1.978446  0.532101  1.966924
C    -2.431906  0.381393  3.377059
C    -1.217167  0.213265  4.308965
O    -0.567329  -0.853198  4.332360
H    -2.174475  1.450498  1.578102
H    -2.900385  1.349674  3.600840
C    -3.533208  -0.689975  3.521336
C    -4.113315  -0.936937  4.927860
C    -3.314717  -1.811221  5.917582
N    -2.863848  -3.051292  5.270996
C    -1.673738  -3.666607  5.452069
N    -1.155600  -3.760592  6.680143
N    -1.048620  -4.154646  4.362489
H    -3.194151  -1.641063  3.080564
H    -4.356290  -0.369214  2.867946
H    -5.098605  -1.403995  4.783190
H    -4.324391  0.017824  5.431916
H    -3.963297  -2.026456  6.778838
H    -2.420828  -1.297619  6.294061
H    -3.412178  -3.401655  4.491108
H    -0.185685  -4.020369  6.825041
H    -1.752324  -3.713458  7.500361
H    -0.306737  -4.838881  4.503106
N    -0.916812  1.267331  5.075175
C    0.217825  1.319909  5.995899
H    -1.493088  2.100344  5.000114
H    -0.136463  1.422888  7.028941
H    0.853096  2.179088  5.750690
H    0.796325  0.398709  5.893065
Hg    -0.950949  -2.802304  2.831639
