36
Energy: -574589.705015 eV PBE+vdW (tier 2 basis)
C    0.310250  0.678350  -0.163038
C    0.086543  0.199128  1.229588
O    0.887078  -0.711853  1.742912
H    1.299152  1.152124  -0.247106
H    -0.452216  1.390294  -0.493753
H    0.316402  -0.190784  -0.836405
N    -0.952687  0.625608  1.905935
C    -1.507505  0.264140  3.219741
C    -3.037093  0.213937  2.884119
O    -3.416407  0.857882  1.900173
H    -1.726776  1.122062  1.396007
H    -1.120834  -0.710576  3.540711
C    -1.296963  1.394366  4.288807
C    -0.206009  1.217985  5.364256
C    1.153424  0.931583  4.736230
N    2.294941  0.929241  5.647814
C    3.586754  0.735142  5.299180
N    4.530183  0.905440  6.238248
N    3.956708  0.391428  4.047837
H    -2.248049  1.534902  4.818394
H    -1.133843  2.335464  3.743580
H    -0.471890  0.403309  6.054038
H    -0.171006  2.146863  5.952270
H    1.334042  1.675010  3.939142
H    1.045304  -0.075709  4.295072
H    2.098630  1.030780  6.639100
H    5.491027  0.622887  6.082674
H    4.331646  1.375982  7.114515
H    4.955124  0.389078  3.857868
N    -3.849537  -0.473166  3.698674
C    -3.481936  -1.292577  4.849865
H    -4.833821  -0.419421  3.444149
H    -2.771619  -2.084051  4.575793
H    -4.387111  -1.779693  5.222779
H    -3.068657  -0.690291  5.670973
Hg    2.654278  -0.232805  2.623476
