36
Energy: -574588.041381 eV PBE+vdW (tier 2 basis)
C    0.095497  -2.324798  0.218476
C    -0.155301  -1.426348  1.395889
O    0.714953  -0.584521  1.714334
H    0.101683  -1.714073  -0.694881
H    -0.654788  -3.117274  0.116854
H    1.092091  -2.771595  0.315024
N    -1.326970  -1.578281  2.064851
C    -1.772582  -0.702592  3.140015
C    -0.962173  -0.897133  4.449306
O    -0.305242  0.078029  4.908219
H    -1.970819  -2.278638  1.709451
H    -1.523965  0.331275  2.849937
C    -3.296546  -0.762072  3.359858
C    -4.086809  -0.057465  2.242951
C    -5.607811  -0.094265  2.429871
N    -6.054628  0.729860  3.544582
C    -7.251452  0.615239  4.203146
N    -8.151941  -0.308268  3.793877
N    -7.570350  1.313000  5.278667
H    -3.510787  -0.287412  4.328955
H    -3.628222  -1.807081  3.454552
H    -3.874505  -0.521456  1.268890
H    -3.755710  0.989783  2.149681
H    -5.945336  -1.127455  2.612558
H    -6.088411  0.240679  1.492719
H    -5.533130  1.578406  3.745224
H    -9.003834  -0.375936  4.343902
H    -8.152849  -0.718340  2.868144
H    -6.872008  2.025669  5.520755
N    -0.954946  -2.047449  5.124688
C    -1.731002  -3.268558  4.923563
H    -0.381088  -2.011059  5.968761
H    -1.161431  -4.102718  5.346648
H    -1.881624  -3.470378  3.860035
H    -2.699831  -3.216436  5.438175
Hg    0.969218  1.283366  3.278339
