36
Energy: -574589.61132 eV PBE+vdW (tier 2 basis)
C    0.259928  0.487940  0.527963
C    -0.060893  0.260466  1.960533
O    0.945351  0.312798  2.796569
H    -0.624433  0.735067  -0.066663
H    0.742640  -0.408723  0.111135
H    0.995638  1.299857  0.456396
N    -1.271673  0.005081  2.421950
C    -2.562942  -0.317654  1.814884
C    -3.543076  0.244738  2.891255
O    -3.085731  0.397728  4.043095
H    -1.524329  0.202024  3.433632
H    -2.691234  0.186662  0.847927
C    -2.761763  -1.850306  1.648827
C    -2.661536  -2.693242  2.949778
C    -1.304475  -3.400895  3.079268
N    -1.012291  -4.068113  4.367700
C    -0.330722  -3.512732  5.385763
N    0.454304  -4.250327  6.165494
N    -0.433185  -2.170056  5.720153
H    -2.047775  -2.211681  0.892650
H    -3.754319  -1.994068  1.201982
H    -3.453490  -3.452757  2.950848
H    -2.852927  -2.063071  3.830042
H    -0.479346  -2.698599  2.876466
H    -1.221208  -4.184770  2.315020
H    -1.077520  -5.084822  4.359295
H    0.750175  -3.867969  7.059809
H    0.706811  -5.211196  5.951403
H    -1.406866  -1.865132  5.600690
N    -4.801301  0.474396  2.526069
C    -5.843302  0.962683  3.432360
H    -5.050626  0.349289  1.548825
H    -6.653306  0.227342  3.505795
H    -6.247957  1.908701  3.054607
H    -5.401703  1.123536  4.418771
Hg    0.526813  -0.832856  4.484069
