36
Energy: -574589.123633 eV PBE+vdW (tier 2 basis)
C    -0.460737  0.255970  -0.456685
C    -0.490144  0.123029  1.037335
O    0.545967  0.472746  1.677338
H    -0.244998  1.303009  -0.709185
H    -1.400843  -0.041137  -0.933895
H    0.365411  -0.346155  -0.855627
N    -1.620155  -0.343673  1.602162
C    -2.004725  -0.321071  3.028342
C    -1.671274  -1.657462  3.712123
O    -0.519852  -1.820804  4.348702
H    -2.343113  -0.648759  0.955182
H    -1.411069  0.474372  3.503405
C    -3.495306  0.039560  3.127540
C    -3.968613  0.338102  4.555988
C    -5.447815  0.755664  4.568302
N    -5.946005  1.127970  5.896547
C    -6.690276  0.370949  6.715408
N    -7.309877  0.937609  7.760272
N    -6.825851  -0.945496  6.506404
H    -4.077683  -0.796123  2.707315
H    -3.668373  0.919673  2.489327
H    -3.366417  1.150854  4.991168
H    -3.821112  -0.543651  5.197083
H    -6.092723  -0.038391  4.166318
H    -5.602785  1.627321  3.917188
H    -5.736635  2.067781  6.218667
H    -7.697041  0.377688  8.510816
H    -7.443169  1.940249  7.817931
H    -7.547833  -1.477012  6.978168
N    -2.534588  -2.603578  3.738396
C    -2.306403  -3.967232  4.145030
H    -6.224558  -1.445913  5.866013
H    -3.089170  -4.594803  3.698447
H    -2.399312  -4.062567  5.238247
H    -1.318776  -4.341701  3.843325
Hg    1.113129  -0.603567  3.631291
