36
Energy: -574589.81559 eV PBE+vdW (tier 2 basis)
C    0.169598  -0.537511  -0.543764
C    -0.572569  0.076510  0.605613
O    -0.538510  1.311803  0.697385
H    -0.376982  -1.265809  -1.153105
H    0.702091  0.223464  -1.118362
H    -2.248470  3.738510  -0.478206
N    -1.259080  -0.667522  1.534794
C    -2.179531  -1.806371  1.349837
C    -1.438611  -3.149997  1.201534
O    -0.350529  -3.214508  0.597809
H    -1.511341  -0.074016  2.323551
H    -2.745207  -1.846743  2.291078
C    -3.178895  -1.576408  0.183568
C    -4.416511  -0.720779  0.511908
C    -4.227837  0.687070  1.105024
N    -3.452853  1.634910  0.297211
C    -3.956372  2.593778  -0.492183
N    -5.238662  2.579375  -0.879572
N    -3.152139  3.582889  -0.909244
H    -3.542926  -2.551260  -0.170185
H    -2.631520  -1.149741  -0.670031
H    -5.050300  -1.267696  1.227732
H    -5.012210  -0.651188  -0.411320
H    -3.738936  0.641571  2.087754
H    -5.216557  1.122445  1.307430
H    -2.444764  1.685523  0.477808
H    -5.660685  3.385294  -1.325381
H    -5.833744  1.776829  -0.724768
H    -3.439209  4.230468  -1.633164
N    -2.030623  -4.242028  1.705123
C    -3.297213  -4.347180  2.429090
H    -1.507755  -5.101807  1.546951
H    -3.284141  -3.755022  3.353980
H    -3.441350  -5.394300  2.709130
H    -4.150709  -4.046979  1.807276
Hg    1.748916  -1.846552  0.172726
