36
Energy: -574587.390777 eV PBE+vdW (tier 2 basis)
C    -2.388069  0.190186  -0.704901
C    -1.093005  0.199125  0.042454
O    -0.019403  0.357279  -0.609579
H    -2.200770  0.455564  -1.749439
H    -3.112315  0.886347  -0.267389
H    -2.819133  -0.823727  -0.685218
N    -1.034496  0.051838  1.388721
C    -1.838589  -0.879660  2.199502
C    -1.562135  -2.305963  1.661859
O    -0.542851  -2.557960  0.965652
H    -0.103496  0.231121  1.761591
H    -1.350983  -0.851163  3.187285
C    -3.320331  -0.462131  2.395039
C    -3.805998  -0.388903  3.856398
C    -3.850473  -1.682494  4.673752
N    -4.759996  -2.673151  4.091634
C    -4.898587  -3.972959  4.539542
N    -4.076557  -4.422274  5.516027
N    -5.721811  -4.851891  4.004846
H    -3.983705  -1.088940  1.780901
H    -3.427092  0.551573  1.991367
H    -4.810381  0.061938  3.854439
H    -3.175870  0.320481  4.412694
H    -4.165023  -1.432922  5.703223
H    -2.851643  -2.144511  4.752245
H    -5.589723  -2.306405  3.628419
H    -4.199763  -5.393493  5.791731
H    -3.590786  -3.809280  6.160359
H    -6.355245  -4.446408  3.305767
N    -2.412140  -3.279278  1.986569
C    -2.214152  -4.682516  1.613777
H    -3.280153  -3.032192  2.461470
H    -2.922413  -5.293813  2.180591
H    -1.190309  -4.992003  1.849446
H    -2.389348  -4.830870  0.540699
Hg    1.482834  -1.367728  -0.041106
