36
Energy: -574588.519735 eV PBE+vdW (tier 2 basis)
C    0.890047  -1.157276  1.301075
C    0.848292  -0.139206  2.392868
O    1.927373  0.301632  2.884294
H    1.085210  -0.660516  0.338582
H    -0.028685  -1.748599  1.233712
H    1.742492  -1.822130  1.488162
N    -0.330878  0.326815  2.880092
C    -1.513426  0.657841  2.090417
C    -1.407391  2.148586  1.677810
O    -0.238500  2.699619  1.463934
H    -0.229456  0.849555  3.751815
H    -1.432978  0.084472  1.153860
C    -2.828567  0.310308  2.822149
C    -3.764662  -0.640990  2.062828
C    -4.294037  -0.117239  0.719135
N    -5.039404  1.138849  0.814730
C    -6.369131  1.272532  0.866827
N    -7.170662  0.217862  1.066217
N    -6.915010  2.491613  0.718114
H    -3.353373  1.246603  3.065644
H    -2.576944  -0.156008  3.784387
H    -4.607606  -0.885857  2.726292
H    -3.253562  -1.596410  1.866235
H    -4.925861  -0.872316  0.233171
H    -3.470019  0.070561  0.015871
H    -4.454884  1.974715  0.901973
H    -6.812823  -0.670931  1.390131
H    -8.165900  0.275054  0.884626
H    -7.894249  2.656089  0.919127
N    -2.487651  2.797156  1.375410
C    -2.526433  4.227974  1.190812
H    -6.406932  3.237848  0.260524
H    -2.454736  4.463070  0.115567
H    -1.728017  4.758182  1.724112
H    -3.506341  4.599897  1.525388
Hg    1.685437  2.665009  2.662555
