36
Energy: -574588.611895 eV PBE+vdW (tier 2 basis)
C    -0.205640  0.299797  0.139759
C    -0.448086  0.502298  1.599668
O    0.568673  0.706296  2.396595
H    0.510351  1.041635  -0.234551
H    -1.130534  0.345889  -0.440687
H    0.248221  -0.692045  -0.021028
N    -1.680499  0.542125  2.071653
C    -1.943314  0.477453  3.484092
C    -1.010225  -0.426679  4.315867
O    -0.535758  -1.489781  3.815437
H    -3.490124  0.354787  0.868399
H    -1.806072  1.501086  3.884521
C    -3.433930  0.107597  3.685651
C    -3.801775  -1.197376  2.964219
C    -5.274401  -1.321880  2.567556
N    -5.882656  -0.156645  1.882743
C    -5.559614  0.373743  0.689418
N    -6.524385  0.937379  -0.053057
N    -4.297716  0.362763  0.235781
H    -4.020383  0.947538  3.285994
H    -3.670522  0.051423  4.756612
H    -3.571416  -2.070156  3.591064
H    -3.166915  -1.309898  2.071629
H    -5.891404  -1.462909  3.463527
H    -5.408838  -2.216752  1.942166
H    -6.808376  0.091924  2.216989
H    -6.306586  1.586189  -0.800767
H    -7.502815  0.718788  0.096350
H    -4.122538  0.636376  -0.724195
N    -0.756839  -0.088896  5.581852
C    -1.197598  1.098904  6.310391
H    -0.196059  -0.769114  6.094310
H    -0.623625  1.165958  7.238745
H    -2.264505  1.050654  6.562486
H    -1.002530  2.008999  5.725366
Hg    1.675640  -1.128870  2.968312
