36
Energy: -574588.630419 eV PBE+vdW (tier 2 basis)
C    0.493784  -3.865868  0.425591
C    0.715868  -2.413091  0.556361
O    1.830865  -1.993412  1.036084
H    -0.549653  -4.099824  0.191806
H    0.860388  -4.408576  1.303301
H    1.092478  -4.201611  -0.442265
N    -0.214669  -1.510693  0.071732
C    -1.393378  -1.142383  0.933841
C    -1.590049  -2.204576  2.033916
O    -0.731452  -2.216980  2.942560
H    0.264438  -0.649773  -0.207574
H    -0.988241  -0.328688  1.548744
C    -2.595797  -0.517230  0.234754
C    -3.448665  0.314235  1.226108
C    -2.831748  1.597791  1.833277
N    -1.723798  1.329285  2.780294
C    -0.437039  1.682630  2.676912
N    -0.007921  2.523539  1.724655
N    0.544783  1.141381  3.490011
H    -3.231364  -1.269262  -0.256904
H    -2.235143  0.127468  -0.582043
H    -4.352701  0.648862  0.698206
H    -3.817535  -0.323340  2.045626
H    -3.614732  2.148855  2.371000
H    -2.468877  2.258919  1.036998
H    -1.928033  0.649919  3.511331
H    -0.649569  3.052946  1.145047
H    0.922663  2.915088  1.841093
H    0.157499  0.734129  4.346821
N    -2.638780  -3.027230  1.966336
C    -2.933400  -4.066140  2.954963
H    -3.263563  -2.943342  1.169107
H    -2.888688  -5.055907  2.484393
H    -3.937584  -3.914615  3.367947
H    -2.191725  -4.008057  3.755424
Hg    1.412111  -0.442819  2.434077
