36
Energy: -574589.941404 eV PBE+vdW (tier 2 basis)
C    -0.827546  1.537740  0.392101
C    -0.960570  0.048626  0.263527
O    -0.087167  -0.711746  -0.093312
H    -1.480078  2.051953  -0.329331
H    0.208472  1.816538  0.182165
H    -1.096390  1.889622  1.398586
N    -2.219269  -0.549721  0.624868
C    -3.498839  0.117680  0.819926
C    -3.554072  0.769396  2.219634
O    -2.931492  0.295338  3.242754
H    -2.290899  -1.461291  0.169728
H    -3.634964  0.931806  0.089113
C    -4.666162  -0.887195  0.590709
C    -4.779582  -2.133251  1.503230
C    -4.201481  -3.495114  1.057746
N    -2.772099  -3.622103  0.641142
C    -1.751239  -4.047080  1.444613
N    -0.882030  -4.940959  0.962680
N    -1.616765  -3.558382  2.687994
H    -4.615177  -1.188724  -0.466707
H    -5.598810  -0.314954  0.682168
H    -5.853591  -2.348172  1.612496
H    -4.483929  -1.900532  2.540458
H    -4.771594  -3.838690  0.185853
H    -4.389648  -4.219028  1.862051
H    -2.660939  -3.912482  -0.327138
H    -1.114174  -5.547136  0.181799
H    0.032706  -5.070458  1.384336
H    -0.952974  -4.035780  3.294728
N    -4.279912  1.857056  2.368041
C    -4.484353  2.582337  3.627840
H    -4.706428  2.248044  1.529983
H    -5.481664  3.032035  3.612135
H    -3.731811  3.374494  3.732144
H    -4.401314  1.889515  4.469049
Hg    -2.074120  -1.594576  3.000732
