36
Energy: -574587.564148 eV PBE+vdW (tier 2 basis)
C    -0.521847  2.065625  -0.611583
C    -0.510697  2.029642  0.881972
O    0.184726  2.875702  1.515828
H    0.439032  2.460811  -0.962182
H    -1.295638  2.767809  -0.959163
H    -0.693943  1.069026  -1.037725
N    -1.203867  1.090002  1.566256
C    -2.580251  0.673399  1.284985
C    -3.459055  1.740866  1.990861
O    -3.024574  2.291139  3.040904
H    -1.016305  1.110273  2.570476
H    -2.728449  0.691231  0.199108
C    -2.777478  -0.746843  1.869211
C    -4.038718  -1.534451  1.496978
C    -4.127317  -2.076332  0.052593
N    -3.029648  -2.956646  -0.322399
C    -1.878893  -2.562859  -0.944894
N    -0.829278  -3.414214  -0.969732
N    -1.695583  -1.373025  -1.510733
H    -2.739164  -0.661509  2.966287
H    -1.881840  -1.317971  1.583890
H    -4.952467  -0.955113  1.693007
H    -4.096217  -2.391981  2.182865
H    -4.189825  -1.262894  -0.683461
H    -5.057969  -2.649089  -0.053216
H    -3.066777  -3.901755  0.053927
H    -0.052379  -3.174369  -1.577229
H    -0.880395  -4.367973  -0.629111
H    -2.596329  -0.911241  -1.674774
N    -4.667876  2.076320  1.529850
C    -5.427391  1.561020  0.397718
H    -5.128435  2.792223  2.096175
H    -4.788969  0.967807  -0.261474
H    -5.829584  2.406576  -0.173897
H    -6.269941  0.944796  0.738950
Hg    -0.938667  3.721016  3.438112
