36
Energy: -574589.543555 eV PBE+vdW (tier 2 basis)
C    -1.008118  -0.889419  1.349222
C    -1.096484  -0.195118  2.696796
O    -0.576284  -0.727679  3.706054
H    -1.341880  -0.260774  0.519123
H    -1.600768  -1.812766  1.375854
H    0.041043  -1.171274  1.196829
N    -1.686302  1.005478  2.779687
C    -2.680114  1.659985  1.997912
C    -2.980579  3.074511  2.641369
O    -2.758594  3.347760  3.841861
H    -1.349051  -2.689940  4.015284
H    -2.272518  1.899822  0.998019
C    -3.987931  0.833594  1.845369
C    -4.730704  0.466054  3.153746
C    -4.915335  -1.034425  3.409905
N    -3.644082  -1.675113  3.767683
C    -3.359783  -2.989199  3.725057
N    -4.307265  -3.883999  3.422099
N    -2.098458  -3.380155  3.950173
H    -3.719537  -0.076404  1.290400
H    -4.664857  1.387603  1.181349
H    -5.735840  0.905289  3.136076
H    -4.248233  0.917394  4.034941
H    -5.311549  -1.522316  2.506658
H    -5.650316  -1.171717  4.218703
H    -2.951957  -1.102011  4.239120
H    -4.075478  -4.858503  3.266739
H    -5.291285  -3.651392  3.475460
H    -1.871629  -4.350344  4.134434
N    -3.535290  3.955249  1.816942
C    -3.963373  5.296922  2.225623
H    -3.697735  3.677242  0.852980
H    -4.955488  5.263647  2.693370
H    -4.003218  5.931894  1.336127
H    -3.243542  5.707788  2.940394
Hg    -1.261186  1.697903  4.803066
