36
Energy: -574588.618547 eV PBE+vdW (tier 2 basis)
C    -0.152622  1.517025  -0.793729
C    -0.024423  1.279366  0.673792
O    1.031494  1.632135  1.276871
H    -0.388673  2.575287  -0.980994
H    -0.909746  0.877718  -1.258884
H    0.823648  1.329223  -1.258804
N    -1.017545  0.679380  1.380474
C    -2.444616  0.966508  1.266887
C    -2.725761  2.228540  2.118037
O    -1.971429  2.508059  3.154417
H    -0.732841  0.418905  2.326433
H    -2.673430  1.205644  0.220057
C    -3.250910  -0.285446  1.690239
C    -4.760925  -0.243307  1.398258
C    -5.622006  0.203469  2.591421
N    -7.041862  0.327757  2.256260
C    -7.602762  1.399544  1.678455
N    -8.924962  1.420582  1.456908
N    -6.849247  2.450553  1.329104
H    -3.065337  -0.491987  2.756803
H    -2.804986  -1.121275  1.135395
H    -5.085170  -1.250228  1.102423
H    -4.957897  0.398973  0.526569
H    -5.280098  1.159007  3.011307
H    -5.553757  -0.530042  3.404717
H    -7.628902  -0.488602  2.391026
H    -9.364288  2.172108  0.939921
H    -9.536481  0.700951  1.822678
H    -7.284947  3.299420  0.991361
N    -3.791933  2.927811  1.875479
C    -3.971120  4.265235  2.389094
H    -5.828777  2.439428  1.404576
H    -4.480949  4.867248  1.621470
H    -3.035074  4.752107  2.687050
H    -4.649484  4.240467  3.259102
Hg    0.283778  2.757902  3.228880
