36
Energy: -574587.9122 eV PBE+vdW (tier 2 basis)
C    0.163573  0.279767  -0.297718
C    0.048855  0.003636  1.167448
O    1.072587  -0.379697  1.800205
H    0.546265  1.300829  -0.448906
H    -0.791599  0.160116  -0.819962
H    0.908270  -0.401504  -0.726207
N    -1.132234  0.134711  1.818065
C    -2.082785  1.232419  1.634677
C    -1.610536  2.354697  2.592015
O    -0.893772  2.075249  3.588952
H    -1.079120  -0.164103  2.793632
H    -2.018147  1.574665  0.593115
C    -3.520808  0.767051  1.952371
C    -4.013462  -0.298767  0.968735
C    -5.341587  -0.984770  1.346289
N    -6.524961  -0.129834  1.320946
C    -7.266186  0.096021  0.190769
N    -8.488935  0.665809  0.327114
N    -6.704661  -0.260364  -0.950640
H    -4.186908  1.641717  1.942093
H    -3.534894  0.382282  2.985741
H    -3.268795  -1.105564  0.897041
H    -4.123582  0.122901  -0.041634
H    -5.279528  -1.404535  2.359864
H    -5.506256  -1.810638  0.644699
H    -6.892193  0.199063  2.208896
H    -9.031212  0.888825  -0.499427
H    -8.983241  0.700645  1.212825
H    -7.292580  -0.037734  -1.762176
N    -1.989372  3.620461  2.382964
C    -2.920112  4.155181  1.395754
H    -1.629166  4.275217  3.079062
H    -2.982501  3.502501  0.519869
H    -2.557632  5.136317  1.068731
H    -3.923320  4.282846  1.826115
Hg    1.295890  0.714921  3.920079
