36
Energy: -574587.714345 eV PBE+vdW (tier 2 basis)
C    -0.114469  -1.217829  0.922452
C    -0.038045  -0.604792  2.282389
O    0.927237  -0.909279  3.038911
H    0.485004  -0.614128  0.222713
H    -1.143736  -1.296515  0.557565
H    0.347779  -2.211534  0.956509
N    -0.988424  0.259118  2.719832
C    -1.602930  1.327396  1.938872
C    -0.563762  2.467194  1.748161
O    0.564028  2.473025  2.324979
H    -0.918224  0.465189  3.717533
H    -1.833622  0.940611  0.934471
C    -2.907798  1.793879  2.614086
C    -4.130454  0.911125  2.266718
C    -5.370036  1.714843  1.795855
N    -5.056488  2.814721  0.882030
C    -4.209590  2.747693  -0.191404
N    -4.052979  1.554920  -0.821526
N    -3.426439  3.750605  -0.554916
H    -3.090983  2.832278  2.312038
H    -2.750669  1.838026  3.701791
H    -4.455046  0.316477  3.129788
H    -3.847951  0.181399  1.496514
H    -5.883040  2.173563  2.648839
H    -6.095629  1.024587  1.335009
H    -5.259503  3.754156  1.211486
H    -3.531672  1.596264  -1.693306
H    -4.807695  0.876122  -0.799954
H    -3.704473  4.642162  -0.129130
N    -0.869921  3.440847  0.899128
C    0.010028  4.580284  0.623991
H    -1.734984  3.381227  0.325075
H    -0.549138  5.302193  0.022572
H    0.896877  4.259358  0.062619
H    0.333621  5.047301  1.560667
Hg    1.709630  1.106768  4.015113
