36
Energy: -574590.072609 eV PBE+vdW (tier 2 basis)
C    0.372989  0.911654  0.715565
C    -0.629607  0.421379  1.715597
O    -0.609787  -0.839328  1.934329
H    0.192653  0.418560  -0.248622
H    1.374198  0.602878  1.047183
H    0.361540  1.998247  0.580387
N    -1.412827  1.341224  2.295832
C    -2.375068  1.372494  3.435257
C    -1.998852  0.395562  4.563418
O    -2.401907  -0.790382  4.561696
H    -1.242829  2.271552  1.920444
H    -2.220043  2.381213  3.840367
C    -3.869299  1.370460  3.017839
C    -4.492758  0.183178  2.253764
C    -5.286256  -0.807592  3.132763
N    -5.668639  -2.024847  2.395087
C    -4.841437  -3.053166  2.154106
N    -5.054785  -3.883388  1.133237
N    -3.747095  -3.328001  2.953298
H    -4.000759  2.273491  2.405618
H    -4.442104  1.569496  3.937144
H    -3.718088  -0.349364  1.673948
H    -5.172540  0.583897  1.489424
H    -6.215658  -0.343678  3.483683
H    -4.718165  -1.085077  4.027363
H    -6.555020  -1.998320  1.894365
H    -4.569925  -4.775881  1.129371
H    -5.771051  -3.727236  0.430932
H    -3.949078  -3.059129  3.922113
N    -1.262160  0.868872  5.573382
C    -0.724139  2.216025  5.783264
H    -1.082908  0.179806  6.303391
H    -0.069909  2.183467  6.659103
H    -1.521039  2.943873  5.985549
H    -0.119442  2.544835  4.929555
Hg    -2.120514  -2.141727  2.520632
