36
Energy: -574590.302909 eV PBE+vdW (tier 2 basis)
C    -0.241005  2.509259  0.219172
C    -0.467602  1.059012  0.613633
O    0.387702  0.231683  0.298871
H    0.830358  2.716468  0.167122
H    -0.733240  2.806563  -0.715858
H    1.210817  -2.392348  -1.693003
N    -1.557011  0.688523  1.374656
C    -2.946775  1.161427  1.245670
C    -3.430054  1.798648  2.577108
O    -2.937392  2.892045  2.993636
H    -1.465384  -0.265364  1.722418
H    -2.949596  1.994021  0.525448
C    -3.830021  0.053429  0.638156
C    -3.308441  -0.463439  -0.726229
C    -2.529813  -1.787676  -0.634523
N    -2.024083  -2.233420  -1.933609
C    -0.743345  -2.497266  -2.257040
N    -0.496377  -3.236423  -3.349832
N    0.275326  -2.040538  -1.525306
H    -4.843425  0.457272  0.509277
H    -3.915970  -0.793234  1.341097
H    -2.681528  0.298601  -1.214005
H    -4.167973  -0.613148  -1.393762
H    -3.184554  -2.576039  -0.231781
H    -1.674860  -1.718211  0.047071
H    -2.719403  -2.490153  -2.628186
H    0.430959  -3.280691  -3.755436
H    -1.212685  -3.810710  -3.777682
H    0.192240  -1.279271  -0.844666
N    -4.376074  1.197235  3.284067
C    -4.901698  1.733191  4.544970
H    -4.777394  0.335869  2.928775
H    -4.093132  1.835653  5.277753
H    -5.657025  1.041486  4.925646
H    -5.355119  2.717349  4.377776
Hg    -1.179300  3.657529  1.753968
