36
Energy: -574590.025901 eV PBE+vdW (tier 2 basis)
C    -0.672030  2.664998  -1.007458
C    -0.203080  2.169625  0.319682
O    1.098334  2.109851  0.436071
H    -0.305371  3.687958  -1.166987
H    -1.762838  2.642934  -1.094876
H    -0.231647  2.039500  -1.796527
N    -1.091057  1.817537  1.221951
C    -1.023927  1.143938  2.526777
C    -2.453381  0.499202  2.611015
O    -3.358194  1.061017  1.993161
H    -2.104157  1.908218  0.985147
H    -0.242059  0.367949  2.505380
C    -0.826613  2.175843  3.668310
C    -0.750218  1.680484  5.122886
C    0.306946  0.618805  5.484494
N    1.610320  0.802350  4.825092
C    2.486501  1.822675  4.963412
N    2.601856  2.470979  6.123448
N    3.214405  2.159217  3.877736
H    -1.660274  2.890124  3.602941
H    0.068287  2.782865  3.442030
H    -1.723477  1.278491  5.438443
H    -0.592125  2.573650  5.743722
H    -0.014439  -0.386756  5.187073
H    0.421032  0.568864  6.576641
H    1.895168  0.089374  4.162340
H    3.111203  3.346334  6.192254
H    2.312183  2.038407  6.995662
H    4.052548  2.724588  4.004969
N    -2.602687  -0.582777  3.389013
C    -3.895838  -1.251624  3.567851
H    -1.775753  -1.054831  3.736471
H    -4.029984  -2.048840  2.825556
H    -4.693205  -0.513687  3.443926
H    -3.944027  -1.679069  4.574338
Hg    2.210898  2.117655  2.116860
