36
Energy: -574589.69997 eV PBE+vdW (tier 2 basis)
C    -0.156311  0.401265  -0.277830
C    -0.091183  0.128281  1.180485
O    1.094456  -0.101851  1.676035
H    -0.075604  -0.546827  -0.831694
H    0.717908  1.001686  -0.561929
H    -1.074423  0.918575  -0.571695
N    -1.158469  0.107986  1.967124
C    -2.586760  -0.038146  1.691272
C    -3.252915  0.480867  2.991586
O    -2.588875  0.451395  4.045590
H    -1.057791  0.181754  3.000387
H    -2.881426  0.597421  0.845178
C    -2.973217  -1.517513  1.363290
C    -2.200193  -2.682127  2.021021
C    -2.562220  -3.230810  3.416929
N    -2.250931  -2.421873  4.610911
C    -1.055601  -2.062685  5.086072
N    -0.971076  -1.065385  5.973901
N    0.137563  -2.644146  4.704486
H    -2.837280  -1.637687  0.279380
H    -4.053799  -1.631373  1.534763
H    -1.115298  -2.505263  1.947913
H    -2.361207  -3.548040  1.361143
H    -2.088607  -4.216769  3.527900
H    -3.640855  -3.421769  3.472695
H    -3.050726  -2.036869  5.107110
H    -1.733034  -0.406197  6.104678
H    -0.149238  -0.993092  6.564704
H    0.029272  -3.580743  4.308631
N    -4.512792  0.906596  2.889338
C    -5.303198  1.418161  4.010100
H    -4.945850  0.916734  1.970047
H    -5.817417  2.334260  3.700687
H    -4.631980  1.645286  4.842447
H    -6.050645  0.680298  4.328583
Hg    0.977960  -1.384949  3.311147
