36
Energy: -574589.6455 eV PBE+vdW (tier 2 basis)
C    -0.054554  1.294708  -1.332846
C    -0.962277  1.725927  -0.224606
O    -1.706811  2.732959  -0.442252
H    0.624214  2.123679  -1.575578
H    -0.652374  1.097929  -2.232266
H    0.533708  0.405097  -1.083252
N    -0.924080  1.025331  0.931219
C    -1.742562  1.330027  2.103030
C    -1.202115  2.602982  2.811461
O    -1.708480  3.723527  2.542104
H    -0.256324  0.259929  0.979934
H    -2.716235  1.624128  1.698064
C    -2.120294  0.174321  3.036988
C    -3.227068  0.678178  4.001961
C    -4.702409  0.314286  3.722449
N    -5.259714  0.446243  2.356808
C    -5.380499  1.516007  1.546128
N    -5.795240  1.303698  0.276409
N    -5.074814  2.785948  1.888336
H    -1.257205  -0.191427  3.611516
H    -2.467126  -0.675978  2.432788
H    -3.130334  1.766846  4.131367
H    -3.042836  0.270379  5.004881
H    -5.332659  0.873412  4.430311
H    -4.852285  -0.745578  3.959589
H    -5.791276  -0.369507  2.062778
H    -6.254447  2.068524  -0.207908
H    -5.994078  0.370285  -0.066205
H    -4.959670  2.944656  2.888976
N    -0.186848  2.470403  3.658523
C    0.460459  3.591947  4.346612
H    0.148199  1.535089  3.870473
H    0.044185  3.715993  5.354434
H    0.294078  4.507569  3.773165
H    1.533523  3.389885  4.421984
Hg    -3.360870  3.510362  0.832845
