36
Energy: -574587.891131 eV PBE+vdW (tier 2 basis)
C    -1.764135  1.621137  0.574269
C    -1.341665  1.476168  2.008442
O    -0.381125  2.200752  2.393909
H    -2.415335  2.504673  0.496372
H    -2.320688  0.744450  0.221419
H    -0.884355  1.785758  -0.055029
N    -2.035148  0.616819  2.779370
C    -2.076644  0.566277  4.246725
C    -1.076477  -0.479533  4.796172
O    0.169843  -0.344893  4.596387
H    -2.801685  0.132899  2.306083
H    -1.679896  1.528530  4.614814
C    -3.528927  0.477236  4.749597
C    -4.422280  -0.699906  4.270617
C    -5.518674  -0.353616  3.247541
N    -5.044979  -0.214239  1.863152
C    -5.175633  0.949018  1.121483
N    -5.220241  0.810533  -0.232100
N    -5.131101  2.171170  1.592587
H    -4.006006  1.433742  4.491372
H    -3.486481  0.487005  5.848273
H    -4.948196  -1.107521  5.145708
H    -3.829427  -1.536445  3.865356
H    -6.043170  0.565392  3.541220
H    -6.273734  -1.151901  3.259886
H    -5.074128  -1.078853  1.325325
H    -5.305911  1.672153  -0.764277
H    -5.562849  -0.034647  -0.677006
H    -5.172422  2.213375  2.614517
N    -1.510479  -1.518275  5.495728
C    -0.634448  -2.531092  6.091645
H    -2.512698  -1.653964  5.584701
H    -1.144412  -2.965978  6.956094
H    0.302952  -2.061566  6.404644
H    -0.410058  -3.322085  5.364167
Hg    1.064515  1.732457  4.120104
