36
Energy: -574587.931649 eV PBE+vdW (tier 2 basis)
C    -0.041502  -1.116984  0.035082
C    -0.053208  -0.902345  1.523391
O    0.963452  -1.281415  2.169759
H    -0.612855  -2.032252  -0.187433
H    0.985996  -1.243391  -0.315626
H    -0.507934  -0.274353  -0.493106
N    -1.166026  -0.348488  2.044858
C    -1.685990  -0.328817  3.429551
C    -1.149932  0.886671  4.218799
O    0.045923  0.997120  4.618219
H    -1.872186  -0.120760  1.349853
H    -2.759574  -0.149740  3.283073
C    -1.537253  -1.670557  4.189369
C    -2.801720  -2.154949  4.913905
C    -4.011557  -2.494429  4.005362
N    -3.680389  -3.396783  2.914576
C    -3.429483  -3.030994  1.613009
N    -4.013251  -1.865185  1.153495
N    -2.603346  -3.653913  0.818802
H    -0.737474  -1.599784  4.946589
H    -1.199747  -2.435522  3.477900
H    -3.146467  -1.418357  5.655744
H    -2.530277  -3.050174  5.491498
H    -4.461365  -1.588309  3.584629
H    -4.786193  -2.963179  4.630219
H    -3.345386  -4.322586  3.172956
H    -3.919345  -1.781003  0.142389
H    -4.966213  -1.683470  1.461670
H    -2.250562  -4.542918  1.187589
N    -2.012598  1.857966  4.491481
C    -1.659267  3.074555  5.232279
H    -2.960203  1.777678  4.136071
H    -2.581627  3.596411  5.499477
H    -1.033250  3.729931  4.613900
H    -1.108853  2.808863  6.141235
Hg    1.652363  -0.624976  4.264907
