36
Energy: -574587.732065 eV PBE+vdW (tier 2 basis)
C    0.480894  2.450630  1.479138
C    0.059629  1.205337  2.191755
O    0.856848  0.661036  3.002795
H    1.561046  2.400891  1.295742
H    0.313505  3.321859  2.131055
H    -0.047656  2.589859  0.530259
N    -1.157079  0.643121  1.964795
C    -2.416424  1.389343  1.896330
C    -2.806166  1.704279  3.358441
O    -2.487559  0.901656  4.273805
H    -1.269126  -0.250836  2.447374
H    -2.250875  2.312763  1.325749
C    -3.516665  0.514978  1.253954
C    -3.256941  0.113657  -0.205749
C    -3.710329  1.124596  -1.280663
N    -5.156670  1.270407  -1.367833
C    -5.911779  2.222467  -0.744753
N    -7.252951  2.067869  -0.708214
N    -5.422542  3.306555  -0.145678
H    -4.484243  1.025963  1.358881
H    -3.607417  -0.393178  1.870047
H    -3.761478  -0.842954  -0.400852
H    -2.184742  -0.080031  -0.363478
H    -3.358878  0.781991  -2.262814
H    -3.256622  2.112894  -1.123397
H    -5.647221  0.520026  -1.850527
H    -7.803716  2.861330  -0.396644
H    -7.740642  1.305809  -1.165577
H    -4.433221  3.433415  -0.384080
N    -3.538126  2.791922  3.639364
C    -4.071622  3.778423  2.715808
H    -3.776121  2.886405  4.627941
H    -3.264194  4.281858  2.165991
H    -4.619153  4.530323  3.290362
H    -4.774335  3.344631  1.975077
Hg    -0.203082  0.073903  5.084027
