36
Energy: -574590.158327 eV PBE+vdW (tier 2 basis)
C    -0.630311  -0.374658  0.941217
C    -1.113008  0.099676  2.279002
O    -0.925360  1.230237  2.718085
H    -0.890250  0.369486  0.179379
H    -1.025909  -1.354830  0.651269
H    0.466866  -0.432195  0.967550
N    -1.795313  -0.843355  3.061823
C    -2.350496  -0.374152  4.302105
C    -1.662820  -0.855221  5.575096
O    -1.559173  -0.032952  6.586102
H    -2.142749  -1.685384  2.615235
H    -2.022859  0.691671  4.252992
C    -3.896774  -0.424205  4.401271
C    -4.585480  0.543885  3.424534
C    -4.400725  2.049073  3.659477
N    -5.169005  2.579577  4.811512
C    -4.756040  3.495919  5.714781
N    -5.630960  4.408226  6.159555
N    -3.494035  3.498920  6.191770
H    -4.217855  -0.217841  5.437507
H    -4.243666  -1.448389  4.200073
H    -5.660243  0.310140  3.404978
H    -4.230090  0.343050  2.403257
H    -4.745990  2.584591  2.762847
H    -3.346075  2.331764  3.776556
H    -6.179554  2.530878  4.698415
H    -5.473703  4.917143  7.023412
H    -6.453772  4.661467  5.621468
H    -3.193257  4.336704  6.684597
N    -1.135417  -2.043194  5.756861
C    -1.152796  -3.210530  4.867067
H    -0.659701  -2.163042  6.653330
H    -0.952840  -4.093996  5.480304
H    -0.376290  -3.125274  4.098356
H    -2.137668  -3.333512  4.406139
Hg    -2.449047  1.792751  6.423450
