36
Energy: -574588.349749 eV PBE+vdW (tier 2 basis)
C    -2.769686  -1.985514  0.899909
C    -1.870811  -1.264036  1.864737
O    -0.623197  -1.401538  1.644646
H    -2.569621  -1.619594  -0.116471
H    -3.825999  -1.834990  1.153434
H    -2.522497  -3.054524  0.909518
N    -2.448641  -0.550882  2.839826
C    -1.782207  0.397166  3.736537
C    -1.226874  -0.322753  4.991562
O    -0.017416  -0.713581  5.048127
H    -3.518843  -0.626496  2.885007
H    -0.885353  0.788238  3.224169
C    -2.668708  1.615125  4.068859
C    -2.897663  2.588924  2.883481
C    -4.370750  2.761913  2.460996
N    -4.921705  1.492629  1.998507
C    -5.679339  0.628877  2.769096
N    -6.759426  1.155295  3.387695
N    -5.239650  -0.608403  2.857372
H    -2.176033  2.157260  4.886957
H    -3.634708  1.269751  4.470339
H    -2.318146  2.268484  2.003196
H    -2.510444  3.582827  3.145416
H    -4.433075  3.508412  1.656400
H    -4.980586  3.130316  3.294941
H    -4.353651  1.000608  1.313670
H    -7.322515  0.581130  4.004263
H    -7.204357  1.988962  3.018054
H    -5.894097  -1.242183  3.325341
N    -2.027355  -0.532536  6.023123
C    -1.621219  -1.211205  7.258922
H    -2.958952  -0.128043  5.988683
H    -2.516269  -1.604127  7.749076
H    -1.114140  -0.509043  7.933089
H    -0.937867  -2.031137  7.017567
Hg    1.064707  -0.849737  3.042363
