36
Energy: -574587.862034 eV PBE+vdW (tier 2 basis)
C    1.035996  -0.517749  0.219753
C    0.307403  -0.768336  1.512155
O    0.575680  -1.848859  2.112751
H    0.741655  0.428077  -0.249683
H    0.843352  -1.353481  -0.465067
H    2.115604  -0.508299  0.418749
N    -0.548133  0.184072  1.915342
C    -1.499925  0.208317  3.040487
C    -0.755216  0.274447  4.402335
O    -0.522062  -0.738990  5.121442
H    -0.647272  0.969362  1.258687
H    -1.992261  1.183521  2.942377
C    -2.611302  -0.859802  3.017932
C    -3.357115  -1.076895  1.691905
C    -4.314246  0.041869  1.218593
N    -3.662179  1.279436  0.805634
C    -2.661979  1.389630  -0.135948
N    -2.572613  0.429247  -1.087604
N    -1.706847  2.293111  -0.054067
H    -3.316393  -0.609913  3.825369
H    -2.199936  -1.848389  3.296658
H    -3.984405  -1.970788  1.815235
H    -2.645324  -1.325303  0.892547
H    -5.025848  0.307064  2.010131
H    -4.921070  -0.359795  0.389437
H    -3.866088  2.124038  1.329846
H    -1.896384  0.606746  -1.824578
H    -3.396096  -0.094282  -1.364418
H    -1.934252  3.058756  0.588544
N    -0.381485  1.467588  4.859337
C    -0.620369  2.791059  4.280462
H    0.094606  1.435844  5.761916
H    -0.214236  2.860208  3.264344
H    -0.096602  3.523942  4.901079
H    -1.688121  3.048879  4.289643
Hg    -0.063407  -2.773582  4.124161
