36
Energy: -574589.418964 eV PBE+vdW (tier 2 basis)
C    -0.791840  -0.742525  2.213519
C    -1.108871  0.097652  3.434856
O    -0.480327  -0.121346  4.493902
H    0.169646  -0.398471  1.807137
H    -1.558218  -0.668844  1.435026
H    -0.655314  -1.783133  2.527127
N    -2.092888  1.021685  3.395439
C    -2.524322  1.860944  2.323310
C    -2.036686  3.343838  2.579770
O    -1.779504  3.771580  3.727718
H    -4.133607  -2.445002  1.086463
H    -2.041717  1.545198  1.382888
C    -4.060881  1.884173  2.168090
C    -4.735297  0.569676  1.733810
C    -4.888031  -0.495890  2.837088
N    -5.994802  -1.431137  2.586886
C    -5.912971  -2.673416  2.090575
N    -6.951672  -3.509368  2.219073
N    -4.795914  -3.098744  1.481082
H    -4.325407  2.652634  1.429789
H    -4.493764  2.226297  3.121741
H    -4.222889  0.148671  0.853430
H    -5.744809  0.833227  1.386280
H    -5.108544  -0.009362  3.796894
H    -3.974231  -1.080956  2.996415
H    -6.924996  -1.111968  2.840854
H    -7.025827  -4.349951  1.657515
H    -7.699229  -3.329914  2.879378
H    -4.667180  -4.079157  1.259621
N    -1.941498  4.165383  1.532012
C    -2.204826  3.915762  0.117357
H    -1.680071  5.118365  1.784357
H    -2.009050  2.872295  -0.149161
H    -1.526753  4.541375  -0.472514
H    -3.238613  4.172572  -0.150297
Hg    -1.577068  1.973429  5.341424
