36
Energy: -574587.835084 eV PBE+vdW (tier 2 basis)
C    0.699024  0.238212  0.834087
C    0.377395  -0.027621  2.279714
O    1.302291  -0.543099  2.976405
H    1.527418  0.957356  0.782969
H    -0.160722  0.634118  0.281695
H    1.052356  -0.691047  0.369829
N    -0.842341  0.326634  2.704521
C    -1.501544  0.069681  3.997116
C    -0.792714  0.842952  5.142024
O    -0.002191  0.300775  5.968071
H    -1.496168  0.623131  1.960181
H    -2.473330  0.568153  3.888864
C    -1.778813  -1.424582  4.313750
C    -3.252450  -1.757226  4.635247
C    -4.150195  -2.130110  3.430305
N    -4.321551  -1.063506  2.451012
C    -3.491562  -0.802300  1.386454
N    -2.788129  -1.834297  0.850240
N    -3.240263  0.418633  0.957678
H    -1.184905  -1.728679  5.190433
H    -1.424348  -2.035721  3.473283
H    -3.714783  -0.934593  5.203575
H    -3.283187  -2.627004  5.306454
H    -5.147560  -2.394839  3.808599
H    -3.757147  -3.025291  2.934008
H    -4.926709  -0.292558  2.722483
H    -2.329555  -1.620029  -0.030431
H    -3.155783  -2.777394  0.917625
H    -3.909935  1.113718  1.301848
N    -1.068091  2.136505  5.294139
C    -2.032967  2.963487  4.567310
H    -0.569494  2.578117  6.068115
H    -1.908950  3.995733  4.907227
H    -3.066433  2.660584  4.784434
H    -1.844094  2.936411  3.487983
Hg    1.477433  -1.274506  5.146433
