36
Energy: -574589.969409 eV PBE+vdW (tier 2 basis)
C    0.395956  0.687492  1.553192
C    -0.728222  -0.199411  1.939731
O    -0.467104  -1.173588  2.746471
H    0.542291  1.442423  2.343016
H    0.230068  1.186576  0.593826
H    1.318749  0.094798  1.516724
N    -1.971020  -0.020733  1.466375
C    -2.656699  1.271320  1.347911
C    -2.841801  1.807013  2.794609
O    -2.774777  1.014664  3.758744
H    -2.617945  -0.773443  1.703058
H    -2.011661  1.955687  0.781519
C    -3.989284  1.129244  0.573089
C    -4.961491  -0.032457  0.880258
C    -5.623384  -0.151656  2.273350
N    -4.936817  -1.156145  3.101384
C    -4.840564  -1.175883  4.454349
N    -5.713641  -0.506694  5.209185
N    -3.822070  -1.877228  4.990814
H    -3.737518  1.049299  -0.493558
H    -4.528756  2.080562  0.677057
H    -4.507470  -1.002368  0.612755
H    -5.770426  0.078907  0.145771
H    -6.678505  -0.433496  2.142579
H    -5.598490  0.802573  2.815704
H    -4.723829  -2.042435  2.649313
H    -5.529825  -0.329385  6.191395
H    -6.639903  -0.274903  4.864108
H    -3.859255  -2.100303  5.983692
N    -3.073827  3.114662  2.969630
C    -3.164274  4.190750  1.982089
H    -3.197944  3.379350  3.946014
H    -2.731457  5.099505  2.413280
H    -4.207251  4.398218  1.707764
H    -2.598789  3.949341  1.076624
Hg    -2.056650  -1.616825  4.009531
