36
Energy: -574588.028946 eV PBE+vdW (tier 2 basis)
C    -1.119613  -1.176346  -0.059545
C    -0.325254  -0.693744  1.113484
O    0.912968  -0.921363  1.148872
H    -2.172358  -1.347512  0.189164
H    -0.670277  -2.104352  -0.431624
H    -1.047541  -0.440500  -0.875159
N    -0.922199  -0.039401  2.142820
C    -1.951322  0.989501  2.000622
C    -1.186998  2.334198  1.833086
O    0.003237  2.439412  2.208612
H    -0.262046  0.189588  2.888931
H    -2.528835  0.782372  1.088731
C    -2.888821  1.016852  3.226394
C    -3.690978  -0.279222  3.402414
C    -4.578886  -0.244430  4.650207
N    -5.324919  -1.476115  4.794547
C    -6.222913  -1.792834  5.774276
N    -6.494822  -0.908524  6.756325
N    -6.748199  -3.001635  5.632415
H    -3.573369  1.871597  3.121421
H    -2.283178  1.220568  4.124306
H    -3.001740  -1.134204  3.475611
H    -4.324572  -0.446580  2.516922
H    -5.287233  0.604243  4.595460
H    -3.961782  -0.083953  5.554980
H    -5.210507  -2.230685  4.119553
H    -7.164799  -1.151409  7.477163
H    -6.061949  0.005284  6.824716
H    -7.423924  -3.234591  6.370933
N    -1.859803  3.363325  1.306733
C    -1.292099  4.695301  1.106680
H    -2.845768  3.238519  1.091905
H    -1.718367  5.131544  0.197575
H    -0.206091  4.610084  1.010828
H    -1.521332  5.347042  1.960901
Hg    2.216049  0.984179  1.891405
