36
Energy: -574590.03955 eV PBE+vdW (tier 2 basis)
C    -1.121899  1.969804  -0.335734
C    -1.125971  0.556251  0.110531
O    0.044843  0.016684  0.303469
H    -0.732424  2.605806  0.470081
H    -2.110166  2.318360  -0.647479
H    -0.424630  2.053848  -1.182676
N    -2.234972  -0.176474  0.214157
C    -3.574334  0.287564  0.601543
C    -3.399893  1.363210  1.716150
O    -2.375770  1.357535  2.406536
H    -2.105390  -1.184514  0.294460
H    -4.080082  0.709310  -0.279539
C    -4.388795  -0.932222  1.113829
C    -4.265938  -1.310488  2.604517
C    -2.925156  -1.771553  3.185724
N    -2.529032  -3.123613  2.704891
C    -1.348444  -3.737135  2.972936
N    -1.344723  -5.043326  3.265961
N    -0.185514  -3.056095  2.929217
H    -4.170202  -1.791533  0.457948
H    -5.448858  -0.711112  0.933102
H    -5.026431  -2.080986  2.809841
H    -4.572528  -0.451539  3.218538
H    -3.011900  -1.802839  4.282172
H    -2.141102  -1.035815  2.963062
H    -3.313278  -3.766261  2.607272
H    -0.496999  -5.599007  3.207861
H    -2.174197  -5.512608  3.616230
H    0.634477  -3.526214  3.306675
N    -4.435718  2.203462  1.860982
C    -4.506456  3.235400  2.895646
H    -5.208110  2.141956  1.203877
H    -5.374482  3.065406  3.543894
H    -4.594376  4.225762  2.433369
H    -3.590691  3.192289  3.490829
Hg    0.066065  -1.543128  1.613760
