36
Energy: -574588.268727 eV PBE+vdW (tier 2 basis)
C    1.823753  -0.555866  0.741647
C    1.192319  -0.301456  2.076751
O    1.935607  -0.090454  3.072798
H    1.991078  0.406931  0.236014
H    1.189022  -1.188219  0.110639
H    2.800867  -1.027671  0.885137
N    -0.160280  -0.340737  2.165845
C    -0.836084  0.047303  3.386341
C    -0.461627  -0.912093  4.565645
O    0.064260  -0.467626  5.617774
H    -0.692723  -0.415555  1.252185
H    -0.454864  1.032114  3.728679
C    -2.361433  0.148834  3.234797
C    -2.834791  1.413527  2.482442
C    -3.957573  1.122455  1.452362
N    -3.479345  0.235747  0.400401
C    -2.458969  0.605114  -0.472714
N    -2.696470  1.685683  -1.244142
N    -1.361962  -0.113669  -0.422718
H    -2.802095  0.137476  4.240620
H    -2.722757  -0.766995  2.740555
H    -1.999318  1.888506  1.946087
H    -3.208438  2.161703  3.194155
H    -4.303603  2.070720  1.023255
H    -4.822753  0.645875  1.929994
H    -3.423072  -0.750743  0.641031
H    -1.973821  2.059515  -1.848307
H    -3.648326  1.980490  -1.436146
H    -0.688694  0.155493  -1.148535
N    -0.776063  -2.194605  4.439270
C    -0.568420  -3.201209  5.481930
H    -1.270076  -2.480956  3.597116
H    -0.400334  -4.170171  5.001451
H    -1.449232  -3.269163  6.134487
H    0.299639  -2.919569  6.085826
Hg    1.701587  1.149486  5.102487
