36
Energy: -574589.690308 eV PBE+vdW (tier 2 basis)
C    -0.963955  1.443704  2.855608
C    -0.305139  0.198860  2.401178
O    0.460238  -0.426923  3.234011
H    -1.733615  1.195123  3.602020
H    -1.395681  2.021473  2.033863
H    -0.216140  2.054950  3.382885
N    -0.457271  -0.278739  1.149888
C    -1.736805  -0.437257  0.428725
C    -2.785487  -0.914138  1.463102
O    -2.427102  -1.641505  2.412418
H    0.237839  -0.978165  0.888826
H    -2.038474  0.527652  -0.001913
C    -1.502532  -1.468173  -0.734564
C    -2.451324  -2.672918  -0.900275
C    -2.336067  -3.856196  0.083454
N    -1.034739  -4.544261  0.034162
C    -0.115044  -4.603412  1.007049
N    1.151738  -4.938643  0.717383
N    -0.401665  -4.351195  2.323649
H    -0.469886  -1.846344  -0.657303
H    -1.519009  -0.905042  -1.675334
H    -2.300287  -3.052859  -1.921924
H    -3.501890  -2.349046  -0.877569
H    -3.112148  -4.593645  -0.160905
H    -2.513335  -3.528817  1.111925
H    -0.811464  -5.017157  -0.840819
H    1.734683  -5.316555  1.458095
H    1.473458  -5.066818  -0.236535
H    -1.399167  -4.441729  2.526694
N    -4.044033  -0.518898  1.251338
C    -5.182541  -0.902152  2.087311
H    -4.225338  0.112005  0.475085
H    -5.902823  -1.488127  1.503429
H    -5.681754  -0.003474  2.467863
H    -4.816523  -1.498563  2.926616
Hg    0.153059  -2.485175  2.968129
