36
Energy: -574590.185326 eV PBE+vdW (tier 2 basis)
C    1.226071  -0.638367  0.352957
C    1.095821  -0.708790  1.828730
O    2.150871  -1.053734  2.496987
H    1.599454  0.362408  0.079020
H    0.279871  -0.826998  -0.163720
H    1.986682  -1.357651  0.026425
N    -0.054058  -0.438999  2.453502
C    -1.045625  0.565983  2.050130
C    -0.334017  1.941708  2.037228
O    0.654703  2.135702  2.781033
H    -0.073678  -0.649065  3.452216
H    -1.407307  0.326040  1.041520
C    -2.273283  0.535290  3.004333
C    -2.091887  0.357244  4.529607
C    -1.477633  1.477537  5.395741
N    -0.011858  1.498902  5.354325
C    0.847380  1.300150  6.367340
N    0.495525  1.495179  7.644450
N    2.096472  0.869938  6.068431
H    -2.912853  -0.293149  2.670552
H    -2.851339  1.450999  2.816904
H    -1.585806  -0.594252  4.770257
H    -3.113244  0.206865  4.909686
H    -1.797385  1.309686  6.431094
H    -1.860563  2.463946  5.095820
H    0.391088  1.772606  4.434349
H    1.064745  1.143461  8.406718
H    -0.267218  2.117451  7.889291
H    2.841168  0.981616  6.752193
N    -0.810295  2.890070  1.225942
C    -1.905466  2.798220  0.255675
H    -0.317029  3.779269  1.294029
H    -2.873524  2.631397  0.744019
H    -1.724019  2.006687  -0.482829
H    -1.959778  3.748576  -0.282098
Hg    2.306852  -0.150218  4.342401
