36
Energy: -574587.626233 eV PBE+vdW (tier 2 basis)
C    -1.773828  0.248204  -1.163601
C    -0.717781  0.107266  -0.112692
O    0.491447  0.033196  -0.470786
H    -2.506634  1.016952  -0.896713
H    -2.297881  -0.713580  -1.285159
H    -1.298938  0.491021  -2.119042
N    -1.032132  0.060126  1.208927
C    -2.108047  -0.748208  1.819605
C    -1.824591  -2.226608  1.446008
O    -0.633580  -2.677439  1.542275
H    -0.218130  0.179273  1.810630
H    -1.875503  -0.706623  2.895162
C    -3.537990  -0.200059  1.644610
C    -4.360616  -0.300428  2.949250
C    -5.880066  -0.438012  2.721358
N    -6.157705  -1.746170  2.144259
C    -6.311832  -2.012337  0.795950
N    -7.193973  -1.257456  0.108952
N    -5.537781  -2.968797  0.329432
H    -4.042246  -0.705583  0.810532
H    -3.462537  0.854929  1.353895
H    -4.179329  0.583012  3.577999
H    -4.033534  -1.166886  3.547206
H    -6.267738  0.343465  2.056622
H    -6.405764  -0.345430  3.682987
H    -5.755272  -2.537975  2.643803
H    -7.963037  -0.799938  0.588577
H    -7.295068  -1.375506  -0.892820
H    -5.688713  -3.167495  -0.665493
N    -2.788813  -3.071670  1.107265
C    -2.517260  -4.477551  0.799007
H    -3.798905  -2.812142  1.004229
H    -3.439980  -4.917972  0.412793
H    -2.209544  -5.015767  1.704883
H    -1.713681  -4.564010  0.057878
Hg    1.435897  -1.751886  0.792943
