36
Energy: -574587.772328 eV PBE+vdW (tier 2 basis)
C    -0.163351  -0.448920  0.374012
C    0.208596  0.124982  1.704575
O    1.417729  0.113010  2.060422
H    -0.008047  0.310528  -0.407668
H    -1.199685  -0.801720  0.345193
H    0.516909  -1.278018  0.146374
N    -0.733871  0.634203  2.538676
C    -1.848627  1.487686  2.124146
C    -1.282022  2.931232  2.096258
O    -0.269369  3.218203  2.783705
H    -0.339209  0.935052  3.432050
H    -2.160783  1.184382  1.115956
C    -3.029204  1.362112  3.111016
C    -3.639932  -0.045259  3.133451
C    -4.666123  -0.265388  4.267142
N    -5.895942  0.507478  4.143256
C    -6.979934  0.205748  3.367538
N    -6.992183  -0.926513  2.627440
N    -8.041611  0.990276  3.248392
H    -3.792082  2.107239  2.844369
H    -2.666682  1.638901  4.114775
H    -2.847400  -0.793289  3.283713
H    -4.103105  -0.270264  2.160317
H    -4.221108  -0.003175  5.235807
H    -4.915977  -1.336012  4.330782
H    -6.005118  1.325713  4.733610
H    -7.852956  -1.119234  2.122882
H    -6.339555  -1.689050  2.760403
H    -8.006067  1.808107  3.869322
N    -1.886409  3.877483  1.368320
C    -3.134977  3.811121  0.617424
H    -1.435245  4.791532  1.431692
H    -3.032660  4.420355  -0.287714
H    -3.973843  4.207182  1.206907
H    -3.358273  2.783611  0.314675
Hg    2.132555  2.192559  3.053289
