36
Energy: -574589.978772 eV PBE+vdW (tier 2 basis)
C    -0.556573  -0.195848  0.170018
C    -0.282798  0.051436  1.622554
O    0.867572  0.201965  2.063990
H    -1.620887  -0.208739  -0.088466
H    -0.113089  -1.163478  -0.103818
H    -0.042115  0.568734  -0.424647
N    -1.374865  0.110154  2.456841
C    -1.328254  0.106016  3.925990
C    -0.739479  1.424772  4.479173
O    -1.409661  2.216571  5.291651
H    -2.291466  0.032376  2.029639
H    -2.387786  0.114948  4.226099
C    -0.639829  -1.185058  4.459533
C    -0.624937  -1.485981  5.974780
C    -1.794461  -2.303989  6.560478
N    -3.039726  -1.529956  6.718138
C    -3.505593  -0.954875  7.856997
N    -3.503585  -1.632113  9.005090
N    -3.953066  0.316405  7.773207
H    0.397731  -1.162585  4.104421
H    -1.114244  -2.021456  3.924419
H    -0.464589  -0.575681  6.578893
H    0.273140  -2.092424  6.163283
H    -1.505631  -2.679001  7.549497
H    -2.007460  -3.182023  5.936011
H    -3.516366  -1.240048  5.869848
H    -3.635333  -1.167950  9.898532
H    -3.479550  -2.647867  9.008820
H    -4.531338  0.695168  8.522603
N    0.443772  1.794826  4.086238
C    1.131853  3.022908  4.478996
H    0.845926  1.169339  3.316774
H    0.874035  3.833738  3.784337
H    2.209435  2.841635  4.425060
H    0.846540  3.317213  5.492966
Hg    -2.797473  1.436768  6.537488
