36
Energy: -574588.045229 eV PBE+vdW (tier 2 basis)
C    -1.522916  -0.655549  0.299946
C    -0.877567  -0.584375  1.659226
O    -0.476835  -1.689262  2.139100
H    -0.805575  -0.298477  -0.454690
H    -2.428907  -0.040313  0.249872
H    -1.771926  -1.694458  0.067575
N    -0.743713  0.575780  2.299576
C    -0.975454  1.926669  1.787847
C    0.092676  2.778652  2.526642
O    0.585528  2.337524  3.570509
H    -0.188687  0.619976  3.169740
H    -0.792709  1.946745  0.704220
C    -2.408294  2.456133  2.054674
C    -2.781270  2.602507  3.535209
C    -4.206889  3.132669  3.710801
N    -4.542584  3.281648  5.110233
C    -5.724337  3.718463  5.637837
N    -6.743108  4.068686  4.827036
N    -5.724537  3.744977  6.964337
H    -3.116166  1.779863  1.551342
H    -2.501565  3.426734  1.544008
H    -2.081756  3.288667  4.036810
H    -2.696141  1.629862  4.043473
H    -4.937321  2.450320  3.234609
H    -4.317606  4.112110  3.205994
H    -3.855902  3.060943  5.830546
H    -7.615920  4.391400  5.229334
H    -6.689891  4.040529  3.815169
H    -6.614843  4.074764  7.358836
N    0.386202  3.981205  1.997252
C    1.365767  4.892358  2.580248
H    0.007393  4.216245  1.083869
H    2.337897  4.793069  2.076608
H    1.491396  4.646322  3.638489
H    1.014396  5.924053  2.468586
Hg    1.142479  -2.139342  3.803531
