36
Energy: -574589.904087 eV PBE+vdW (tier 2 basis)
C    -0.650742  2.099241  1.912448
C    -1.372470  0.900545  2.397231
O    -1.382299  0.668667  3.669420
H    -0.413398  2.050862  0.846034
H    0.272356  2.212666  2.497799
H    -1.259049  2.992776  2.125491
N    -1.989351  0.049912  1.558493
C    -2.858187  0.423624  0.433915
C    -3.841167  1.512942  0.940918
O    -4.147176  1.559198  2.151921
H    -2.266058  -0.826744  2.000755
H    -2.249109  0.818395  -0.392194
C    -3.595193  -0.844118  -0.087780
C    -4.299666  -1.769547  0.930084
C    -5.641966  -1.287225  1.528281
N    -6.014980  -2.072021  2.719059
C    -5.576654  -1.826102  3.965082
N    -5.483346  -2.809680  4.863268
N    -5.251132  -0.559589  4.386244
H    -2.850590  -1.449587  -0.622938
H    -4.313786  -0.515293  -0.851699
H    -3.622637  -2.038698  1.761121
H    -4.469023  -2.728109  0.419452
H    -6.453757  -1.396259  0.799451
H    -5.604355  -0.229163  1.803555
H    -6.477262  -2.964310  2.552235
H    -5.457684  -2.570465  5.850130
H    -5.596196  -3.788362  4.618477
H    -5.730752  0.147224  3.821403
N    -4.329874  2.338080  0.012303
C    -5.310709  3.392507  0.273241
H    -3.990702  2.243964  -0.941562
H    -4.933057  4.348337  -0.107293
H    -5.468356  3.466742  1.351995
H    -6.260836  3.161336  -0.224021
Hg    -3.286355  0.005977  4.237362
