36
Energy: -574588.682166 eV PBE+vdW (tier 2 basis)
C    -1.999805  1.738626  0.256682
C    -1.496574  0.864318  1.392066
O    -0.709285  -0.099645  0.830825
H    -2.382208  1.114888  -0.559953
H    -1.161520  2.322498  -0.145231
H    -2.780523  2.407077  0.626417
N    -1.835191  1.136461  2.593453
C    -1.807274  0.451091  3.876640
C    -0.432580  0.455812  4.601675
O    0.480456  -0.440072  4.431861
H    -5.985778  -5.648815  4.321759
H    -2.447299  1.067296  4.527085
C    -2.480423  -0.945145  3.878830
C    -2.830388  -1.444315  5.286903
C    -3.611915  -2.761632  5.332515
N    -4.987174  -2.601938  4.836972
C    -5.813421  -3.612172  4.515421
N    -7.014840  -3.344820  3.984926
N    -5.434085  -4.883307  4.692152
H    -1.863133  -1.703068  3.365800
H    -3.382145  -0.835371  3.259471
H    -3.394718  -0.671272  5.835408
H    -1.912780  -1.611263  5.870151
H    -3.627882  -3.127394  6.371749
H    -3.110099  -3.519044  4.711684
H    -5.416810  -1.689806  4.959894
H    -7.732533  -4.057211  3.918255
H    -7.252845  -2.420122  3.647789
H    -4.669886  -5.127272  5.309556
N    -0.176832  1.409390  5.480933
C    -1.024735  2.536331  5.886039
H    0.746599  1.348612  5.912931
H    -1.758138  2.231371  6.643560
H    -1.529053  2.972807  5.018177
H    -0.373005  3.297639  6.325244
Hg    0.398698  -0.983308  2.323090
