36
Energy: -574587.858559 eV PBE+vdW (tier 2 basis)
C    -1.372776  -0.142500  0.509195
C    -0.905303  -0.278000  1.929848
O    -0.036094  -1.158571  2.183516
H    -2.250279  0.503929  0.397843
H    -1.602181  -1.140745  0.114925
H    -0.546180  0.254481  -0.096837
N    -1.464945  0.542355  2.843743
C    -1.400184  0.536649  4.314606
C    -0.164316  1.272293  4.849568
O    0.973589  1.188262  4.301897
H    -2.100877  1.229249  2.449880
H    -2.278223  1.122571  4.619889
C    -1.524462  -0.858350  4.977650
C    -2.767560  -1.676350  4.595875
C    -4.124304  -1.085343  5.013106
N    -4.219966  -0.885468  6.453678
C    -4.482386  0.293610  7.098729
N    -5.078772  1.301017  6.390791
N    -4.090179  0.561524  8.323178
H    -1.502587  -0.687701  6.064618
H    -0.638948  -1.464787  4.752407
H    -2.657274  -2.674943  5.044946
H    -2.802588  -1.854010  3.511609
H    -4.927512  -1.761667  4.677808
H    -4.308070  -0.118170  4.526691
H    -3.934433  -1.658046  7.050757
H    -5.294862  2.119543  6.955594
H    -5.789903  1.066558  5.704330
H    -3.734711  -0.252072  8.837317
N    -0.285319  2.043388  5.933087
C    -1.489091  2.452032  6.654598
H    0.601847  2.434444  6.254062
H    -1.244626  3.333561  7.254122
H    -2.298107  2.724147  5.966344
H    -1.840698  1.661262  7.334513
Hg    1.900451  -0.763527  3.418980
