36
Energy: -574589.315063 eV PBE+vdW (tier 2 basis)
C    -0.800559  -0.475192  0.775437
C    -0.977671  -0.192023  2.237641
O    -0.342088  -0.732273  3.141608
H    -1.004773  0.397401  0.142739
H    -1.497983  -1.272528  0.477299
H    0.215910  -0.837797  0.596488
N    -1.932932  0.754840  2.585047
C    -2.299628  0.971875  3.956095
C    -1.011506  1.024918  4.916207
O    -0.993788  0.368685  5.968970
H    -2.431136  1.265620  1.860192
H    -2.725510  1.984722  4.023634
C    -3.388686  -0.003262  4.493855
C    -3.297233  -1.494116  4.144061
C    -2.510334  -2.419370  5.084347
N    -3.279327  -2.803352  6.277326
C    -3.035338  -2.481914  7.554510
N    -3.662648  -3.155734  8.532551
N    -2.188566  -1.496422  7.870366
H    -4.312982  0.387028  4.040838
H    -3.495792  0.163539  5.574012
H    -2.897402  -1.624762  3.130618
H    -4.327623  -1.876140  4.081704
H    -1.554351  -1.985189  5.392997
H    -2.268217  -3.348268  4.550866
H    -4.050515  -3.445711  6.121015
H    -3.675607  -2.812302  9.484999
H    -4.136694  -4.032463  8.353535
H    -1.869851  -1.389510  8.824850
N    -0.126073  1.984959  4.638089
C    0.186117  2.681809  3.424930
H    -1.819691  -0.857640  7.164943
H    0.939111  2.156630  2.820923
H    0.508617  3.706045  3.644251
H    -0.737088  2.753565  2.820166
Hg    1.340500  1.651587  6.259837
