36
Energy: -574589.975566 eV PBE+vdW (tier 2 basis)
C    -3.108694  0.963341  1.323295
C    -2.149061  0.497994  2.377729
O    -0.919349  0.494509  2.171188
H    -4.162145  0.845187  1.598815
H    -2.911346  0.417146  0.392567
H    -2.910392  2.023939  1.115573
N    -2.686085  0.089418  3.562911
C    -1.943805  -0.335317  4.756650
C    -0.965026  0.793616  5.175779
O    0.279328  0.858763  4.868961
H    -3.697659  0.111095  3.641481
H    -2.702843  -0.345502  5.546578
C    -1.337245  -1.788081  4.732637
C    -1.455491  -2.550649  3.399643
C    -0.760135  -3.921497  3.320743
N    0.679579  -4.016199  3.660031
C    1.689210  -3.180867  3.375881
N    2.852016  -3.304340  4.031798
N    1.616644  -2.172978  2.447086
H    -1.851466  -2.362531  5.515124
H    -0.291144  -1.750255  5.079819
H    -1.142909  -1.921361  2.557581
H    -2.514779  -2.768809  3.201338
H    -0.918171  -4.330029  2.311401
H    -1.247320  -4.619688  4.013362
H    0.931811  -4.869235  4.154734
H    3.680766  -2.880191  3.627534
H    2.978910  -3.937261  4.814245
H    0.926613  -2.369684  1.719460
N    -1.435550  1.779149  5.923627
C    -2.783945  1.960570  6.470869
H    -0.750974  2.507333  6.132405
H    -3.523273  2.080271  5.669718
H    -2.778824  2.874990  7.070173
H    -3.064569  1.128155  7.128260
Hg    1.027246  -0.412431  3.360818
