36
Energy: -574589.625977 eV PBE+vdW (tier 2 basis)
C    -0.298798  -0.232308  -0.961444
C    -0.352250  0.036448  0.498267
O    0.795375  0.148577  1.110184
H    -1.229721  0.026586  -1.474458
H    -0.071204  -1.296336  -1.129174
H    0.535905  0.335471  -1.392949
N    -1.484535  0.157757  1.176970
C    -2.858454  -0.249461  0.887149
C    -3.694177  0.602825  1.871442
O    -3.132096  1.015823  2.905861
H    -1.494164  0.595824  2.120983
H    -3.121515  -0.002075  -0.148897
C    -3.075087  -1.784914  1.109337
C    -2.243454  -2.531615  2.176591
C    -2.673200  -2.601818  3.657187
N    -2.570484  -1.392453  4.495596
C    -1.472916  -0.734198  4.877388
N    -1.580983  0.512763  5.349008
N    -0.193508  -1.250114  4.800957
H    -2.847641  -2.270060  0.150170
H    -4.147405  -1.959226  1.277981
H    -1.181796  -2.248920  2.097867
H    -2.249030  -3.586837  1.864098
H    -2.104844  -3.411244  4.137241
H    -3.723928  -2.909206  3.724296
H    -3.452343  -0.966773  4.770215
H    -0.833521  0.895922  5.918404
H    -2.416560  1.069205  5.192122
H    -0.165675  -2.271810  4.767513
N    -4.980882  0.826409  1.590603
C    -5.708835  0.504507  0.358687
H    -5.463844  1.402373  2.277881
H    -5.362558  1.116063  -0.485162
H    -6.767036  0.724403  0.525013
H    -5.629050  -0.558585  0.103990
Hg    0.646640  -0.471382  3.092089
