36
Energy: -574588.011702 eV PBE+vdW (tier 2 basis)
C    -0.888109  2.074973  0.549873
C    -0.718526  1.577575  1.956318
O    0.145261  2.134689  2.682396
H    -1.720162  1.596387  0.021543
H    0.046428  1.905887  -0.001322
H    -1.050986  3.160386  0.577307
N    -1.518813  0.566402  2.361939
C    -1.701872  0.084664  3.733221
C    -0.811524  -1.153633  3.981433
O    0.443869  -1.055524  3.881431
H    -2.127403  0.174188  1.650079
H    -1.263215  0.855207  4.388408
C    -3.197086  0.001183  4.116034
C    -4.160417  -0.714947  3.152184
C    -5.584597  -0.792099  3.754774
N    -6.558753  -1.401983  2.863483
C    -7.228192  -0.801288  1.830248
N    -7.173538  0.550218  1.694013
N    -7.886872  -1.459516  0.897305
H    -3.540766  1.038092  4.244581
H    -3.255384  -0.444410  5.122131
H    -3.831832  -1.737080  2.904856
H    -4.224997  -0.173991  2.195531
H    -5.924820  0.211293  4.050932
H    -5.575456  -1.386725  4.678280
H    -6.701827  -2.403938  2.941322
H    -7.749127  0.926442  0.945140
H    -6.991891  1.163150  2.479980
H    -7.958741  -2.467609  1.077442
N    -1.359037  -2.320642  4.306303
C    -0.585727  -3.532177  4.590759
H    -2.370697  -2.391931  4.311427
H    -0.356372  -4.072193  3.662927
H    -1.173110  -4.175814  5.251929
H    0.353858  -3.254616  5.078087
Hg    1.567737  1.010483  4.188832
