36
Energy: -574587.498928 eV PBE+vdW (tier 2 basis)
C    0.307260  -1.066393  0.423497
C    0.394732  -0.386532  1.748377
O    1.533748  -0.091629  2.217824
H    1.096453  -1.828986  0.375222
H    0.524846  -0.345094  -0.378362
H    -0.671682  -1.539739  0.266596
N    -0.715626  -0.107528  2.471549
C    -1.942438  0.485951  1.929269
C    -1.608849  1.991757  1.782112
O    -0.829608  2.528169  2.622882
H    -0.506038  0.233038  3.411979
H    -2.146209  0.017214  0.959375
C    -3.085206  0.235780  2.945624
C    -4.547034  0.417868  2.507795
C    -5.235635  -0.780172  1.812262
N    -5.038591  -0.906754  0.370783
C    -4.051475  -1.608539  -0.254669
N    -4.035789  -1.620421  -1.614296
N    -3.043407  -2.211991  0.358943
H    -2.900173  0.893795  3.809105
H    -2.946361  -0.789134  3.324420
H    -4.693872  1.330306  1.913400
H    -5.124207  0.584153  3.428382
H    -6.318863  -0.684486  1.957226
H    -4.949020  -1.722714  2.302317
H    -5.745752  -0.467340  -0.213455
H    -3.373602  -2.258493  -2.045154
H    -4.861304  -1.396559  -2.160318
H    -3.220410  -2.316701  1.363451
N    -2.132289  2.739978  0.808387
C    -3.108044  2.403019  -0.220226
H    -1.812807  3.711069  0.830419
H    -2.740720  2.761289  -1.189946
H    -4.069468  2.892142  -0.013352
H    -3.257654  1.321667  -0.273500
Hg    1.584918  2.087088  3.140573
