36
Energy: -574589.372001 eV PBE+vdW (tier 2 basis)
C    -0.628697  0.041546  -0.115441
C    -0.519678  0.092654  1.380194
O    0.511543  -0.112525  2.016403
H    0.343900  0.276556  -0.557900
H    -1.394949  0.717599  -0.514209
H    -0.896212  -0.981407  -0.420178
N    -1.678994  0.403958  2.081465
C    -1.749902  0.320306  3.512360
C    -0.456841  0.949983  4.237787
O    0.106922  0.310256  5.137282
H    -2.520716  0.661185  1.571888
H    -2.575987  0.973574  3.832887
C    -2.070814  -1.093426  4.070680
C    -1.329319  -2.327615  3.541571
C    0.116030  -2.558696  4.008045
N    0.263385  -2.672319  5.461646
C    0.260725  -3.801465  6.178110
N    -0.052169  -4.978874  5.620135
N    0.574169  -3.762287  7.483754
H    -3.135859  -1.230212  3.827441
H    -2.019424  -1.034042  5.165881
H    -1.327155  -2.334220  2.442095
H    -1.945537  -3.193648  3.830958
H    0.763471  -1.737566  3.683971
H    0.521110  -3.465933  3.539273
H    0.339767  -1.789547  5.959960
H    0.141442  -5.851393  6.096685
H    -0.418035  -5.040168  4.679790
H    0.427969  -4.563649  8.085368
N    -0.221233  2.238668  3.984395
C    -0.556808  3.077919  2.872823
H    1.022145  -2.953386  7.894266
H    0.213894  3.061534  2.089511
H    -0.749147  4.103076  3.209082
H    -1.493439  2.697863  2.423226
Hg    1.521238  2.556064  5.319467
