36
Energy: -574587.700756 eV PBE+vdW (tier 2 basis)
C    0.614115  -1.171263  0.937655
C    -0.013478  -0.038291  1.693238
O    0.678190  0.584814  2.541806
H    -0.056071  -1.576394  0.170202
H    0.888550  -1.963901  1.647066
H    1.545071  -0.822498  0.473326
N    -1.313983  0.244689  1.441332
C    -1.972104  1.410553  2.004425
C    -2.114228  1.368327  3.553147
O    -1.683305  2.362494  4.211480
H    -1.742786  -0.226312  0.623284
H    -1.283951  2.269039  1.875301
C    -3.232125  1.850487  1.227971
C    -4.511920  0.982356  1.254813
C    -5.279907  0.981013  -0.096044
N    -4.805597  -0.066669  -1.011478
C    -3.460240  -0.104379  -1.406128
N    -3.020246  0.937200  -2.136958
N    -2.638085  -1.020285  -0.958946
H    -2.887614  1.992377  0.193542
H    -3.480481  2.858783  1.586594
H    -4.294261  -0.064610  1.499479
H    -5.191434  1.345997  2.037011
H    -5.212334  1.961518  -0.586403
H    -6.343287  0.778455  0.075687
H    -5.190152  -0.989817  -0.813743
H    -3.686793  1.496875  -2.657903
H    -2.073554  0.896168  -2.500671
H    -3.115989  -1.833809  -0.561030
N    -2.667239  0.367320  4.235203
C    -3.301161  -0.873769  3.806079
H    -2.671858  0.540788  5.243059
H    -4.395080  -0.787217  3.837923
H    -2.999192  -1.662975  4.505410
H    -2.969044  -1.154003  2.805024
Hg    0.523936  2.796072  3.508313
