36
Energy: -574587.765291 eV PBE+vdW (tier 2 basis)
C    -0.137895  0.107753  -0.231788
C    -0.146933  -0.023368  1.258878
O    0.897401  -0.407145  1.847408
H    -1.136755  0.010731  -0.670238
H    0.529492  -0.655218  -0.649279
H    0.289233  1.084305  -0.507548
N    -1.270714  0.243841  1.978097
C    -2.153936  1.388638  1.744138
C    -1.507997  2.585622  2.498351
O    -0.708522  2.388241  3.446744
H    -1.136678  0.069681  2.976489
H    -2.168766  1.602327  0.666251
C    -3.590015  1.131335  2.246317
C    -4.414334  0.081922  1.478435
C    -4.149923  -1.385615  1.876312
N    -5.084012  -2.321144  1.264114
C    -6.311036  -2.652804  1.765594
N    -7.072871  -3.549527  1.097889
N    -6.860222  -2.146807  2.862051
H    -4.132256  2.085534  2.187611
H    -3.552226  0.886787  3.320739
H    -4.275669  0.203251  0.392995
H    -5.477046  0.293307  1.668437
H    -4.199148  -1.501401  2.969248
H    -3.142369  -1.704008  1.578999
H    -4.838694  -2.675895  0.343429
H    -7.985199  -3.760759  1.491610
H    -6.743697  -4.106958  0.317656
H    -6.216783  -1.551533  3.394331
N    -1.866946  3.817794  2.126671
C    -1.375184  5.042224  2.755048
H    -2.590777  3.916836  1.418488
H    -1.294634  5.824873  1.993772
H    -0.397288  4.847829  3.204048
H    -2.065791  5.375921  3.542028
Hg    1.412165  0.932419  3.804864
