36
Energy: -574587.802719 eV PBE+vdW (tier 2 basis)
C    -0.133418  2.173244  1.690120
C    -0.480340  0.760976  2.037376
O    0.356984  -0.032947  2.541729
H    0.174859  2.691364  2.609664
H    -0.946992  2.740087  1.231068
H    0.730608  2.170916  1.013259
N    -1.713611  0.239065  1.807170
C    -2.786340  0.715362  0.945356
C    -4.109513  0.561478  1.792134
O    -4.736603  -0.491433  1.699725
H    -1.796362  -0.734586  2.112838
H    -2.619992  1.775861  0.723798
C    -2.879352  -0.106156  -0.353705
C    -3.963400  0.382681  -1.321933
C    -4.095668  -0.571074  -2.529561
N    -5.170912  -0.208338  -3.440492
C    -5.058139  0.619727  -4.519798
N    -6.131079  0.806614  -5.321352
N    -3.972251  1.311837  -4.841862
H    -3.073501  -1.153356  -0.077966
H    -1.890883  -0.071273  -0.836635
H    -3.736509  1.396897  -1.687124
H    -4.935444  0.430946  -0.810869
H    -4.312242  -1.588670  -2.175498
H    -3.153430  -0.632283  -3.092367
H    -6.099356  -0.550139  -3.201557
H    -6.019511  1.451190  -6.098181
H    -6.967195  0.234038  -5.287664
H    -3.155602  1.048459  -4.279544
N    -4.471850  1.585120  2.584757
C    -3.817201  2.878909  2.758205
H    -5.332138  1.419071  3.104071
H    -2.808124  2.769515  3.175976
H    -4.409370  3.460721  3.470529
H    -3.776484  3.449869  1.820812
Hg    2.230104  0.472578  4.030939
