36
Energy: -574588.741936 eV PBE+vdW (tier 2 basis)
C    -1.267363  1.157115  0.524065
C    -0.744799  0.769198  1.895385
O    0.375408  0.013137  1.704237
H    -0.610083  1.926160  0.096365
H    -2.281221  1.555643  0.604195
H    -1.231864  0.297001  -0.155360
N    -1.351055  1.190603  2.938431
C    -1.448670  0.850497  4.346313
C    -0.330746  1.314477  5.335025
O    0.869363  0.846415  5.403455
H    -4.745938  -0.620254  -0.729131
H    -2.323004  1.421984  4.704727
C    -1.791467  -0.651738  4.589810
C    -3.283704  -0.986658  4.412119
C    -3.923017  -0.752161  3.040824
N    -3.430209  -1.705554  2.034293
C    -3.750550  -1.666849  0.730973
N    -3.210448  -2.553439  -0.118824
N    -4.572181  -0.718723  0.264455
H    -1.521864  -0.921652  5.621524
H    -1.172311  -1.285612  3.935892
H    -3.868023  -0.395702  5.132563
H    -3.442835  -2.034614  4.712167
H    -3.707096  0.266203  2.684969
H    -5.013893  -0.863332  3.153909
H    -3.045289  -2.579966  2.379079
H    -3.593902  -2.694032  -1.046420
H    -2.492915  -3.202241  0.180277
H    -5.162755  -0.182361  0.887663
N    -0.681006  2.217259  6.230825
C    0.199798  2.741103  7.278916
H    -1.640223  2.553936  6.204832
H    -0.186907  3.711463  7.601905
H    1.213413  2.856815  6.882857
H    0.225672  2.054909  8.135054
Hg    1.333455  -0.045794  3.521672
