36
Energy: -574590.055133 eV PBE+vdW (tier 2 basis)
C    -1.181265  2.867028  1.747141
C    -0.848341  1.380887  1.713145
O    0.170952  1.035627  1.123170
H    -1.712349  3.226056  0.856608
H    1.231617  -0.644346  -2.217237
H    -0.260426  3.441413  1.882837
N    -1.624948  0.458117  2.406176
C    -3.090809  0.313539  2.274762
C    -3.788811  0.423401  3.662572
O    -3.778577  1.510854  4.319361
H    -1.136874  -0.436074  2.467605
H    -3.460471  1.192067  1.723522
C    -3.440374  -0.946036  1.440490
C    -2.527371  -1.216912  0.228623
C    -2.461795  -0.122966  -0.860959
N    -1.120167  -0.036857  -1.442217
C    -0.743219  -0.315730  -2.698264
N    -1.634349  -0.416352  -3.694541
N    0.557399  -0.506737  -2.960828
H    -4.493492  -0.876285  1.131512
H    -3.355668  -1.845767  2.070842
H    -2.849701  -2.161324  -0.229180
H    -1.503772  -1.407502  0.579725
H    -2.719302  0.870486  -0.464489
H    -3.193743  -0.331508  -1.648841
H    -0.380254  0.213275  -0.781608
H    -1.361095  -0.785507  -4.597836
H    -2.555907  -0.004736  -3.628441
H    0.916137  -0.463005  -3.907595
N    -4.423144  -0.625233  4.165035
C    -5.117956  -0.599693  5.457068
H    -4.444891  -1.486920  3.630734
H    -5.565710  -1.581772  5.627045
H    -5.901908  0.166526  5.449222
H    -4.409861  -0.373310  6.262625
Hg    -2.485389  3.126252  3.404133
