36
Energy: -574588.134258 eV PBE+vdW (tier 2 basis)
C    0.931603  1.971202  1.522442
C    0.540288  1.426896  2.862014
O    1.291750  1.741610  3.830166
H    0.240941  1.645253  0.716282
H    1.962466  1.671568  1.295889
H    0.916354  3.069899  1.564754
N    -0.571224  0.675058  2.938535
C    -1.338406  0.285521  4.131086
C    -0.875310  -1.090302  4.664299
O    0.344522  -1.293688  4.933081
H    -1.064627  0.564680  2.051920
H    -1.068464  0.991780  4.935645
C    -2.847109  0.463846  3.873329
C    -3.493983  -0.317380  2.696359
C    -3.930382  0.551786  1.495546
N    -2.817753  1.091765  0.728306
C    -2.174096  0.513135  -0.345093
N    -2.589941  -0.699526  -0.786269
N    -1.157502  1.211871  -0.807896
H    -3.019402  1.542390  3.745646
H    -3.366229  0.221208  4.812200
H    -4.406354  -0.813559  3.056707
H    -2.840272  -1.123580  2.325736
H    -4.530917  1.401092  1.845617
H    -4.597660  -0.034323  0.846507
H    -2.617022  2.086423  0.794724
H    -2.131064  -1.100282  -1.597296
H    -3.528026  -1.040981  -0.603786
H    -0.685462  0.760945  -1.598738
N    -1.763837  -2.056961  4.867915
C    -1.433356  -3.365659  5.435289
H    -2.722792  -1.903939  4.573120
H    -2.307685  -3.744711  5.972909
H    -0.585680  -3.259668  6.118555
H    -1.160174  -4.072616  4.640725
Hg    1.710579  0.454319  5.688689
