36
Energy: -574587.718294 eV PBE+vdW (tier 2 basis)
C    -0.873197  -1.097417  0.153616
C    -0.744912  -0.800073  1.612610
O    0.345184  -1.105873  2.167226
H    -0.112874  -0.541753  -0.411383
H    -1.878457  -0.883310  -0.252650
H    -0.655007  -2.164656  0.004217
N    -1.761911  -0.269839  2.336506
C    -2.580385  0.873790  1.927172
C    -1.726364  2.146527  2.187445
O    -0.820998  2.154219  3.058394
H    -1.552358  -0.248480  3.337132
H    -2.791969  0.797902  0.852030
C    -3.881139  0.950603  2.755771
C    -4.789912  -0.287678  2.795093
C    -5.680113  -0.559915  1.561120
N    -4.981431  -1.168170  0.436949
C    -4.499943  -0.572089  -0.688300
N    -4.792943  0.740337  -0.934164
N    -3.652165  -1.158284  -1.517631
H    -4.453784  1.825960  2.415064
H    -3.592685  1.180524  3.794620
H    -5.481191  -0.151767  3.638992
H    -4.210957  -1.193769  3.028318
H    -6.185411  0.358147  1.236241
H    -6.472821  -1.260715  1.860040
H    -4.762359  -2.157536  0.525331
H    -4.525914  1.040106  -1.869559
H    -5.672535  1.125443  -0.603949
H    -3.563673  -2.167442  -1.348796
N    -2.031197  3.241410  1.487824
C    -1.376486  4.537646  1.663448
H    -2.828650  3.199625  0.858460
H    -1.914550  5.146605  2.402721
H    -1.366108  5.062403  0.703028
H    -0.353602  4.377885  2.016402
Hg    1.034139  0.513566  3.778192
