36
Energy: -574587.655527 eV PBE+vdW (tier 2 basis)
C    0.174018  0.039533  -0.107685
C    0.360861  0.378416  1.336536
O    1.542166  0.548175  1.742971
H    0.253435  0.956711  -0.711109
H    -0.778660  -0.476529  -0.315521
H    0.997317  -0.613494  -0.424389
N    -0.681170  0.483237  2.197075
C    -1.940374  1.177408  1.911999
C    -1.654017  2.686550  2.134146
O    -0.715519  3.044099  2.892252
H    -0.374881  0.635106  3.160440
H    -2.208710  0.987302  0.865006
C    -3.052917  0.711175  2.878034
C    -3.355417  -0.796002  2.910013
C    -4.334694  -1.325543  1.840576
N    -3.843290  -1.270169  0.467453
C    -2.853631  -2.042285  -0.074321
N    -2.318281  -3.048714  0.653137
N    -2.302483  -1.796071  -1.255551
H    -3.969263  1.279443  2.662435
H    -2.751081  1.020386  3.891343
H    -3.825072  -1.022945  3.877440
H    -2.417703  -1.369653  2.891930
H    -5.269752  -0.752354  1.864992
H    -4.610818  -2.363505  2.091853
H    -4.329409  -0.668316  -0.189097
H    -1.644787  -3.635352  0.168579
H    -2.799816  -3.459618  1.444792
H    -2.821208  -1.092079  -1.794344
N    -2.430575  3.613159  1.563228
C    -3.666027  3.444091  0.806340
H    -2.167284  4.570906  1.801918
H    -3.682618  2.473665  0.300240
H    -3.718789  4.229288  0.044033
H    -4.547175  3.532187  1.457176
Hg    1.762153  2.378102  3.269212
