36
Energy: -574589.65737 eV PBE+vdW (tier 2 basis)
C    -1.633499  -1.529275  0.138446
C    -1.174612  -1.067522  1.476228
O    -0.482322  -1.930453  2.190205
H    -0.777760  -1.849742  -0.470083
H    -2.217943  -0.772176  -0.393561
H    -2.260369  -2.422750  0.286719
N    -1.514975  0.126015  1.910536
C    -1.586141  0.685494  3.268398
C    -2.684939  1.792320  3.083388
O    -2.923773  2.171014  1.931195
H    -2.078747  0.766629  1.298683
H    -1.941548  -0.104914  3.946396
C    -0.292042  1.288329  3.865146
C    0.434576  2.396007  3.066161
C    1.903087  2.104075  2.698808
N    2.733452  1.704924  3.850341
C    3.151796  0.469573  4.150388
N    3.569298  0.165317  5.377932
N    3.209238  -0.578730  3.230993
H    0.397761  0.462273  4.110762
H    -0.573125  1.674853  4.854359
H    0.392787  3.335383  3.633086
H    -0.084266  2.611599  2.120553
H    1.976866  1.319005  1.937199
H    2.358911  2.998568  2.254978
H    2.896734  2.433863  4.544880
H    4.081781  -0.702817  5.507232
H    3.532427  0.814840  6.158740
H    3.579916  -0.248993  2.333225
N    -3.257769  2.270131  4.193513
C    -4.291492  3.308941  4.178276
H    -3.062091  1.817342  5.080914
H    -4.072165  4.057247  4.947564
H    -5.278619  2.870001  4.369584
H    -4.294399  3.782921  3.193421
Hg    1.380665  -1.378626  2.789941
