36
Energy: -574589.914423 eV PBE+vdW (tier 2 basis)
C    -0.153219  1.273560  0.943191
C    -0.946864  1.098019  2.195345
O    -0.692963  1.915283  3.148683
H    -0.390119  0.525562  0.179093
H    0.916029  1.217332  1.189025
H    -0.335014  2.279223  0.540288
N    -1.849080  0.101917  2.246786
C    -2.681370  -0.226024  3.406001
C    -1.842118  -0.857733  4.547902
O    -1.612534  -0.144394  5.549999
H    -1.946415  -0.455202  1.401174
H    -2.976438  0.744333  3.826960
C    -4.037651  -0.875828  3.115208
C    -4.925236  -0.905932  4.382269
C    -5.311158  0.474493  5.000752
N    -4.814789  0.668203  6.374301
C    -3.849066  1.495902  6.807174
N    -3.230645  1.245947  7.962394
N    -3.466663  2.639228  6.146707
H    -3.936463  -1.900317  2.734799
H    -4.533607  -0.294173  2.322933
H    -4.441802  -1.521116  5.155893
H    -5.848168  -1.436247  4.118554
H    -6.402988  0.572029  5.034519
H    -4.959356  1.311958  4.385420
H    -5.199850  0.026677  7.065865
H    -2.715250  1.994572  8.413485
H    -3.287208  0.351550  8.437077
H    -4.226378  3.038733  5.591359
N    -1.372654  -2.105955  4.456486
C    -1.542105  -3.105156  3.402337
H    -0.823382  -2.389012  5.267782
H    -1.602718  -2.640145  2.413838
H    -2.432331  -3.725420  3.571153
H    -0.662956  -3.757484  3.402799
Hg    -1.871375  2.324288  4.862139
