36
Energy: -574590.388579 eV PBE+vdW (tier 2 basis)
C    -0.357955  1.112445  0.332266
C    -0.173953  0.397233  1.635683
O    1.033450  0.067218  1.899345
H    0.005003  0.470487  -0.481435
H    0.269590  2.014041  0.333754
H    -1.396848  1.396390  0.134681
N    -1.273210  0.189610  2.376954
C    -1.533316  -0.423263  3.710874
C    -0.798747  0.406500  4.779985
O    0.444924  0.306234  4.916772
H    -2.111617  0.549376  1.928958
H    -2.612513  -0.289886  3.850401
C    -1.267012  -1.946530  3.710702
C    -1.558862  -2.780207  4.973540
C    -0.679587  -2.593912  6.237652
N    0.731287  -2.285526  5.980034
C    1.707149  -3.074565  5.494466
N    1.781068  -4.367043  5.837826
N    2.611731  -2.509927  4.664953
H    -0.239647  -2.157525  3.374118
H    -1.894256  -2.352144  2.903893
H    -1.483861  -3.827998  4.650424
H    -2.606551  -2.648465  5.283539
H    -0.774642  -3.487223  6.867686
H    -1.043498  -1.762283  6.852980
H    0.908152  -1.286022  5.861894
H    1.344194  -4.701314  6.690621
H    2.423718  -4.998884  5.373385
H    3.483653  -3.004288  4.489882
N    -1.508223  1.241841  5.543060
C    -2.946574  1.530084  5.519643
H    -0.939441  1.782204  6.194849
H    -3.250342  1.997211  4.574164
H    -3.158648  2.238914  6.324942
H    -3.543585  0.628710  5.704123
Hg    1.896498  -1.112858  3.362607
