36
Energy: -574590.342525 eV PBE+vdW (tier 2 basis)
C    1.056752  0.503940  1.930003
C    0.105149  0.002368  2.974479
O    0.490603  -0.307964  4.118092
H    1.846665  -0.242803  1.778517
H    1.547311  1.410595  2.308775
H    0.581694  0.728089  0.968957
N    -1.210317  -0.091718  2.625530
C    -2.275682  -0.516185  3.536474
C    -2.184866  0.295919  4.849208
O    -1.757423  -0.158673  5.974580
H    -1.474682  0.156869  1.677736
H    -3.201911  -0.163266  3.064920
C    -2.444272  -2.062551  3.725452
C    -1.279219  -2.949899  3.246640
C    -1.343725  -4.416663  3.684054
N    -1.346447  -4.729313  5.145883
C    -0.272401  -4.684911  5.983179
N    -0.000736  -5.756292  6.739944
N    0.482871  -3.577446  6.072423
H    -3.348754  -2.357160  3.176458
H    -2.696102  -2.269142  4.779271
H    -0.298357  -2.534752  3.512332
H    -1.272868  -2.974209  2.147082
H    -0.509407  -4.954054  3.211042
H    -2.269687  -4.872006  3.311497
H    -2.000460  -5.471624  5.379705
H    0.584999  -5.688800  7.566580
H    -0.324860  -6.683331  6.482451
H    1.367676  -3.673033  6.567001
N    -2.633138  1.538418  4.855384
C    -3.274364  2.287320  3.770353
H    -2.520591  2.020568  5.748322
H    -3.567739  3.263055  4.166281
H    -4.179716  1.778038  3.416676
H    -2.579018  2.445003  2.937587
Hg    -0.421017  -1.749188  5.975338
