36
Energy: -574589.11257 eV PBE+vdW (tier 2 basis)
C    0.962618  1.162887  0.472527
C    0.525710  0.951167  1.890161
O    1.456176  0.779583  2.745860
H    0.121158  1.271682  -0.220218
H    1.602568  0.328671  0.159669
H    1.577868  2.073157  0.431833
N    -0.791312  0.968595  2.157577
C    -1.487537  1.140219  3.458519
C    -1.878248  -0.215776  4.078637
O    -1.090610  -0.747369  5.011442
H    -1.390086  1.053376  1.339350
H    -0.773049  1.630101  4.138456
C    -2.655829  2.120260  3.254678
C    -3.332967  2.592206  4.558868
C    -4.612418  1.864077  4.993483
N    -5.746156  2.083071  4.087531
C    -6.323002  1.172669  3.287308
N    -7.534982  1.433261  2.770384
N    -5.702585  0.027370  2.986991
H    -3.387128  1.678154  2.560569
H    -2.237726  2.996139  2.739575
H    -3.567615  3.660924  4.456653
H    -2.624001  2.537498  5.399302
H    -4.911429  2.234988  5.983358
H    -4.459607  0.784935  5.098423
H    -6.201281  2.989465  4.140046
H    -7.921129  0.869273  2.023194
H    -8.129515  2.159284  3.151606
H    -6.224514  -0.724784  2.553889
N    -2.977397  -0.800965  3.749836
C    -3.268257  -2.158183  4.195372
H    -4.709231  -0.146823  3.219069
H    -3.960366  -2.618484  3.479381
H    -3.771046  -2.140512  5.174892
H    -2.369141  -2.779344  4.290551
Hg    0.951580  -0.272002  4.637255
