36
Energy: -574590.03461 eV PBE+vdW (tier 2 basis)
C    0.239081  1.012575  -0.618117
C    -0.011203  0.295915  0.666121
O    1.055625  0.137939  1.406697
H    0.632871  2.016182  -0.409218
H    -0.665906  1.087581  -1.229301
H    1.013611  0.473590  -1.181603
N    -1.220697  -0.132479  0.940743
C    -1.751889  -0.991454  2.002727
C    -3.040799  -1.570197  1.320500
O    -3.562832  -0.857866  0.459167
H    -1.997259  0.048064  0.267213
H    -1.020390  -1.778585  2.242297
C    -2.128316  -0.168381  3.262830
C    -2.342064  -0.998031  4.539258
C    -2.069704  -0.217100  5.837539
N    -0.661641  0.219501  5.910578
C    0.400859  -0.578143  6.161126
N    0.357695  -1.446715  7.175093
N    1.496080  -0.470211  5.379056
H    -3.017286  0.437134  3.035116
H    -1.322311  0.570915  3.420652
H    -1.687824  -1.885545  4.536859
H    -3.370938  -1.380609  4.577640
H    -2.314726  -0.834979  6.709213
H    -2.687566  0.686115  5.911833
H    -0.435415  1.099638  5.457878
H    1.049961  -2.181740  7.276863
H    -0.279683  -1.300759  7.952689
H    2.377747  -0.835375  5.738397
N    -3.545331  -2.752446  1.708150
C    -2.990071  -3.780965  2.579359
H    -4.414358  -2.982476  1.226693
H    -1.912699  -3.641959  2.715461
H    -3.136605  -4.761099  2.111462
H    -3.480958  -3.790301  3.561650
Hg    1.259317  -0.210032  3.383724
