36
Energy: -574587.981666 eV PBE+vdW (tier 2 basis)
C    -0.557390  -0.083731  -1.583815
C    -0.518137  -0.572095  -0.169586
O    0.487195  -1.146129  0.324378
H    0.331987  0.530250  -1.773583
H    -1.458065  0.490553  -1.826164
H    -0.502266  -0.946399  -2.263565
N    -1.616297  -0.385741  0.601085
C    -1.762416  -0.901945  1.954521
C    -1.159108  -2.325502  2.054910
O    -1.341781  -3.160345  1.132972
H    -2.433300  0.033529  0.164779
H    -1.184336  -0.263050  2.644674
C    -3.246658  -0.919328  2.388452
C    -3.791925  0.373582  3.024285
C    -3.871056  1.642834  2.171550
N    -4.734384  1.483879  1.016162
C    -5.127938  2.468293  0.144875
N    -4.615420  3.712361  0.269052
N    -5.984283  2.052840  -0.772349
H    -3.362770  -1.707939  3.144902
H    -3.855326  -1.259918  1.535782
H    -3.189378  0.623649  3.909610
H    -4.798020  0.152374  3.411291
H    -2.869378  1.969371  1.833379
H    -4.254774  2.458070  2.813556
H    -5.310520  0.648750  0.921608
H    -4.057370  4.008079  1.062510
H    -4.920887  4.441464  -0.365986
H    -6.286585  2.800486  -1.408563
N    -0.514888  -2.620753  3.185649
C    0.077473  -3.923683  3.457761
H    -0.339869  -1.873944  3.853260
H    0.195965  -4.040225  4.539713
H    1.076804  -4.007361  2.997089
H    -0.569400  -4.714392  3.065214
Hg    0.676861  -3.553865  -0.142232
