36
Energy: -574588.969976 eV PBE+vdW (tier 2 basis)
C    -0.702574  2.238859  2.215099
C    -0.878758  0.771732  2.523978
O    0.071192  0.413339  3.401006
H    -1.590525  2.652638  1.729792
H    0.182140  2.378446  1.578917
H    -0.509788  2.787662  3.145864
N    -1.840281  0.094254  1.962754
C    -2.356970  -1.191206  2.469661
C    -1.831198  -2.427783  1.697060
O    -0.694135  -2.973960  1.974527
H    -2.667091  1.082958  0.368872
H    -2.024066  -1.390773  3.510948
C    -3.902051  -1.126024  2.577908
C    -4.655942  -0.522150  1.376874
C    -4.887165  0.995525  1.533674
N    -5.185599  1.673094  0.273686
C    -4.252490  2.009630  -0.629429
N    -4.604979  2.694550  -1.727681
N    -2.975082  1.656383  -0.434623
H    -4.127034  -0.534936  3.477532
H    -4.273841  -2.135276  2.806484
H    -5.628329  -1.019879  1.263307
H    -4.112137  -0.692848  0.434678
H    -4.007753  1.472211  1.986128
H    -5.728736  1.185434  2.210288
H    -6.155606  1.862185  0.045895
H    -3.938872  2.897442  -2.462518
H    -5.532908  3.086278  -1.833900
H    -2.257208  2.009420  -1.055193
N    -2.552373  -2.991801  0.748850
C    -2.140324  -4.183360  -0.003271
H    -3.477046  -2.611564  0.572453
H    -2.826021  -4.313864  -0.844171
H    -2.177456  -5.071660  0.639709
H    -1.118255  -4.055108  -0.374890
Hg    0.394084  -1.641650  3.284067
