36
Energy: -574588.483422 eV PBE+vdW (tier 2 basis)
C    0.303304  -1.029228  0.421217
C    -0.061367  -0.992953  1.867480
O    0.697415  -1.551959  2.718087
H    1.115510  -0.313018  0.224783
H    -0.544811  -0.825298  -0.239256
H    0.711739  -2.024264  0.199610
N    -1.191851  -0.377589  2.297270
C    -1.696737  0.916892  1.820891
C    -1.293843  1.981498  2.868902
O    -0.120575  1.915067  3.473525
H    -1.456236  -0.634081  3.248589
H    -1.107275  1.166810  0.924680
C    -3.172905  0.861486  1.400744
C    -4.224756  0.565567  2.490663
C    -5.004442  1.771561  3.035634
N    -5.805197  2.461864  2.018419
C    -5.574434  3.680048  1.503978
N    -6.546654  4.292019  0.809801
N    -4.391355  4.283797  1.665103
H    -3.227742  0.079092  0.631819
H    -3.410688  1.792346  0.868059
H    -3.777466  0.057304  3.359406
H    -4.949668  -0.157371  2.091523
H    -4.338742  2.505674  3.502846
H    -5.696078  1.431782  3.818774
H    -6.663736  2.004276  1.726810
H    -6.358012  5.115897  0.251771
H    -7.509387  3.980617  0.856834
H    -4.286475  5.261800  1.423627
N    -2.002863  3.050709  3.021645
C    -1.728395  4.040209  4.044306
H    -3.563977  3.787329  2.024401
H    -2.657622  4.579304  4.274579
H    -1.018055  4.787543  3.654469
H    -1.309754  3.608107  4.961586
Hg    0.943433  0.159004  4.315158
