36
Energy: -574588.045067 eV PBE+vdW (tier 2 basis)
C    -0.368497  -2.674028  0.301854
C    -0.350363  -1.824592  1.540302
O    0.730389  -1.289093  1.885113
H    -0.202162  -2.026894  -0.570564
H    -1.310730  -3.218690  0.171907
H    0.465694  -3.384396  0.341765
N    -1.512295  -1.684590  2.224274
C    -1.710177  -0.784867  3.353883
C    -1.022717  -1.292572  4.648924
O    -0.080168  -0.612846  5.148133
H    -2.327224  -2.149463  1.834548
H    -1.167739  0.149383  3.134903
C    -3.194438  -0.413930  3.551061
C    -3.693900  0.597198  2.508213
C    -5.185129  0.972825  2.634273
N    -5.529045  1.726999  3.831201
C    -6.042433  1.211104  4.988053
N    -6.332265  2.064928  5.999703
N    -6.236648  -0.075150  5.238308
H    -3.301395  0.002758  4.563226
H    -3.811056  -1.325345  3.528082
H    -3.556268  0.201567  1.489993
H    -3.089280  1.515502  2.564712
H    -5.820452  0.077707  2.577411
H    -5.461746  1.593224  1.771414
H    -5.366565  2.730063  3.792204
H    -6.758673  1.661089  6.827809
H    -6.394002  3.069677  5.879630
H    -6.162663  -0.647976  4.392058
N    -1.403549  -2.403820  5.277980
C    -2.542226  -3.286937  5.033996
H    -0.857088  -2.594421  6.119568
H    -2.302623  -4.266622  5.460047
H    -2.716601  -3.420604  3.962892
H    -3.451774  -2.911118  5.521658
Hg    1.471295  0.255989  3.583955
