36
Energy: -574589.996194 eV PBE+vdW (tier 2 basis)
C    0.171275  1.174168  2.110680
C    -1.071583  0.732050  2.783811
O    -1.061650  0.642824  4.071898
H    0.318164  2.250265  2.290476
H    0.175544  0.962144  1.038078
H    1.020180  0.666836  2.591834
N    -2.176514  0.399807  2.093363
C    -2.734480  1.223514  1.004679
C    -2.701773  2.690997  1.498896
O    -2.728602  2.916321  2.729856
H    -2.870178  -0.112054  2.634991
H    -2.127563  1.081191  0.101530
C    -4.197495  0.801941  0.693980
C    -5.308123  1.418926  1.572393
C    -5.545657  0.787421  2.961002
N    -6.149972  1.745389  3.891661
C    -5.820939  2.037480  5.164314
N    -6.739306  2.684343  5.906801
N    -4.646319  1.721018  5.739049
H    -4.249611  -0.297978  0.682333
H    -4.395093  1.104302  -0.342355
H    -6.247287  1.349686  1.006135
H    -5.117704  2.492122  1.708961
H    -4.619316  0.423754  3.419922
H    -6.196964  -0.095987  2.881001
H    -7.001961  2.190186  3.559789
H    -6.482965  3.162125  6.763004
H    -7.726248  2.658097  5.674784
H    -4.636544  1.808638  6.751867
N    -2.690200  3.676187  0.595955
C    -2.674385  3.589362  -0.865533
H    -2.734414  4.609575  1.003553
H    -2.198174  4.491901  -1.260726
H    -3.690736  3.524270  -1.275974
H    -2.089238  2.728859  -1.206369
Hg    -2.855217  1.288981  4.893621
