36
Energy: -574587.864365 eV PBE+vdW (tier 2 basis)
C    -0.918217  1.689235  0.376008
C    -0.400008  0.469912  1.069155
O    0.763375  0.112875  0.720168
H    -0.755618  2.550760  1.041409
H    -0.355118  1.843057  -0.548534
H    -2.010237  1.660861  0.140370
N    -1.005967  -0.151198  2.114304
C    -2.368550  -0.680328  2.280675
C    -2.394756  -2.097416  1.629637
O    -1.540420  -2.461837  0.780343
H    -0.329396  -0.715503  2.630076
H    -2.494624  -0.807474  3.367792
C    -3.517677  0.200580  1.766812
C    -3.679097  1.516363  2.540425
C    -4.822634  2.403041  1.969625
N    -4.387894  3.619389  1.291220
C    -3.958106  3.677598  0.001485
N    -3.882088  4.893375  -0.589650
N    -3.643881  2.526959  -0.585514
H    -4.442332  -0.384237  1.882582
H    -3.426802  0.380820  0.688244
H    -2.747736  2.096486  2.548421
H    -3.901685  1.292376  3.593193
H    -5.473055  2.735044  2.786196
H    -5.441901  1.823974  1.272301
H    -4.491003  4.493579  1.798159
H    -3.478217  4.986446  -1.513865
H    -4.365703  5.707400  -0.224070
H    -3.346225  2.670849  -1.556844
N    -3.387291  -2.910573  1.993728
C    -3.586162  -4.257559  1.459818
H    -4.094118  -2.555415  2.632769
H    -4.050555  -4.877103  2.233318
H    -2.618342  -4.678175  1.172456
H    -4.238690  -4.233058  0.576649
Hg    0.941699  -2.230648  0.682867
