36
Energy: -574587.907873 eV PBE+vdW (tier 2 basis)
C    -0.012189  0.547969  0.220521
C    -0.027792  0.329510  1.704913
O    0.898993  0.897809  2.358413
H    -0.962338  0.244433  -0.253666
H    0.830042  -0.007521  -0.216074
H    0.171432  1.611892  0.022505
N    -1.005146  -0.434568  2.218387
C    -1.506273  -0.475025  3.602069
C    -0.883328  -1.637348  4.401941
O    0.375350  -1.728011  4.536277
H    -1.684108  -0.786548  1.525586
H    -1.117824  0.426237  4.110191
C    -3.045149  -0.299002  3.596183
C    -4.041729  -1.399530  3.140890
C    -3.743393  -2.310031  1.931141
N    -3.210179  -1.649141  0.739781
C    -3.836453  -0.688546  -0.056493
N    -5.113073  -0.335441  0.239083
N    -3.072261  -0.196773  -0.995149
H    -3.217256  0.598536  2.985432
H    -3.342178  -0.002888  4.612954
H    -4.988594  -0.866312  2.982781
H    -4.283162  -2.088335  3.966957
H    -4.658071  -2.884747  1.702092
H    -2.988136  -3.060843  2.200558
H    -2.566661  -2.204388  0.178258
H    -5.750287  -0.986319  0.687536
H    -5.554928  0.390542  -0.316088
H    -3.533057  0.509488  -1.577535
N    -1.664970  -2.537183  4.982007
C    -1.173937  -3.634777  5.819251
H    -2.664391  -2.478792  4.812784
H    -1.960499  -3.911283  6.527320
H    -0.280085  -3.307908  6.359139
H    -0.915615  -4.505504  5.202570
Hg    1.688636  0.169997  4.366449
