36
Energy: -574588.470852 eV PBE+vdW (tier 2 basis)
C    0.002028  -0.134854  1.236126
C    -0.253316  0.025283  2.736926
O    0.946948  -0.181934  3.471517
H    -0.757679  0.340685  0.608055
H    0.068117  -1.192865  0.948500
H    0.973043  0.324630  1.023071
N    -1.293464  -0.874682  3.290448
C    -2.281788  -1.737524  2.642140
C    -1.714834  -3.182044  2.347514
O    -0.646004  -3.672515  2.850418
H    -1.579178  -0.555603  4.212360
H    -3.009118  -1.949986  3.445900
C    -3.079191  -1.103445  1.480836
C    -4.030440  0.032492  1.893976
C    -3.474052  1.250682  2.633687
N    -2.466982  2.041042  1.896578
C    -1.243017  2.348309  2.357267
N    -0.721278  3.554758  2.105726
N    -0.526579  1.460503  3.089685
H    -3.722627  -1.858826  1.010238
H    -2.400710  -0.780258  0.684845
H    -4.826845  -0.373178  2.537699
H    -4.543666  0.375760  0.983367
H    -3.037039  0.994101  3.603280
H    -4.312339  1.929596  2.846937
H    -2.833158  2.661624  1.177693
H    0.277344  3.722020  2.176051
H    -1.306888  4.351792  1.875075
H    0.246886  1.843811  3.631336
N    -2.456961  -3.998071  1.618178
C    -2.125790  -5.407693  1.373963
H    -3.338427  -3.654002  1.253021
H    -2.831347  -5.802341  0.638733
H    -2.202703  -5.985140  2.303416
H    -1.105027  -5.490461  0.985645
Hg    0.787627  -2.258342  3.696454
