36
Energy: -574589.668259 eV PBE+vdW (tier 2 basis)
C    -0.185102  0.559827  -0.688349
C    0.016449  0.277317  0.757841
O    1.254330  0.248859  1.176535
H    -0.337810  -0.386161  -1.231469
H    0.716260  1.030468  -1.094665
H    -1.056635  1.201641  -0.861411
N    -0.967679  0.038562  1.611283
C    -2.398826  -0.184336  1.399286
C    -3.012477  0.553802  2.619819
O    -2.248909  0.747429  3.587919
H    -0.891871  0.303799  2.633849
H    -2.715980  0.257042  0.447028
C    -2.741882  -1.709063  1.409915
C    -3.069088  -2.379934  2.761983
C    -1.983858  -2.556735  3.841035
N    -1.007170  -3.616260  3.529581
C    0.326710  -3.531145  3.562883
N    1.082982  -4.473967  2.985974
N    1.013137  -2.495696  4.169589
H    -1.928373  -2.237273  0.889567
H    -3.628541  -1.842410  0.774976
H    -3.885291  -1.829231  3.252220
H    -3.502476  -3.367428  2.538653
H    -2.477985  -2.823813  4.786051
H    -1.447323  -1.620444  4.029183
H    -1.406357  -4.524066  3.291684
H    2.053037  -4.557817  3.275163
H    0.690283  -5.233740  2.439010
H    0.481167  -2.077111  4.937011
N    -4.299290  0.903651  2.613185
C    -5.294223  0.705422  1.560764
H    -4.612243  1.352657  3.473509
H    -5.989485  1.550959  1.569298
H    -5.866001  -0.219052  1.718239
H    -4.822168  0.674230  0.573388
Hg    1.412246  -1.011559  2.812595
