36
Energy: -574589.365707 eV PBE+vdW (tier 2 basis)
C    0.749173  -0.543925  1.976760
C    -0.113307  0.510168  2.636124
O    0.280686  1.694865  2.648961
H    0.608612  -0.452929  0.889220
H    0.502314  -1.563074  2.288824
H    1.802233  -0.323448  2.182410
N    -1.271391  0.163504  3.273656
C    -2.235889  -0.812141  2.845442
C    -3.434436  -0.115952  2.088823
O    -3.738811  1.089477  2.259877
H    -0.520515  0.044601  5.320543
H    -1.777415  -1.478533  2.094983
C    -2.803584  -1.641742  4.022141
C    -1.969088  -2.871295  4.415574
C    -0.677215  -2.640622  5.209056
N    -0.904539  -2.169075  6.582614
C    -0.512875  -0.997026  7.101040
N    -0.405028  -0.860531  8.429734
N    -0.242931  0.046892  6.302817
H    -3.809714  -1.995271  3.761587
H    -2.951090  -0.964656  4.878149
H    -1.700200  -3.442006  3.512847
H    -2.611626  -3.548049  4.998346
H    0.001985  -1.934908  4.717033
H    -0.130601  -3.591573  5.280118
H    -1.270796  -2.852716  7.239568
H    -0.346889  0.053467  8.863474
H    -0.358419  -1.665314  9.044097
H    0.312925  0.821805  6.644101
N    -4.164207  -0.867520  1.265033
C    -4.012983  -2.281368  0.923151
H    -4.957393  -0.377518  0.851837
H    -2.959752  -2.553131  0.790243
H    -4.520519  -2.451008  -0.031346
H    -4.468631  -2.934091  1.679466
Hg    -2.030685  2.295679  3.386345
