36
Energy: -574588.737484 eV PBE+vdW (tier 2 basis)
C    0.030701  1.417471  0.239123
C    0.016757  0.705539  1.583512
O    1.221193  0.092875  1.725597
H    -0.974635  1.763950  -0.008263
H    0.413384  0.746315  -0.538485
H    0.717995  2.271589  0.297456
N    -1.008637  0.800578  2.337231
C    -1.638256  0.116821  3.439745
C    -1.083576  0.421632  4.870140
O    0.022095  -0.011910  5.350549
H    -4.373547  -4.368292  0.050011
H    -2.663649  0.530648  3.478252
C    -1.791601  -1.414462  3.222746
C    -2.952011  -2.055130  4.006060
C    -4.319713  -2.010481  3.312888
N    -4.375631  -2.964513  2.195173
C    -5.341954  -3.012683  1.262223
N    -6.393228  -2.186882  1.328851
N    -5.235912  -3.872412  0.239908
H    -0.854452  -1.930879  3.486599
H    -1.917811  -1.567529  2.141760
H    -3.067022  -1.576101  4.989792
H    -2.709610  -3.103247  4.239406
H    -4.523387  -1.004455  2.914557
H    -5.101710  -2.251466  4.050887
H    -3.769862  -3.777443  2.260296
H    -7.053479  -2.120100  0.562582
H    -6.644106  -1.718604  2.190329
H    -6.025658  -4.077859  -0.361082
N    -1.850810  1.161841  5.652496
C    -1.499030  1.569680  7.015318
H    -2.734941  1.483366  5.268180
H    -2.110603  2.434101  7.287296
H    -0.438371  1.838261  7.055993
H    -1.685518  0.752705  7.723669
Hg    1.375872  -0.472647  3.703973
