36
Energy: -574589.459147 eV PBE+vdW (tier 2 basis)
C    1.005596  0.547832  1.054629
C    0.565289  0.714568  2.468241
O    1.476440  0.563607  3.376837
H    0.885331  1.498891  0.514343
H    0.398793  -0.213910  0.545186
H    2.057818  0.253283  1.026698
N    -0.700771  0.999420  2.769700
C    -1.858754  1.248745  1.891284
C    -1.841525  2.708302  1.375914
O    -1.444392  3.631916  2.105835
H    -0.952542  1.005710  3.757294
H    -1.783154  0.549423  1.047202
C    -3.157670  0.905986  2.682665
C    -4.008922  1.986741  3.387272
C    -3.448382  2.935819  4.474218
N    -2.428703  2.354240  5.365818
C    -1.190153  2.838166  5.550157
N    -0.691134  3.769133  4.734259
N    -0.328479  2.335968  6.515761
H    -2.901404  0.099627  3.388605
H    -3.841312  0.427400  1.969175
H    -4.854259  1.431268  3.817652
H    -4.459581  2.647973  2.632939
H    -4.286065  3.273283  5.100025
H    -3.013028  3.828013  4.020355
H    -2.721576  1.603506  5.987818
H    -1.036553  3.884993  3.758578
H    0.133151  4.277901  5.037969
H    -0.770114  1.806689  7.271850
N    -2.321528  2.882525  0.138710
C    -2.484299  4.188081  -0.502723
H    -2.597096  2.063181  -0.395222
H    -2.167336  4.964144  0.198107
H    -3.534983  4.342741  -0.775334
H    -1.868133  4.240582  -1.408168
Hg    0.955356  1.238621  5.302051
