36
Energy: -574589.621766 eV PBE+vdW (tier 2 basis)
C    -0.945272  0.959032  -0.022506
C    -1.673524  0.339062  1.137359
O    -2.311401  -0.721588  0.975104
H    -0.516544  1.943852  0.191053
H    -1.636275  1.041869  -0.870261
H    -0.139888  0.278487  -0.331320
N    -1.575792  1.008634  2.319732
C    -2.152180  0.768010  3.655432
C    -1.613008  -0.531324  4.295098
O    -1.550190  -1.688763  3.734484
H    -1.012215  1.851275  2.270893
H    -1.712667  1.575261  4.252193
C    -3.700925  0.984544  3.789988
C    -4.474413  -0.236560  3.311994
C    -5.997737  -0.418790  3.227564
N    -6.183143  -1.859652  2.889609
C    -5.805011  -2.375641  1.674239
N    -6.516328  -2.013693  0.603120
N    -4.776772  -3.244205  1.596609
H    -3.944515  1.887853  3.214063
H    -3.922465  1.206553  4.844017
H    -4.149883  -1.060960  3.974815
H    -4.117444  -0.429848  2.290310
H    -6.455810  0.206901  2.453111
H    -6.524712  -0.229364  4.169474
H    -5.911115  -2.474024  3.656193
H    -7.461278  -1.658742  0.721991
H    -6.202562  -2.208904  -0.342275
H    -4.713183  -3.791143  0.736682
N    -1.112185  -0.454339  5.520519
C    -0.899468  0.725709  6.368389
H    -0.770452  -1.346243  5.882313
H    -0.533623  0.375463  7.337532
H    -1.835002  1.271151  6.536164
H    -0.141149  1.392291  5.937778
Hg    -2.988970  -2.555982  2.426211
