36
Energy: -574589.542347 eV PBE+vdW (tier 2 basis)
C    -0.194950  2.611905  0.512385
C    -0.350329  1.207826  0.005569
O    0.234140  0.729229  -0.936792
H    0.187885  2.627448  1.542984
H    -1.150933  3.155265  0.494304
H    0.515558  3.134614  -0.133745
N    -1.241625  0.311227  0.721438
C    -2.367525  0.700358  1.569709
C    -1.823938  1.273250  2.894045
O    -0.827685  0.736762  3.506130
H    -1.479547  -0.428835  0.062999
H    -2.985894  1.475344  1.085854
C    -3.275148  -0.529707  1.893067
C    -3.626423  -1.497535  0.737624
C    -2.667855  -2.667167  0.399027
N    -2.448086  -3.623222  1.495880
C    -1.377223  -3.697941  2.302866
N    -1.440320  -4.398622  3.438100
N    -0.167467  -3.082532  2.040421
H    -4.213833  -0.122829  2.291842
H    -2.848429  -1.105096  2.734170
H    -3.798582  -0.941617  -0.197710
H    -4.604355  -1.937480  0.980346
H    -1.687429  -2.337746  0.036545
H    -3.105845  -3.232237  -0.434044
H    -3.209274  -4.278158  1.669944
H    -0.568522  -4.655392  3.892063
H    -2.295579  -4.825428  3.781008
H    0.018327  -3.026195  1.035131
N    -2.416167  2.326407  3.414054
C    -2.063074  2.968953  4.684990
H    -3.161563  2.753945  2.867185
H    -2.984754  3.244364  5.207966
H    -1.473718  3.874536  4.492206
H    -1.479258  2.276324  5.295412
Hg    -0.217175  -1.123081  2.710482
