36
Energy: -574587.968818 eV PBE+vdW (tier 2 basis)
C    -0.669921  -0.564429  -0.322796
C    -0.579818  -0.611452  1.175139
O    0.352212  -1.286734  1.694099
H    -0.575614  -1.585094  -0.715025
H    0.187005  0.004386  -0.710296
H    -1.600353  -0.117724  -0.690513
N    -1.521844  0.061707  1.870310
C    -1.842011  0.048924  3.304729
C    -0.954509  1.002877  4.114025
O    0.267093  1.195902  3.859341
H    -2.167372  0.592192  1.293082
H    -2.867445  0.440919  3.353536
C    -1.840803  -1.355708  3.965039
C    -2.797097  -2.384867  3.341542
C    -4.279123  -2.289422  3.752517
N    -4.516045  -2.599501  5.157648
C    -4.672588  -1.695659  6.166196
N    -4.579455  -2.130841  7.443331
N    -4.913727  -0.395214  6.003907
H    -2.076766  -1.206812  5.030000
H    -0.826360  -1.768110  3.939056
H    -2.430200  -3.387726  3.602807
H    -2.753147  -2.339679  2.243392
H    -4.862243  -3.001356  3.153641
H    -4.697950  -1.298571  3.529656
H    -4.483443  -3.585594  5.406402
H    -4.907653  -1.504201  8.171103
H    -4.430392  -3.102609  7.690385
H    -5.153654  -0.189880  5.028483
N    -1.490716  1.664413  5.148777
C    -2.891210  1.859370  5.478331
H    -0.802865  2.181743  5.699941
H    -3.467360  2.205326  4.609931
H    -2.962957  2.617514  6.263151
H    -3.370177  0.924203  5.862506
Hg    1.826334  -0.473419  3.327876
