36
Energy: -574590.336351 eV PBE+vdW (tier 2 basis)
C    -0.008191  0.222578  -0.038893
C    -0.199094  0.100341  1.437098
O    0.865025  -0.076703  2.128427
H    0.666868  1.063972  -0.245653
H    -0.949263  0.369292  -0.579412
H    0.488317  -0.684435  -0.409733
N    -1.446762  0.180377  1.927701
C    -1.832057  0.069780  3.338446
C    -1.776720  -1.413464  3.791092
O    -0.731384  -1.826002  4.336315
H    -2.185116  0.303860  1.238101
H    -1.028807  0.552775  3.906765
C    -3.082861  0.855319  3.747430
C    -3.245056  0.877177  5.285654
C    -2.344269  1.839046  6.089110
N    -0.891091  1.581713  6.025518
C    -0.155733  0.683758  6.729216
N    -0.627833  0.165923  7.868130
N    1.051869  0.338905  6.239013
H    -3.991605  0.428381  3.294938
H    -3.004827  1.880479  3.353739
H    -3.150354  -0.142199  5.691156
H    -4.275602  1.185022  5.511636
H    -2.683648  1.844789  7.134080
H    -2.476580  2.869096  5.734246
H    -0.336021  2.252032  5.503157
H    -0.174335  -0.629015  8.305332
H    -1.335640  0.646475  8.414190
H    1.683771  -0.148682  6.871674
N    -2.836774  -2.184829  3.543171
C    -2.900353  -3.615123  3.851831
H    -3.662315  -1.758964  3.132437
H    -3.286076  -4.158196  2.982115
H    -3.562208  -3.793234  4.708605
H    -1.894114  -3.968261  4.090332
Hg    1.091873  -0.085471  4.220696
