36
Energy: -574589.930326 eV PBE+vdW (tier 2 basis)
C    -0.507748  1.773731  0.250463
C    -0.425212  0.840435  1.409901
O    0.738253  0.813982  2.005759
H    -0.279584  2.795877  0.579915
H    -1.489461  1.745711  -0.232896
H    0.263478  1.494026  -0.481777
N    -1.474947  0.113113  1.733223
C    -1.625255  -1.050139  2.610631
C    -2.761290  -1.854804  1.883648
O    -3.550050  -1.209239  1.193863
H    -2.340946  0.187364  1.157845
H    -0.685692  -1.628538  2.613594
C    -2.059373  -0.690167  4.063361
C    -1.687200  -1.793928  5.067673
C    -1.780050  -1.453710  6.562242
N    -1.087430  -0.237296  7.053579
C    0.043927  0.339230  6.639175
N    0.288679  1.625846  6.940201
N    0.996471  -0.310489  5.898917
H    -3.141297  -0.494766  4.076552
H    -1.602163  0.274205  4.344292
H    -0.688978  -2.195977  4.829739
H    -2.367280  -2.648509  4.938378
H    -1.435438  -2.318797  7.147909
H    -2.831787  -1.295690  6.834289
H    -1.565073  0.225290  7.825168
H    1.252891  1.943217  6.972075
H    -0.407388  2.217571  7.382818
H    0.961151  -1.324505  6.001957
N    -2.818911  -3.174466  2.113296
C    -3.849401  -4.034264  1.521913
H    -2.039972  -3.625767  2.580977
H    -4.113411  -4.823404  2.233150
H    -3.489257  -4.488757  0.590187
H    -4.731131  -3.425927  1.303362
Hg    1.012418  0.219359  3.929445
