36
Energy: -574589.784355 eV PBE+vdW (tier 2 basis)
C    0.632073  3.100530  2.295790
C    0.511091  1.734489  1.686595
O    1.409343  1.111484  1.164452
H    0.385864  3.087590  3.367667
H    -0.040091  3.818509  1.803433
H    1.662338  3.446158  2.176096
N    -0.763856  1.066170  1.760107
C    -2.069686  1.668519  2.007137
C    -2.195796  2.028396  3.501371
O    -1.752785  1.258620  4.435536
H    -0.777264  0.365714  1.022832
H    -2.210414  2.588632  1.415304
C    -3.209363  0.662701  1.668955
C    -3.184725  -0.104217  0.326214
C    -2.178810  -1.270133  0.092837
N    -1.873454  -2.017787  1.320248
C    -0.649581  -2.437573  1.729449
N    0.248281  -2.854907  0.835411
N    -0.382093  -2.375361  3.051051
H    -4.148251  1.232469  1.690879
H    -3.307346  -0.056112  2.500972
H    -3.068384  0.594127  -0.515159
H    -4.197208  -0.517382  0.218094
H    -1.221272  -0.915105  -0.316848
H    -2.607301  -1.931228  -0.673932
H    -2.633715  -2.199012  1.969419
H    1.233891  -2.927000  1.069660
H    -0.038879  -3.212023  -0.071416
H    0.416649  -2.901517  3.403742
N    -2.815392  3.141086  3.828554
C    -3.093243  3.602466  5.193800
H    -3.108187  3.747144  3.063987
H    -3.030445  2.759502  5.885592
H    -4.099341  4.033492  5.219975
H    -2.364316  4.370512  5.482201
Hg    -0.924537  -0.569235  3.852539
