36
Energy: -574587.694871 eV PBE+vdW (tier 2 basis)
C    -3.120709  1.529981  -0.796276
C    -2.119398  1.211995  0.263566
O    -1.284268  2.100647  0.590295
H    -3.695317  0.636497  -1.092779
H    -2.582509  1.924661  -1.669481
H    -3.789978  2.330880  -0.452828
N    -2.076459  -0.008299  0.850629
C    -3.258355  -0.740969  1.319740
C    -3.666974  -0.074978  2.648494
O    -2.812052  0.537305  3.354855
H    -1.277599  -0.116728  1.478931
H    -4.050508  -0.636553  0.567234
C    -2.945593  -2.238568  1.540190
C    -3.183785  -3.183102  0.353766
C    -2.147075  -3.206445  -0.771853
N    -2.059980  -2.062289  -1.693229
C    -3.099374  -1.573397  -2.463349
N    -2.799401  -1.263534  -3.748298
N    -4.261915  -1.365490  -1.875300
H    -3.585179  -2.599666  2.358047
H    -1.916998  -2.332404  1.923984
H    -4.191018  -3.032572  -0.054512
H    -3.171136  -4.206434  0.756843
H    -2.341397  -4.111021  -1.376758
H    -1.137460  -3.326163  -0.355941
H    -1.141133  -1.972386  -2.123528
H    -2.001720  -1.660831  -4.233390
H    -3.454286  -0.734873  -4.313449
H    -4.980448  -1.105017  -2.561344
N    -4.920384  -0.185497  3.094226
C    -5.998093  -1.023975  2.578441
H    -5.084106  0.277381  3.990286
H    -6.950212  -0.505668  2.737684
H    -6.034332  -1.986606  3.108707
H    -5.873593  -1.208060  1.507076
Hg    -1.120878  2.327239  2.962305
