36
Energy: -574587.881713 eV PBE+vdW (tier 2 basis)
C    1.710362  -0.130086  1.114228
C    0.521937  0.138812  1.978934
O    0.283845  1.274450  2.482196
H    1.672796  0.548915  0.251019
H    1.771609  -1.163684  0.757688
H    2.629115  0.113653  1.665284
N    -0.339668  -0.868643  2.228178
C    -1.591438  -0.700804  2.958726
C    -1.384115  0.024161  4.292049
O    -0.335643  -0.106476  4.989342
H    -0.188907  -1.756681  1.755204
H    -2.257329  -0.073399  2.345000
C    -2.283217  -2.074765  3.143529
C    -1.568995  -3.139786  4.002970
C    -2.082538  -3.331857  5.446441
N    -1.576363  -2.386883  6.434252
C    -2.279593  -1.418575  7.093398
N    -1.691009  -0.815856  8.155836
N    -3.454539  -0.937991  6.709801
H    -2.433804  -2.472561  2.128931
H    -3.301666  -1.898066  3.518462
H    -0.480982  -2.977403  4.029771
H    -1.712058  -4.112042  3.512776
H    -1.776299  -4.331855  5.787236
H    -3.180217  -3.324476  5.471928
H    -0.619895  -2.548764  6.744020
H    -2.270407  -0.164765  8.677000
H    -0.933615  -1.254694  8.668167
H    -3.880451  -1.509141  5.972684
N    -2.413584  0.739144  4.773249
C    -3.661119  1.113149  4.108602
H    -2.221470  1.189529  5.668441
H    -4.188659  0.240652  3.709613
H    -4.306426  1.598659  4.845382
H    -3.458979  1.822067  3.290977
Hg    1.352013  1.646632  4.590604
