36
Energy: -574587.824632 eV PBE+vdW (tier 2 basis)
C    -0.024427  -0.044179  -0.284670
C    0.140075  -0.142401  1.194735
O    1.274906  -0.473261  1.661210
H    0.631505  0.742312  -0.681307
H    -1.065046  0.129786  -0.575537
H    0.321810  -0.991207  -0.724268
N    -0.892038  0.069618  2.039117
C    -1.883138  1.138262  1.966139
C    -1.277589  2.362592  2.688339
O    -0.294363  2.288765  3.489495
H    -0.717374  -0.263130  2.989632
H    -2.050003  1.407562  0.908195
C    -3.199066  0.627069  2.599832
C    -4.447115  1.522474  2.553895
C    -4.959123  1.895580  1.152358
N    -4.458992  3.187567  0.635383
C    -3.835617  3.280788  -0.602023
N    -4.073118  4.401174  -1.325617
N    -3.015601  2.308075  -0.930661
H    -3.001745  0.363240  3.651283
H    -3.426343  -0.316721  2.082123
H    -4.323055  2.426780  3.168823
H    -5.243815  0.954084  3.053052
H    -6.056309  1.967415  1.179529
H    -4.705513  1.124986  0.415217
H    -5.035943  3.986933  0.892381
H    -3.534686  4.591568  -2.163208
H    -4.868114  5.007629  -1.152480
H    -2.653466  2.427356  -1.882167
N    -1.861175  3.536647  2.474053
C    -1.445079  4.789439  3.103444
H    -2.706113  3.539332  1.892595
H    -1.798880  5.622969  2.489861
H    -0.353381  4.821507  3.176594
H    -1.866616  4.879073  4.113681
Hg    1.619323  0.795244  3.591238
