36
Energy: -574590.473904 eV PBE+vdW (tier 2 basis)
C    -0.388312  -1.114269  1.004636
C    -1.108311  -0.631444  2.228146
O    -1.513489  -1.412323  3.110541
H    -0.121236  -0.315730  0.304286
H    -1.013335  -1.854464  0.489462
H    0.525557  -1.636526  1.318685
N    -1.294491  0.714033  2.353859
C    -1.930511  1.332122  3.516917
C    -1.378605  0.702731  4.813484
O    -2.049306  -0.042655  5.628121
H    -0.963370  1.324923  1.613727
H    -1.545126  2.361819  3.543244
C    -3.483005  1.462543  3.448042
C    -4.244551  0.387687  2.637290
C    -5.601969  -0.015084  3.260040
N    -6.056613  -1.342931  2.844353
C    -5.828258  -2.517495  3.464582
N    -6.556736  -3.581458  3.077905
N    -4.924256  -2.668106  4.446212
H    -3.697374  2.449508  3.020393
H    -3.861187  1.522434  4.481148
H    -3.635367  -0.518134  2.515163
H    -4.411785  0.742734  1.612061
H    -6.389068  0.697165  2.982878
H    -5.569951  0.007200  4.360711
H    -6.618715  -1.390669  2.000390
H    -7.445247  -3.470499  2.602098
H    -6.291275  -4.523857  3.338172
H    -5.003740  -3.531465  4.976653
N    -0.164100  1.034710  5.208463
C    0.771687  1.984364  4.598858
H    0.135036  0.577992  6.071402
H    0.325189  2.983778  4.519483
H    1.094009  1.636795  3.610643
H    1.648197  2.053978  5.248105
Hg    -3.375168  -1.446999  4.921859
