36
Energy: -574588.556096 eV PBE+vdW (tier 2 basis)
C    -2.382807  -1.147987  -0.364672
C    -1.142877  -0.826059  0.409054
O    -0.017985  -1.204327  0.001737
H    -2.563387  -0.357883  -1.109846
H    -3.268989  -1.248287  0.271487
H    -2.214344  -2.078964  -0.916551
N    -1.216865  -0.106054  1.567232
C    -2.103943  1.021070  1.808370
C    -1.505937  2.291363  1.150532
O    -0.606711  2.219796  0.201345
H    -0.323515  -0.062528  2.060324
H    -3.050611  0.827412  1.280724
C    -2.363117  1.221130  3.308890
C    -3.186909  0.100547  3.968473
C    -4.709942  0.248947  3.889748
N    -5.187158  1.280528  4.824044
C    -6.449937  1.731072  4.902066
N    -7.403680  1.214798  4.117112
N    -6.751730  2.726675  5.747142
H    -2.849265  2.202207  3.427039
H    -1.391881  1.308398  3.819418
H    -2.899057  0.002798  5.026461
H    -2.924166  -0.868256  3.520191
H    -5.172384  -0.720215  4.137384
H    -5.028906  0.529193  2.873345
H    -4.575585  1.505170  5.603287
H    -8.329042  1.626484  4.080186
H    -7.281284  0.322456  3.655651
H    -7.712923  2.953927  5.973587
N    -2.042862  3.429732  1.402440
C    -1.551086  4.749003  1.174286
H    -6.031303  3.254223  6.224692
H    -0.454696  4.804707  1.149300
H    -1.938252  5.409186  1.967732
H    -1.975926  5.141443  0.235117
Hg    1.223896  0.912699  -0.237069
