36
Energy: -574588.587541 eV PBE+vdW (tier 2 basis)
C    2.250806  0.034944  0.620553
C    1.341073  -0.145709  1.800334
O    1.830772  -0.741419  2.809346
H    1.740567  0.441194  -0.259616
H    2.693866  -0.937190  0.365990
H    3.079733  0.696034  0.907942
N    0.085051  0.324376  1.698157
C    -1.134104  0.077308  2.495589
C    -1.313654  0.991223  3.713028
O    -0.391603  1.318982  4.539347
H    -0.087623  0.826825  0.832065
H    -1.944554  0.380526  1.819466
C    -1.400623  -1.403468  2.851881
C    -1.857808  -2.247282  1.653981
C    -3.178167  -1.791670  1.012107
N    -4.325265  -1.809227  1.914510
C    -5.077480  -0.711213  2.227554
N    -6.366700  -0.934093  2.571572
N    -4.512372  0.490909  2.189545
H    -2.188992  -1.416516  3.619581
H    -0.515882  -1.872637  3.303559
H    -1.951112  -3.290050  1.989603
H    -1.091506  -2.258545  0.864137
H    -3.397218  -2.461182  0.166003
H    -3.114026  -0.779154  0.596171
H    -4.742396  -2.717494  2.100222
H    -6.927363  -0.194838  2.977129
H    -6.846537  -1.800064  2.351772
H    -5.228925  1.219345  2.272261
N    -2.536847  1.455296  3.883184
C    -2.955820  2.255378  5.029385
H    -3.264632  1.155195  3.164075
H    -2.745307  3.318435  4.848907
H    -2.422096  1.943124  5.933214
H    -4.033815  2.127605  5.165462
Hg    1.263241  -0.141833  4.921956
