36
Energy: -574587.769759 eV PBE+vdW (tier 2 basis)
C    -1.008425  0.406068  -0.100713
C    -0.956704  0.091144  1.360188
O    -0.229870  -0.861649  1.755880
H    -0.151240  1.042817  -0.368480
H    -1.942261  0.900682  -0.388143
H    -0.894634  -0.526983  -0.665422
N    -1.691867  0.792875  2.258547
C    -1.854046  2.247008  2.262790
C    -0.644464  2.796214  3.062906
O    -0.041017  2.051088  3.878301
H    -1.609619  0.419041  3.206075
H    -1.814055  2.603554  1.224888
C    -3.196621  2.650488  2.913749
C    -4.412135  2.132023  2.136790
C    -5.776314  2.402290  2.804541
N    -6.213475  3.792411  2.776385
C    -6.106355  4.698815  3.791784
N    -6.672599  5.919425  3.632888
N    -5.432244  4.514944  4.918110
H    -3.227337  3.745890  3.001205
H    -3.202293  2.259407  3.944724
H    -4.336255  1.041143  2.016923
H    -4.421762  2.554716  1.119857
H    -5.781586  2.045075  3.843841
H    -6.544087  1.818763  2.278706
H    -6.653232  4.104971  1.913622
H    -6.586195  6.566308  4.410878
H    -7.375589  6.118121  2.929577
H    -5.161393  3.536569  5.059509
N    -0.260656  4.068944  2.915533
C    -0.889692  5.143086  2.155480
H    0.538720  4.324070  3.497961
H    -1.474549  4.744301  1.321021
H    -0.103931  5.788154  1.746524
H    -1.539461  5.754195  2.797826
Hg    1.020033  -0.322120  3.733112
