36
Energy: -574589.809212 eV PBE+vdW (tier 2 basis)
C    -0.621016  -0.240210  -0.005936
C    -0.955502  0.262472  1.359916
O    -0.251832  1.234834  1.800905
H    -0.756743  0.573138  -0.731784
H    -1.227960  -1.101302  -0.305470
H    0.441768  -0.516541  -0.032791
N    -1.949809  -0.342252  2.036959
C    -2.378354  0.005217  3.392810
C    -1.293798  -0.374511  4.438485
O    -0.651125  0.562744  4.961006
H    -2.426897  -1.097938  1.550921
H    -2.378999  1.102392  3.428424
C    -3.824089  -0.370559  3.756855
C    -4.222580  0.162016  5.154833
C    -4.649838  1.642743  5.280025
N    -3.655339  2.641066  4.837088
C    -2.534237  3.039297  5.458490
N    -2.246596  2.659935  6.693023
N    -1.560281  3.821518  4.825761
H    -3.964207  -1.459127  3.745845
H    -4.495322  0.034762  2.983738
H    -3.425570  -0.066182  5.879383
H    -5.093672  -0.413005  5.498779
H    -4.939631  1.853490  6.320114
H    -5.546961  1.830330  4.677398
H    -3.822494  3.075633  3.934969
H    -1.379643  2.996520  7.102133
H    -2.857748  2.083961  7.262391
H    -1.967012  4.622862  4.332109
N    -1.044975  -1.649483  4.755276
C    -1.680709  -2.882545  4.293067
H    -0.297283  -1.751784  5.441345
H    -0.954942  -3.696538  4.386642
H    -1.963380  -2.818375  3.237744
H    -2.561888  -3.137158  4.896758
Hg    -0.670563  2.576719  3.402388
