36
Energy: -574589.514708 eV PBE+vdW (tier 2 basis)
C    0.900257  1.058593  1.116160
C    0.205772  0.578203  2.335968
O    0.972602  0.201888  3.319051
H    1.592814  1.869575  1.364640
H    0.201974  1.371470  0.334635
H    1.495017  0.214434  0.729078
N    -1.117755  0.308795  2.369920
C    -2.197401  1.203879  1.931459
C    -1.641628  2.655986  2.017109
O    -0.642671  2.863304  2.721601
H    -1.403375  -0.353873  3.088571
H    -2.507642  0.950328  0.909377
C    -3.397351  1.017578  2.907425
C    -3.233422  1.780568  4.240180
C    -4.033920  1.283850  5.452168
N    -3.698306  -0.065869  5.964653
C    -2.504565  -0.525918  6.359635
N    -2.314026  -1.848220  6.511458
N    -1.428665  0.283115  6.610412
H    -3.526876  -0.065374  3.069400
H    -4.314228  1.344086  2.400651
H    -3.545299  2.825387  4.096537
H    -2.167974  1.865271  4.498697
H    -5.103147  1.235971  5.211627
H    -3.943556  2.013495  6.270625
H    -4.488976  -0.694313  6.090060
H    -1.575810  -2.161633  7.134983
H    -3.033023  -2.525105  6.276021
H    -1.686534  1.253010  6.799210
N    -2.290601  3.625339  1.356983
C    -3.481690  3.536642  0.513788
H    -1.895846  4.553241  1.505364
H    -3.423434  4.314481  -0.254273
H    -4.401799  3.692612  1.093561
H    -3.535349  2.570435  0.001381
Hg    -0.020844  0.211572  5.121164
