36
Energy: -574587.836584 eV PBE+vdW (tier 2 basis)
C    -0.008588  -0.236698  -0.210886
C    0.081230  -0.193471  1.283042
O    1.201381  0.032640  1.812511
H    0.069377  -1.278486  -0.553429
H    0.849608  0.307365  -0.619974
H    -0.935659  0.205411  -0.587793
N    -1.019226  -0.297586  2.093580
C    -2.057546  -1.327245  2.011751
C    -1.330608  -2.697480  2.239485
O    -0.134007  -2.805197  1.902338
H    -0.770836  -0.072874  3.058445
H    -2.714048  -1.135880  2.873913
C    -2.934472  -1.337802  0.744140
C    -3.711691  -0.028736  0.546597
C    -4.613603  -0.067750  -0.690697
N    -5.345061  1.172049  -0.840492
C    -6.300753  1.465601  -1.771794
N    -6.642341  0.552533  -2.704597
N    -6.806042  2.683745  -1.637313
H    -3.642066  -2.173681  0.853576
H    -2.328351  -1.576362  -0.139821
H    -3.010567  0.815425  0.458481
H    -4.331896  0.169374  1.434843
H    -5.333666  -0.904471  -0.614999
H    -4.011575  -0.251216  -1.601769
H    -5.175556  1.950368  -0.204794
H    -7.358919  0.776952  -3.385597
H    -6.208183  -0.359870  -2.783019
H    -7.527707  2.898810  -2.336848
N    -2.041272  -3.683621  2.795447
C    -1.504161  -5.005024  3.113566
H    -3.009602  -3.501450  3.047639
H    -2.220643  -5.771732  2.796702
H    -1.339123  -5.102238  4.195254
H    -0.558712  -5.140381  2.582613
Hg    1.999768  -1.825397  3.135631
