36
Energy: -574590.125968 eV PBE+vdW (tier 2 basis)
C    -1.982138  -0.614640  -0.507125
C    -1.592715  -0.983484  0.905784
O    -1.517027  -2.123992  1.314549
H    -1.282678  0.089296  -0.980643
H    -2.983146  -0.161006  -0.538766
H    -2.007760  -1.533763  -1.098593
N    -1.257345  0.061883  1.794494
C    -1.641870  1.455261  1.658656
C    -0.628974  2.337655  2.367780
O    -0.832226  3.264201  3.095700
H    -1.119912  -0.287090  2.745469
H    -1.556819  1.721708  0.588944
C    -3.086010  1.812558  2.096152
C    -3.461777  1.362390  3.513925
C    -4.921661  1.628319  3.891900
N    -5.192153  3.063235  4.066139
C    -6.416410  3.610343  4.150496
N    -7.509245  2.838909  4.129287
N    -6.545459  4.942509  4.229589
H    -3.755015  1.326319  1.371308
H    -3.225058  2.895783  1.969478
H    -2.803323  1.822675  4.267732
H    -3.317689  0.276622  3.609514
H    -5.148870  1.088437  4.825071
H    -5.587662  1.245515  3.103827
H    -4.414017  3.643952  4.364527
H    -7.459901  1.842911  4.302635
H    -8.434140  3.243947  4.041120
H    -7.427467  5.373089  4.481269
N    0.851783  2.058246  2.139241
C    1.441989  1.347419  1.247289
H    1.413119  2.638379  2.777479
H    -5.766511  5.562961  4.047357
H    0.856861  0.730891  0.566193
H    2.533564  1.356918  1.191938
Hg    0.151036  0.105418  5.298487
