36
Energy: -574590.365334 eV PBE+vdW (tier 2 basis)
C    0.409117  -0.285634  0.331645
C    0.160045  -0.247303  1.807759
O    1.197166  -0.330577  2.545580
H    1.065700  0.553447  0.064286
H    -0.507921  -0.230149  -0.264182
H    0.949379  -1.208458  0.083255
N    -1.112865  -0.129230  2.214947
C    -1.718395  -0.039534  3.564445
C    -1.251236  1.264204  4.244171
O    -0.061647  1.407010  4.615678
H    -1.778626  -0.075648  1.449373
H    -2.791721  0.047017  3.367169
C    -1.504241  -1.329753  4.411459
C    -1.535379  -1.125288  5.933774
C    -1.114398  -2.345171  6.756960
N    0.239794  -2.932295  6.514853
C    1.433609  -2.401701  6.908527
N    2.254837  -3.156267  7.651706
N    1.796570  -1.163280  6.538136
H    -0.565085  -1.823712  4.111597
H    -2.279210  -2.048826  4.110620
H    -2.559452  -0.885970  6.258273
H    -0.929133  -0.260213  6.233800
H    -1.802560  -3.177413  6.563620
H    -1.206795  -2.092944  7.823168
H    0.224536  -3.946926  6.581241
H    3.244381  -2.943736  7.734008
H    1.905338  -3.931094  8.207060
H    2.600384  -0.776681  7.030042
N    -2.139910  2.244266  4.424875
C    -3.550924  2.307292  4.031381
H    -1.745183  3.073598  4.867935
H    -3.954443  3.259452  4.387056
H    -4.137138  1.504511  4.495273
H    -3.669980  2.280605  2.940690
Hg    1.428388  -0.479599  4.633822
