36
Energy: -574587.850307 eV PBE+vdW (tier 2 basis)
C    0.052259  -0.052010  0.007344
C    -0.069144  -0.158631  1.494887
O    0.946211  -0.466270  2.175174
H    0.403533  0.956488  -0.260044
H    -0.893832  -0.261759  -0.503112
H    0.820603  -0.755244  -0.334021
N    -1.256597  0.048580  2.119021
C    -2.195294  1.128377  1.802182
C    -1.600638  2.386284  2.488844
O    -0.989114  2.248430  3.577383
H    -1.201135  -0.121067  3.125001
H    -2.236021  1.246892  0.712617
C    -3.583435  0.738605  2.356139
C    -4.728161  1.713217  2.053504
C    -6.062590  1.175269  2.582998
N    -7.149477  2.086647  2.297224
C    -8.466792  1.937392  2.628844
N    -8.877046  0.840527  3.298587
N    -9.224786  2.948623  2.229161
H    -3.488587  0.607402  3.446197
H    -3.815378  -0.251826  1.937145
H    -4.816510  1.870574  0.967280
H    -4.534667  2.693175  2.516346
H    -6.001425  1.013133  3.675928
H    -6.282114  0.190808  2.127489
H    -6.979222  2.951625  1.787214
H    -9.856092  0.739072  3.540925
H    -8.258544  0.086112  3.573445
H    -10.214262  2.832465  2.481345
N    -1.730614  3.602665  1.941077
C    -2.442015  4.029422  0.741897
H    -1.275940  4.337428  2.486357
H    -3.357676  4.576673  1.003505
H    -2.705200  3.174370  0.114022
H    -1.795399  4.699845  0.162873
Hg    1.206441  0.871304  4.179228
