36
Energy: -574588.337083 eV PBE+vdW (tier 2 basis)
C    0.009027  0.456704  0.658160
C    0.016495  -0.388601  1.888977
O    1.111545  -0.927574  2.235496
H    1.015673  0.875098  0.534527
H    -0.726050  1.264863  0.702500
H    -0.177460  -0.171952  -0.226141
N    -1.067692  -0.556496  2.697925
C    -2.455889  -0.937004  2.389002
C    -2.544703  -2.477081  2.248903
O    -1.526025  -3.181007  1.821608
H    -0.778660  -0.904469  3.613352
H    -3.026855  -0.684001  3.293322
C    -3.117108  -0.238469  1.184628
C    -3.699360  1.137819  1.527532
C    -5.026309  1.078603  2.295969
N    -6.155790  0.613200  1.475370
C    -6.921657  -0.470975  1.683800
N    -8.181534  -0.473951  1.222509
N    -6.458716  -1.542073  2.344833
H    -3.917065  -0.897118  0.819305
H    -2.415202  -0.172952  0.346989
H    -3.848977  1.712853  0.602213
H    -2.987590  1.722455  2.129912
H    -5.282457  2.080904  2.666030
H    -4.967497  0.429945  3.180041
H    -6.518512  1.281691  0.800971
H    -8.699485  -1.337541  1.108529
H    -8.665610  0.387274  0.995607
H    -7.121091  -2.239450  2.664630
N    -3.716210  -3.007895  2.410414
C    -3.928120  -4.425841  2.541264
H    -5.468807  -1.818664  2.359545
H    -4.311782  -4.825600  1.586733
H    -4.727020  -4.595915  3.279393
H    -3.027358  -4.982542  2.826331
Hg    0.582122  -3.203814  2.579965
