36
Energy: -574589.998985 eV PBE+vdW (tier 2 basis)
C    -0.191835  -1.150017  -0.140625
C    0.030752  -0.434171  1.149408
O    1.259960  -0.039620  1.338170
H    0.086076  -0.493936  -0.976168
H    -1.229360  -1.479234  -0.256055
H    0.473824  -2.023553  -0.182207
N    -0.980209  -0.270805  1.976338
C    -1.103982  0.225596  3.353887
C    -2.333383  -0.603994  3.871425
O    -3.182109  -0.918997  3.038204
H    -1.906183  -0.664626  1.709264
H    -0.198754  -0.027469  3.932168
C    -1.434234  1.745847  3.369000
C    -1.589566  2.416266  4.745728
C    -0.310843  2.740024  5.538718
N    0.474287  3.843663  4.954934
C    1.567866  3.736320  4.195116
N    1.948052  4.734663  3.393087
N    2.374603  2.613758  4.198208
H    -2.380032  1.861668  2.820345
H    -0.691765  2.289151  2.757418
H    -2.228711  1.800295  5.394845
H    -2.153932  3.349625  4.603966
H    0.342897  1.866186  5.648759
H    -0.580406  3.047215  6.557142
H    0.067472  4.772705  5.059624
H    1.381627  5.564074  3.241164
H    2.911382  4.758795  3.071213
H    2.370094  2.145961  5.107412
N    -2.391575  -0.870670  5.185090
C    -3.499009  -1.617324  5.790884
H    -1.578279  -0.682576  5.761110
H    -3.714675  -1.206004  6.782272
H    -3.245571  -2.680957  5.884654
H    -4.379972  -1.516324  5.151360
Hg    1.881792  1.253636  2.768346
