36
Energy: -574589.933072 eV PBE+vdW (tier 2 basis)
C    -0.411626  -0.858302  0.076004
C    -0.201591  -1.036980  1.548606
O    0.923030  -1.124732  2.062202
H    -0.005891  0.121854  -0.211701
H    -1.461913  -0.909411  -0.231463
H    0.169535  -1.614439  -0.465070
N    -1.325535  -1.102645  2.341296
C    -1.257016  -0.996220  3.796505
C    -0.828243  -2.356097  4.438372
O    -1.476344  -3.093035  5.311426
H    -2.233260  -1.113279  1.890722
H    -0.385104  -0.352817  4.005020
C    -2.492220  -0.256784  4.353445
C    -3.882643  -0.627711  3.794092
C    -5.066978  -0.120204  4.645353
N    -5.267142  -0.991750  5.815227
C    -4.999780  -0.729030  7.119122
N    -5.399106  0.417615  7.670324
N    -4.313274  -1.667124  7.805308
H    -2.320955  0.812368  4.162726
H    -2.471824  -0.324112  5.456777
H    -3.995243  -1.716910  3.658085
H    -4.002047  -0.188324  2.792995
H    -5.985650  -0.113976  4.045635
H    -4.896300  0.906110  4.995830
H    -5.413737  -1.976673  5.606338
H    -5.047728  0.726835  8.571462
H    -6.171563  0.941516  7.268392
H    -4.311310  -1.643863  8.824542
N    0.321850  -2.805794  4.018602
C    0.969240  -4.044177  4.444766
H    0.776121  -2.195817  3.274028
H    2.040392  -3.951510  4.245082
H    0.572356  -4.894806  3.874653
H    0.799735  -4.220408  5.511565
Hg    -2.814693  -2.457449  6.680680
