36
Energy: -574588.199982 eV PBE+vdW (tier 2 basis)
C    -0.856353  1.571802  1.929807
C    -0.803377  0.273993  2.665723
O    0.042644  0.161160  3.606062
H    -0.610504  2.366826  2.646090
H    -1.830804  1.770716  1.477852
H    -0.069310  1.599121  1.161098
N    -1.658736  -0.762918  2.439184
C    -2.051251  -1.453621  1.197062
C    -1.049534  -2.600145  0.914534
O    0.217522  -2.507523  1.245181
H    -1.665970  -1.398842  3.238073
H    -3.017235  -1.927747  1.416274
C    -2.199617  -0.577402  -0.060546
C    -3.547765  0.144439  -0.204156
C    -4.638350  -0.663030  -0.918622
N    -5.301568  -1.714767  -0.114918
C    -5.357027  -3.025520  -0.426188
N    -6.478564  -3.712726  -0.165923
N    -4.305056  -3.643368  -0.981898
H    -2.053812  -1.235763  -0.927970
H    -1.367470  0.133428  -0.116579
H    -3.395102  1.045191  -0.815769
H    -3.919286  0.504800  0.767660
H    -4.236136  -1.139833  -1.821716
H    -5.432513  0.021277  -1.247589
H    -6.053214  -1.387977  0.487006
H    -6.481018  -4.726206  -0.132492
H    -7.374515  -3.247225  -0.070056
H    -4.439877  -4.556805  -1.401884
N    -1.470876  -3.567864  0.164167
C    -0.727358  -4.780783  -0.064484
H    -3.334119  -3.393329  -0.743842
H    -1.436634  -5.612735  -0.184776
H    -0.006710  -5.010472  0.729797
H    -0.189316  -4.702518  -1.024818
Hg    1.085250  -1.911908  3.206205
