36
Energy: -574588.014732 eV PBE+vdW (tier 2 basis)
C    1.838259  -0.779133  1.781948
C    0.997241  -0.231419  2.898012
O    1.380511  0.809734  3.487055
H    1.553954  -1.799047  1.497999
H    2.892814  -0.757430  2.079465
H    1.731838  -0.120038  0.908301
N    -0.138229  -0.896767  3.217847
C    -1.148489  -0.414006  4.155470
C    -0.608633  -0.398414  5.604616
O    -0.571485  0.693479  6.239894
H    -0.380306  -1.691228  2.631213
H    -1.341515  0.649912  3.935273
C    -2.477790  -1.177463  3.956730
C    -3.758026  -0.497525  4.467942
C    -3.925492  -0.320585  5.997134
N    -3.567853  -1.488831  6.779664
C    -4.101748  -2.751594  6.742572
N    -5.302672  -2.943834  6.148987
N    -3.325490  -3.672098  7.285235
H    -2.401231  -2.194712  4.363494
H    -2.601447  -1.293312  2.869083
H    -4.595553  -1.088310  4.073474
H    -3.868538  0.501661  4.020792
H    -4.966179  -0.016663  6.201555
H    -3.302018  0.498609  6.372406
H    -2.784328  -1.428315  7.422048
H    -5.702588  -3.875810  6.142109
H    -5.960269  -2.181624  6.019097
H    -3.738906  -4.611248  7.259684
N    -0.193270  -1.506852  6.229777
C    -0.287460  -2.915203  5.862557
H    0.173177  -1.314777  7.164737
H    -1.191031  -3.373539  6.307212
H    -0.290746  -3.045043  4.778794
H    0.589852  -3.429542  6.271823
Hg    0.431088  2.462554  4.956984
