36
Energy: -574590.357149 eV PBE+vdW (tier 2 basis)
C    -0.476071  1.597327  -0.604767
C    -0.432567  1.082051  0.793850
O    0.575030  1.518494  1.499636
H    -0.540890  2.693473  -0.589406
H    -1.319152  1.184161  -1.167514
H    0.463045  1.336102  -1.112004
N    -1.354399  0.245338  1.207986
C    -1.512706  -0.513985  2.450358
C    -2.384399  -1.726645  1.967084
O    -3.141666  -1.524328  1.018152
H    -2.110318  -0.050580  0.555830
H    -0.528148  -0.866573  2.803084
C    -2.275108  0.320184  3.516311
C    -2.391236  -0.313641  4.908102
C    -1.137883  -0.293423  5.790742
N    -0.844085  1.039212  6.358671
C    0.358764  1.640045  6.435778
N    0.635344  2.408729  7.497906
N    1.289677  1.481545  5.468953
H    -3.282153  0.505922  3.116319
H    -1.820296  1.325358  3.596210
H    -2.720343  -1.358809  4.819752
H    -3.208300  0.187709  5.447660
H    -0.238400  -0.642653  5.267204
H    -1.282372  -0.982701  6.635847
H    -1.538122  1.382494  7.019564
H    1.377123  3.100878  7.473417
H    0.134789  2.304899  8.375296
H    2.233426  1.768095  5.722150
N    -2.269469  -2.879108  2.644129
C    -3.045146  -4.076712  2.308077
H    -1.525617  -2.974615  3.326901
H    -3.907836  -3.774802  1.708434
H    -3.388599  -4.561024  3.228307
H    -2.436007  -4.782959  1.729978
Hg    0.881810  1.435017  3.491694
