36
Energy: -574589.963019 eV PBE+vdW (tier 2 basis)
C    -0.763912  -4.676913  1.469686
C    -0.288756  -3.517980  2.297368
O    0.912197  -3.683778  2.806592
H    -1.001660  -4.362517  0.444002
H    -1.675908  -5.105252  1.910759
H    0.001108  -5.456392  1.427355
N    -0.936076  -2.400866  2.550594
C    -2.305327  -2.187457  2.088516
C    -2.288549  -1.876322  0.593905
O    -1.192624  -1.376489  0.084123
H    -0.510534  -1.403572  0.801769
H    -2.950332  -3.069332  2.251739
C    -2.929894  -0.947342  2.796631
C    -3.395921  -1.091443  4.259318
C    -2.370376  -1.435738  5.342615
N    -1.168000  -0.580529  5.252962
C    -0.156385  -0.591271  6.167355
N    -0.429150  -0.331888  7.449172
N    1.089105  -0.848382  5.735569
H    -3.817754  -0.636011  2.227561
H    -2.217738  -0.112988  2.690454
H    -4.188167  -1.852189  4.319696
H    -3.875030  -0.135854  4.516778
H    -2.065799  -2.493526  5.265247
H    -2.840863  -1.306746  6.324387
H    -0.817772  -0.523433  4.298485
H    0.255194  -0.485242  8.181826
H    -1.288051  0.143417  7.706105
H    1.870865  -0.643277  6.355920
N    -3.320769  -2.042065  -0.187117
C    -3.399909  -1.693874  -1.614091
H    -4.160600  -2.427723  0.242278
H    -2.396594  -1.509914  -2.004352
H    -4.015525  -0.794154  -1.736592
H    -3.863960  -2.527415  -2.151743
Hg    1.193717  -2.218487  4.215922
