36
Energy: -574588.386995 eV PBE+vdW (tier 2 basis)
C    0.487995  -0.360143  0.048080
C    0.238781  -0.187126  1.519138
O    1.224016  0.023756  2.268946
H    0.758420  0.616700  -0.377578
H    -0.384520  -0.754463  -0.485323
H    1.344620  -1.028042  -0.096528
N    -1.041353  -0.269332  1.952847
C    -1.506634  0.056731  3.297206
C    -1.119634  -1.051952  4.312912
O    -0.246905  -0.847856  5.199402
H    -1.750831  -0.403653  1.236838
H    -0.963400  0.951885  3.645347
C    -3.007043  0.398904  3.277646
C    -3.529714  0.873204  4.639429
C    -4.913873  1.550417  4.584670
N    -6.043509  0.651604  4.377159
C    -6.700254  0.512802  3.181767
N    -7.941452  -0.033052  3.207607
N    -6.053868  0.904276  2.099375
H    -3.596353  -0.456262  2.907052
H    -3.147182  1.196744  2.533217
H    -2.841915  1.628550  5.050994
H    -3.549551  0.047879  5.367582
H    -4.934134  2.305782  3.790919
H    -5.084741  2.062364  5.541661
H    -6.480869  0.261243  5.207085
H    -8.421824  -0.235595  2.339269
H    -8.488394  -0.115662  4.057989
H    -6.625748  0.790587  1.255312
N    -1.744495  -2.222019  4.234677
C    -1.467738  -3.361606  5.111209
H    -2.503836  -2.311329  3.564885
H    -1.696055  -4.284192  4.569060
H    -2.081747  -3.312514  6.020046
H    -0.412000  -3.346901  5.398600
Hg    1.509696  0.608068  4.564450
