19
Energy: -169126.4942582  eV PBE+vdW (tier 2 basis)
N    -0.14283  -0.00907  0.12899
C    -0.17758  -0.16326  1.56355
C    1.18780  0.21082  2.18301
O    2.27440  -0.12069  1.82618
H    -0.07832  0.96057  -0.17624
H    0.59287  -0.55489  -0.32013
H    -0.93211  0.53212  1.95311
C    -0.54745  -1.63350  1.95698
C    -1.68567  -1.77061  2.99492
C    -1.34727  -0.84845  4.14758
O    -0.36075  -1.14118  4.90163
O    -1.92385  0.29528  4.18743
H    0.34009  -2.17434  2.30804
H    -0.88708  -2.11485  1.03114
H    -1.73668  -2.80488  3.35353
H    -2.65099  -1.47709  2.57045
O    1.11394  1.17597  3.28791
H    2.05647  1.41623  3.42719
Cd    -0.15181  1.04887  5.27717
