19
Energy: -169127.0671798  eV PBE+vdW (tier 2 basis)
N    0.68612  -1.81593  0.11354
C    -0.04019  -0.82749  0.99896
C    0.86872  0.37380  1.34358
O    0.66927  1.11172  2.27268
H    1.26797  -1.28024  -0.53930
H    1.34361  -2.35071  0.69225
H    -0.84999  -0.39630  0.38781
C    -0.63291  -1.43827  2.29064
C    -2.08637  -1.98395  2.19798
C    -2.09170  -2.85601  0.96566
O    -2.45005  -2.31473  -0.13980
O    -1.45815  -3.96591  1.01411
H    -0.61976  -0.64273  3.04626
H    0.03044  -2.23847  2.65100
H    -2.81013  -1.16984  2.09059
H    -2.31155  -2.56714  3.09686
O    1.86563  0.52153  0.43591
H    2.37018  1.32758  0.66809
Cd    -0.68443  -3.36766  -0.99293
