19
Energy: -169127.2694700  eV PBE+vdW (tier 2 basis)
N    0.26892  -0.31593  0.26756
C    0.03541  -0.25828  1.72188
C    1.44035  -0.51024  2.35325
O    1.77737  -0.34259  3.54777
H    0.28525  0.60487  -0.16940
H    -0.40905  -0.89505  -0.22418
H    -0.28278  0.74638  2.03858
C    -1.02541  -1.30611  2.18363
C    -2.16076  -0.75124  3.08853
C    -1.45790  -0.20353  4.30645
O    -1.09614  1.02472  4.28450
O    -1.01871  -1.03289  5.17411
H    -0.54525  -2.14691  2.70116
H    -1.50158  -1.72655  1.28738
H    -2.83212  -1.57154  3.36449
H    -2.72535  0.04125  2.58564
O    2.31284  -0.92722  1.49409
H    1.75642  -0.87713  0.60809
Cd    0.73150  0.31700  5.35750
