19
Energy: -169127.2946417  eV PBE+vdW (tier 2 basis)
N    0.46653  -0.22063  0.03489
C    0.16962  -0.08618  1.46831
C    1.55397  -0.13620  2.17378
O    1.68078  -0.20703  3.41655
H    0.27096  -1.15565  -0.32332
H    -0.02661  0.45836  -0.54138
H    -0.19168  0.93867  1.65010
C    -0.90607  -1.03120  2.05495
C    -0.68724  -2.56542  1.97730
C    0.54630  -2.89645  2.79542
O    0.45194  -2.93809  4.06678
O    1.67005  -2.89389  2.18712
H    -1.83800  -0.81096  1.51539
H    -1.07619  -0.75058  3.10260
H    -0.55137  -2.92077  0.94886
H    -1.56457  -3.06045  2.40750
O    2.56022  -0.08973  1.35887
H    2.06955  -0.08411  0.43929
Cd    2.53215  -2.13432  4.13823
