19
Energy: -169126.9298969  eV PBE+vdW (tier 2 basis)
N    0.27210  0.21892  -0.05417
C    -0.17532  0.27098  1.32793
C    0.96745  0.87126  2.14736
O    0.88731  1.76224  3.02283
H    -0.51759  0.14607  -0.69269
H    0.91242  -0.55332  -0.23578
H    -0.99370  1.00282  1.36977
C    -0.67452  -1.07914  1.97645
C    -2.04036  -1.01148  2.71634
C    -1.94749  0.15989  3.66597
O    -1.20312  0.06266  4.69716
O    -2.41997  1.28534  3.26675
H    0.08157  -1.48884  2.65978
H    -0.78052  -1.79553  1.15104
H    -2.20496  -1.94170  3.27143
H    -2.86580  -0.84714  2.01597
O    2.14502  0.35882  1.85172
H    2.84109  0.78700  2.39246
Cd    -0.78878  2.23928  4.41283
