19
Energy: -169126.9552307  eV PBE+vdW (tier 2 basis)
N    -0.46175  -0.13596  0.35744
C    0.04358  -0.16677  1.70269
C    1.57922  -0.06029  1.86668
O    2.47085  -0.45027  1.08011
H    -0.29825  0.74705  -0.11883
H    -0.17366  -0.91416  -0.23124
H    -0.30833  0.74351  2.21044
C    -0.55392  -1.34221  2.54923
C    -0.69352  -2.72959  1.87395
C    0.62740  -3.08952  1.22991
O    1.64359  -3.30159  1.96832
O    0.72599  -2.95395  -0.04395
H    -1.57179  -1.02918  2.81556
H    0.01443  -1.44095  3.48312
H    -1.47495  -2.72265  1.10853
H    -0.94272  -3.47114  2.64220
O    1.91159  0.60667  2.96009
H    2.88756  0.66591  3.03432
Cd    2.85867  -2.48589  0.27343
