19
Energy: -169127.4155376  eV PBE+vdW (tier 2 basis)
N    1.27028  -1.36664  1.32501
C    0.35176  -0.19884  1.46826
C    1.16205  0.96003  2.06117
O    2.33502  0.86715  2.42718
H    0.73239  -2.23590  1.29997
H    1.80449  -1.29853  0.45670
H    0.06451  0.15200  0.46357
C    -1.00098  -0.54044  2.17866
C    -1.08044  -0.68881  3.72888
C    0.23671  -1.26432  4.20480
O    1.08214  -0.42487  4.68342
O    0.56139  -2.44031  3.84868
H    -1.34748  -1.47292  1.71097
H    -1.71655  0.23485  1.87915
H    -1.91514  -1.35684  3.96850
H    -1.24703  0.28045  4.20776
O    0.47629  2.09096  2.08346
H    1.03333  2.80178  2.46470
Cd    2.55427  -1.35780  3.30714
