19
Energy: -169126.8213835  eV PBE+vdW (tier 2 basis)
 N   -0.82666    0.33818    0.18684
 C   -0.42825   -0.01029    1.54812
 C    1.02900    0.42250    1.75683
 O    1.99786   -0.22888    1.31398
 H   -0.24832   -0.12012   -0.51795
 H   -0.83755    1.34142    0.00801
 H   -1.05761    0.57391    2.24026
 C   -0.69837   -1.51024    1.77460
 C   -0.46535   -2.10156    3.18823
 C    1.01735   -1.99855    3.48673
 O    1.42862   -0.94793    4.08934
 O    1.81685   -2.82952    2.93851
 H   -0.12845   -2.09491    1.03854
 H   -1.76191   -1.64486    1.53224
 H   -0.76836   -3.15414    3.18291
 H   -1.03315   -1.56191    3.95435
 O    1.28301    1.58388    2.34896
 H    0.47016    1.98610    2.71059
Cd    3.31012   -1.18609    2.86488
