19
Energy: -169126.8809373  eV PBE+vdW (tier 2 basis)
N    -0.65580  0.39175  0.44229
C    -0.03211  -0.01643  1.66520
C    1.51925  -0.11971  1.63457
O    2.15814  -0.19281  0.57452
H    -0.55193  1.38425  0.24655
H    -0.35761  -0.14265  -0.37166
H    -0.26554  0.73673  2.43591
C    -0.64179  -1.36569  2.19532
C    -0.75113  -2.53957  1.20090
C    0.60882  -2.80103  0.56983
O    0.76701  -2.53190  -0.66636
O    1.58463  -3.08968  1.34138
H    -1.66544  -1.11003  2.49816
H    -0.10052  -1.69931  3.09138
H    -1.47789  -2.33210  0.40972
H    -1.06767  -3.43599  1.74890
O    2.18897  -0.17400  2.77732
H    1.60234  -0.07955  3.55232
Cd    2.93126  -2.16028  -0.19125
