19
Energy: -169126.9912730  eV PBE+vdW (tier 2 basis)
N    -0.75446  1.10706  1.11803
C    0.03140  0.25426  1.98291
C    1.55144  0.35708  1.76137
O    2.45007  0.37006  2.63439
H    -0.65610  0.87672  0.12980
H    -0.55518  2.09827  1.24451
H    -0.13781  0.58842  3.01761
C    -0.43948  -1.23267  1.84426
C    -0.84650  -1.93196  3.17017
C    0.31974  -1.74277  4.11107
O    0.26849  -0.75239  4.92623
O    1.39732  -2.39355  3.89891
H    0.31960  -1.84389  1.33863
H    -1.32855  -1.20505  1.20000
H    -1.02101  -2.99707  2.98190
H    -1.74431  -1.47604  3.59962
O    1.89032  0.48729  0.49031
H    2.86520  0.55035  0.41267
Cd    2.45883  -0.58611  4.66164
