19
Energy: -169127.2418637  eV PBE+vdW (tier 2 basis)
N    -0.01213  -0.01804  -0.03445
C    0.09558  -0.05683  1.47842
C    1.44698  -0.83581  1.67459
O    1.77828  -1.57650  0.73892
H    0.64269  -0.83500  -0.28124
H    0.36182  0.84696  -0.43876
H    0.16923  0.96477  1.86824
C    -1.16149  -0.79097  2.00888
C    -1.33388  -0.95858  3.53011
C    -0.19753  -1.78213  4.12453
O    0.42223  -1.32623  5.13668
O    0.19330  -2.80490  3.46741
H    -1.20321  -1.78522  1.53985
H    -2.03317  -0.21376  1.66026
H    -2.28184  -1.48629  3.70454
H    -1.38218  0.00208  4.05401
O    2.04822  -0.60827  2.78278
H    -0.96414  -0.16562  -0.38558
Cd    2.25625  -2.24665  4.19181
