19
Energy: -169126.8408898  eV PBE+vdW (tier 2 basis)
N    1.19778  -0.90830  0.62734
C    0.02839  -0.20101  1.15508
C    0.57798  1.04238  1.85148
O    1.04957  1.10275  3.01470
H    1.85654  -1.19565  1.35077
H    1.68686  -0.39957  -0.10717
H    -0.55963  0.15684  0.29887
C    -0.80794  -1.19692  1.97114
C    -2.17927  -0.72695  2.51864
C    -1.87490  0.28995  3.59654
O    -1.41302  -0.13991  4.71235
O    -1.85668  1.52583  3.27892
H    -0.20867  -1.60583  2.79726
H    -0.99532  -2.03143  1.28034
H    -2.70106  -1.58554  2.95505
H    -2.80121  -0.27231  1.74015
O    0.66720  2.07336  1.02017
H    1.16853  2.80080  1.44227
Cd    -0.19414  1.68851  4.79112
