19
Energy: -169126.4387055  eV PBE+vdW (tier 2 basis)
N    -0.77619  0.59999  1.40903
C    0.52106  0.05358  1.65259
C    1.54894  0.32107  0.50122
O    1.25252  0.43525  -0.66198
H    -0.81537  1.61612  1.39858
H    -1.25709  0.21808  0.59566
H    0.95292  0.53586  2.54413
C    0.48307  -1.47084  1.87414
C    -0.44030  -1.92514  3.00874
C    0.02352  -1.57679  4.41347
O    0.88042  -0.65067  4.61031
O    -0.50103  -2.23795  5.37273
H    1.50631  -1.82973  2.04330
H    0.12776  -1.96197  0.95411
H    -0.59602  -3.01095  2.98307
H    -1.43966  -1.47209  2.90902
O    2.80230  0.37709  0.99627
H    3.41407  0.50486  0.24234
Cd    0.71856  -1.07537  6.83355
