19
Energy: -169126.6372731  eV PBE+vdW (tier 2 basis)
N    0.41050  -0.58668  -0.11452
C    0.06651  -0.28439  1.35601
C    1.29818  0.23866  2.13587
O    1.21121  1.33021  2.64990
H    -0.45319  -0.43972  -0.64970
H    1.04349  0.15722  -0.42708
H    -0.57962  0.60350  1.29871
C    -0.77725  -1.34662  2.11242
C    -0.11028  -2.64117  2.65524
C    0.60142  -3.24056  1.47197
O    -0.09103  -3.74062  0.52884
O    1.85071  -2.95575  1.31021
H    -1.62360  -1.62976  1.46951
H    -1.20385  -0.80882  2.96997
H    -0.89510  -3.31500  3.01486
H    0.59165  -2.43244  3.46965
O    2.40681  -0.50034  2.21507
H    2.27222  -1.44282  1.91658
Cd    1.28117  -2.63595  -0.84078
