19
Energy: -169126.4799088  eV PBE+vdW (tier 2 basis)
N    -0.34455  -0.09421  0.21239
C    0.04883  -0.04725  1.58504
C    1.58225  -0.27731  1.78677
O    2.24609  -1.02073  1.10747
H    0.02658  -0.89009  -0.30471
H    -0.21653  0.77077  -0.30550
H    -0.17365  0.94953  1.99147
C    -0.65959  -1.13723  2.43374
C    -2.14246  -0.82125  2.57768
C    -2.98286  -1.96785  3.14121
O    -4.07556  -1.64622  3.71957
O    -2.61331  -3.17454  2.99542
H    -0.18256  -1.19276  3.42123
H    -0.51696  -2.11218  1.94776
H    -2.58464  -0.60352  1.59086
H    -2.33025  0.05646  3.20789
O    2.03342  0.44451  2.83068
H    2.98708  0.25016  2.93991
Cd    -4.49246  -3.81171  4.08896
