19
Energy: -169127.1558374  eV PBE+vdW (tier 2 basis)
 N    0.04056   -0.02681   -0.25324
 C   -0.11963   -0.10807    1.24948
 C    1.30310    0.01975    1.82449
 O    2.25184    0.33564    1.13558
 H    0.24130   -0.97274   -0.59883
 H    0.91871    0.49758   -0.40458
 H   -0.64961    0.80120    1.57642
 C   -0.89517   -1.35547    1.73636
 C   -2.44674   -1.20881    1.82911
 C   -2.85911   -0.54154    0.54038
 O   -2.95508    0.73916    0.54698
 O   -2.79061   -1.21748   -0.54117
 H   -0.52982   -1.61078    2.73756
 H   -0.65335   -2.20596    1.08161
 H   -2.73145   -0.58653    2.68340
 H   -2.89778   -2.20198    1.92561
 O    1.33709   -0.19569    3.14347
 H    2.25258   -0.04639    3.45723
Cd   -1.85828    0.64597   -1.37824
