22
Energy: -568335.5524727  eV PBE+vdW (tier 2 basis)
N    -0.51309  0.45263  0.51818
C    0.17474  0.38415  1.80773
C    1.71528  0.39873  1.63364
O    2.28548  0.85817  0.63894
H    -1.40635  0.95739  0.56230
H    -0.65850  -0.45322  0.05750
H    3.32837  0.12511  2.62082
H    -0.01686  1.34934  2.31150
C    -0.40281  -0.68655  2.84112
C    -0.22664  -2.16117  2.70752
N    -1.28858  -3.03879  2.49695
C    0.86810  -2.97947  2.96409
C    -0.87922  -4.30741  2.62134
N    0.43354  -4.27463  2.89597
H    -1.47201  -0.45197  2.93886
H    0.05233  -0.38008  3.79722
H    -2.26815  -2.78784  2.35458
H    1.89303  -2.73260  3.21617
H    -1.49718  -5.19821  2.52684
H    1.00952  -5.10643  3.05408
O    2.35550  -0.03548  2.68713
Hg    0.85852  1.67430  -1.05447
