22
Energy: -568336.0725367  eV PBE+vdW (tier 2 basis)
N    -0.46800  -0.03693  -0.09267
C    -0.06011  -0.00296  1.37463
C    1.40559  0.53568  1.49955
O    1.86939  1.09231  0.46122
H    -1.49101  -0.14537  -0.20190
H    -0.01817  -0.80746  -0.61572
H    -0.19312  0.84092  -0.56836
H    -0.68103  0.78175  1.83601
C    -0.29775  -1.37714  2.03661
C    -0.24757  -1.40532  3.53384
N    0.41255  -2.39824  4.24496
C    -0.90978  -0.64791  4.49013
C    0.17623  -2.26692  5.55600
N    -0.62086  -1.19971  5.70944
H    0.40301  -2.11970  1.62650
H    -1.30704  -1.71401  1.73188
H    0.97624  -3.15464  3.85458
H    -1.57114  0.20696  4.39608
H    0.55558  -2.90932  6.34756
H    -0.97402  -0.86877  6.61130
O    1.97240  0.42675  2.60762
Hg    3.84981  1.67265  1.55117
