22
Energy: -568335.1383251  eV PBE+vdW (tier 2 basis)
N    0.93626  -0.36619  0.18104
C    0.19371  -0.24663  1.44082
C    1.13264  0.16324  2.64698
O    2.36541  0.22194  2.56097
H    0.98147  -1.32331  -0.18403
H    0.59039  0.25478  -0.55929
H    -0.36895  0.48339  3.85469
H    -0.49235  0.61029  1.33346
C    -0.58336  -1.57495  1.83220
C    -1.78493  -1.97040  1.03022
N    -3.04764  -1.38389  1.12062
C    -1.95307  -3.06639  0.20317
C    -3.93378  -2.08094  0.39732
N    -3.27365  -3.10125  -0.16439
H    -0.88405  -1.48665  2.88806
H    0.13048  -2.41240  1.81755
H    -3.32096  -0.58071  1.68601
H    -1.25244  -3.83331  -0.11162
H    -4.99463  -1.86259  0.29387
H    -3.70824  -3.81110  -0.76056
O    0.60790  0.45423  3.79899
Hg    3.27927  0.17267  0.47219
