22
Energy: -568335.5823084  eV PBE+vdW (tier 2 basis)
N    0.99680  -2.30973  1.15771
C    0.26385  -1.13604  1.13457
C    1.19824  0.10342  1.78819
O    1.53902  0.95730  0.98176
H    1.16684  -2.83963  2.01264
H    1.54860  -2.59767  0.34867
H    1.25096  -0.61538  3.60994
H    0.11557  -0.79331  0.10473
C    -1.10082  -1.15339  1.94350
C    -2.22253  -1.77328  1.17895
N    -3.32558  -1.06204  0.71540
C    -2.47528  -3.09721  0.84010
C    -4.20933  -1.89169  0.15020
N    -3.69328  -3.12953  0.22028
H    -1.36997  -0.12390  2.21631
H    -0.94687  -1.70479  2.88400
H    -3.49627  -0.06165  0.82580
H    -1.89256  -3.99750  1.00484
H    -5.17175  -1.61719  -0.27654
H    -4.16015  -3.96962  -0.13265
O    1.57380  0.10607  3.02950
Hg    3.09971  2.76279  1.45110
