22
Energy: -568335.8242677  eV PBE+vdW (tier 2 basis)
N    -0.34940  -0.85593  -0.44475
C    -0.20028  -0.27739  0.95756
C    1.32101  -0.10229  1.31921
O    1.72325  -0.30327  2.46221
H    -1.32604  -0.77149  -0.77602
H    -0.08550  -1.85271  -0.50224
H    0.24301  -0.34055  -1.11993
H    -0.56743  0.75944  0.87482
C    -1.07295  -0.97396  2.03168
C    -0.83538  -2.37744  2.49441
N    -0.02508  -2.71514  3.57382
C    -1.50015  -3.54738  2.15895
C    -0.17485  -4.00890  3.88088
N    -1.06580  -4.52134  3.01972
H    -2.11397  -0.91571  1.66991
H    -1.03846  -0.30116  2.90294
H    0.58300  -2.07650  4.08726
H    -2.27213  -3.74120  1.42075
H    0.32816  -4.54592  4.68185
H    -1.39061  -5.49186  3.03435
O    2.00035  0.35134  0.32107
Hg    3.93806  0.77377  1.30693
