22
Energy: -568335.7068798  eV PBE+vdW (tier 2 basis)
N    -0.64099  0.62033  0.24720
C    -0.10570  0.11572  1.42274
C    1.52497  -0.23054  1.24120
O    2.06797  -0.92638  2.09535
H    -0.85913  1.61083  0.14055
H    -0.96234  0.01000  -0.50384
H    1.58824  0.81368  -0.36542
H    -0.04855  0.91568  2.18056
C    -0.77325  -1.17920  2.01319
C    -2.07436  -0.94750  2.69792
N    -3.30872  -1.35537  2.21040
C    -2.34471  -0.37946  3.94136
C    -4.27620  -1.07384  3.09369
N    -3.69303  -0.47440  4.14412
H    -0.05301  -1.57851  2.74828
H    -0.87456  -1.94190  1.22767
H    -3.48399  -1.85653  1.33815
H    -1.68099  0.05119  4.68446
H    -5.33522  -1.29986  2.98581
H    -4.19528  -0.15654  4.97802
O    2.15872  0.29319  0.24730
Hg    4.45360  -1.39862  2.06749
