22
Energy: -568335.7435179  eV PBE+vdW (tier 2 basis)
N    0.29458  -0.93135  -0.20352
C    0.05919  -0.23152  1.12713
C    1.37820  0.49141  1.56470
O    1.35717  1.03577  2.71249
H    -0.59661  -1.07388  -0.70905
H    0.74063  -1.85651  -0.09737
H    0.91428  -0.36554  -0.81166
H    -0.60388  0.61994  0.89682
C    -0.68090  -1.09220  2.16543
C    -0.11831  -2.41818  2.60496
N    -0.95914  -3.38445  3.14927
C    1.14925  -2.95379  2.68343
C    -0.25200  -4.45025  3.54481
N    1.02874  -4.20059  3.26026
H    -1.69535  -1.25776  1.76466
H    -0.82926  -0.44628  3.04727
H    -1.97122  -3.31145  3.26832
H    2.11927  -2.55762  2.40733
H    -0.64938  -5.35094  4.00735
H    1.79652  -4.84748  3.45279
O    2.30558  0.58160  0.73064
Hg    3.32343  2.12581  2.37910
