22
Energy: -568336.0478159  eV PBE+vdW (tier 2 basis)
N    0.43868  -1.72516  0.19075
C    0.23402  -0.42731  0.96346
C    1.63263  0.06362  1.47031
O    1.62240  1.02417  2.29607
H    -0.41336  -2.00123  -0.32266
H    0.70963  -2.51194  0.80384
H    1.20275  -1.62192  -0.50096
H    -0.06695  0.32348  0.21539
C    -0.80160  -0.52672  2.10741
C    -2.24181  -0.65396  1.69579
N    -3.11850  -1.56758  2.27423
C    -3.02627  0.12563  0.86220
C    -4.36611  -1.35922  1.83319
N    -4.31346  -0.33858  0.96837
H    -0.67627  0.40076  2.69298
H    -0.52862  -1.34112  2.79605
H    -2.89057  -2.26785  2.98138
H    -2.78181  0.98067  0.24052
H    -5.25494  -1.91325  2.12704
H    -5.12655  0.04490  0.47920
O    2.64764  -0.48839  0.99000
Hg    3.92307  1.13999  2.32346
