22
Energy: -568335.7777546  eV PBE+vdW (tier 2 basis)
N    0.00755  1.41697  1.39033
C    0.43628  0.08092  1.81599
C    1.01840  -0.72231  0.61858
O    1.39558  -0.21916  -0.43916
H    -0.98326  1.46771  1.11882
H    0.19364  2.14380  2.09123
H    1.56303  -2.48058  0.12562
H    1.29368  0.21311  2.49694
C    -0.74321  -0.69505  2.58618
C    -0.32552  -1.59623  3.69881
N    -0.08470  -2.95953  3.59077
C    -0.22002  -1.31477  5.05801
C    0.13628  -3.49024  4.80032
N    0.06219  -2.49098  5.69382
H    -1.36176  -1.23304  1.85516
H    -1.38100  0.07798  3.03252
H    -0.12743  -3.51620  2.73763
H    -0.35079  -0.38411  5.60180
H    0.32505  -4.53894  5.02107
H    0.18101  -2.60974  6.70414
O    1.12413  -2.00465  0.87197
Hg    1.12486  2.12905  -0.61655
