22
Energy: -568336.0729354  eV PBE+vdW (tier 2 basis)
N    0.17783  0.14412  -0.11188
C    0.47903  -0.24438  1.33001
C    1.72607  -1.19171  1.36905
O    2.40739  -1.23608  0.30252
H    -0.46100  0.95622  -0.16266
H    -0.25610  -0.62400  -0.65164
H    1.04876  0.39866  -0.61113
H    0.82304  0.68069  1.81988
C    -0.78244  -0.81412  2.01496
C    -0.73079  -0.91674  3.50915
N    -1.17156  -2.03539  4.20342
C    -0.43279  0.02570  4.48350
C    -1.14917  -1.80342  5.52172
N    -0.69352  -0.55451  5.69598
H    -1.03740  -1.79293  1.58207
H    -1.62308  -0.14198  1.75743
H    -1.50558  -2.91071  3.79789
H    -0.08866  1.05180  4.40726
H    -1.44961  -2.49682  6.30416
H    -0.58238  -0.10317  6.60784
O    1.97958  -1.77535  2.44390
Hg    4.00171  -2.63399  1.27414
