22
Energy: -568335.2256995  eV PBE+vdW (tier 2 basis)
N    0.06471  -0.52126  -0.13942
C    0.15983  -0.22400  1.30012
C    1.62219  0.12920  1.72990
O    2.62106  -0.18165  1.07206
H    -0.44537  0.19886  -0.66730
H    -0.35522  -1.43460  -0.34990
H    0.99257  1.05540  3.30863
H    -0.43987  0.68264  1.48684
C    -0.36788  -1.46338  2.14911
C    -0.66926  -1.26047  3.60314
N    -1.92825  -0.91963  4.10063
C    0.10259  -1.52947  4.72166
C    -1.93013  -0.98495  5.43719
N    -0.69763  -1.34785  5.81962
H    0.35636  -2.28523  2.05380
H    -1.29221  -1.79931  1.65589
H    -2.76773  -0.71070  3.55845
H    1.13201  -1.86290  4.81128
H    -2.77751  -0.78824  6.09111
H    -0.41468  -1.49142  6.79335
O    1.80576  0.72655  2.87426
Hg    2.22766  -0.68158  -1.14839
