22
Energy: -568335.0549898  eV PBE+vdW (tier 2 basis)
N    0.54116  -0.20281  -0.02755
C    0.28026  -0.00552  1.40449
C    1.59629  0.14829  2.23175
O    2.71903  0.15910  1.71500
H    0.52984  -1.18461  -0.32647
H    -0.09595  0.33496  -0.62839
H    0.63684  0.42301  3.90961
H    -0.21610  0.97612  1.49875
C    -0.74252  -1.05913  2.00640
C    -0.36584  -2.47847  2.30827
N    -1.14866  -3.55007  1.88150
C    0.58694  -3.04022  3.14635
C    -0.71277  -4.69282  2.42476
N    0.34825  -4.38914  3.18520
H    -1.61750  -1.04508  1.34035
H    -1.11733  -0.59551  2.93631
H    -1.98445  -3.50003  1.29580
H    1.38880  -2.59300  3.72458
H    -1.14313  -5.68194  2.27983
H    0.88232  -5.07335  3.72880
O    1.52758  0.27472  3.52918
Hg    2.77002  0.47509  -0.59119
