22
Energy: -568335.6079209  eV PBE+vdW (tier 2 basis)
N    0.29210  -1.02035  -0.11328
C    0.08779  -0.36802  1.09314
C    1.54359  -0.13399  1.87045
O    1.88822  1.03795  1.95525
H    0.38146  -0.49055  -0.98119
H    0.58310  -1.99615  -0.17090
H    1.92154  -2.02710  2.20605
H    -0.25375  0.65804  0.91867
C    -0.87466  -1.10737  2.12749
C    -2.31618  -0.89488  1.82817
N    -3.07354  -1.62762  0.92152
C    -3.20708  0.00115  2.40871
C    -4.35136  -1.22637  0.95491
N    -4.43456  -0.23369  1.85420
H    -0.67662  -0.71036  3.13187
H    -0.63346  -2.18129  2.14455
H    -2.75619  -2.40907  0.34784
H    -3.05410  0.75424  3.17553
H    -5.17248  -1.63900  0.37224
H    -5.30088  0.25721  2.09300
O    2.27414  -1.11724  2.29924
Hg    4.03191  1.79744  2.80586
