22
Energy: -568335.7563950  eV PBE+vdW (tier 2 basis)
N    -0.47202  1.21240  1.21836
C    0.24619  0.14694  1.92812
C    1.71302  0.02181  1.42145
O    2.30201  0.87728  0.75870
H    -1.00771  0.88321  0.40526
H    -1.09240  1.76048  1.82545
H    3.22618  -1.14102  1.54061
H    0.35012  0.46667  2.97835
C    -0.53814  -1.24714  1.86009
C    -0.63860  -1.99537  3.15025
N    -1.85460  -2.33962  3.73128
C    0.32845  -2.57907  3.96285
C    -1.65619  -3.10101  4.81447
N    -0.32966  -3.24227  4.96147
H    -0.06519  -1.88358  1.09922
H    -1.55478  -1.04441  1.49749
H    -2.78549  -2.11424  3.37650
H    1.40974  -2.57912  3.89058
H    -2.42674  -3.53220  5.45074
H    0.11236  -3.78249  5.71069
O    2.28149  -1.08557  1.82503
Hg    1.04396  2.79532  0.21403
