30
Energy: -616654.5079936  eV PBE+vdW (tier 2 basis)
C    0.387529  1.949055  1.509466
C    -0.011456  0.776409  2.330796
O    0.595141  0.528449  3.428174
H    0.094386  2.883900  2.011193
H    -0.017951  1.927532  0.494036
H    1.486278  1.964168  1.462951
N    -1.003522  -0.053793  1.939907
C    -2.307574  0.404199  1.461160
C    -3.047693  1.004270  2.684957
O    -2.585951  0.877745  3.871624
H    -1.045604  -0.925908  2.471464
H    -2.152765  1.205070  0.722120
C    -3.081020  -0.763519  0.807161
C    -2.402639  -1.277584  -0.472340
S    -3.140809  -2.802514  -1.122891
C    -4.658861  -2.206717  -1.899691
H    -4.102419  -0.427774  0.580940
H    -3.185396  -1.583061  1.536207
H    -2.403751  -0.507520  -1.258673
H    -1.354676  -1.546286  -0.279083
H    -5.371737  -1.808967  -1.166880
H    -4.433779  -1.458319  -2.669832
H    -5.107985  -3.084833  -2.378298
N    -4.183824  1.645554  2.482905
C    -5.003012  2.247269  3.542763
H    -4.520216  1.731232  1.526790
H    -5.902235  2.666088  3.084422
H    -4.447777  3.048254  4.045203
H    -5.289892  1.486006  4.277082
Pb    -0.792817  0.423977  5.252157
