30
Energy: -616655.0605475  eV PBE+vdW (tier 2 basis)
C    0.281690  -0.781246  0.270936
C    0.116891  -0.557004  1.732827
O    1.164341  -0.365467  2.457496
H    0.960341  -1.628181  0.102508
H    0.763392  0.103647  -0.169866
H    -0.671237  -0.961850  -0.236326
N    -1.103685  -0.538250  2.260809
C    -1.363499  -0.236004  3.666648
C    -0.863815  -1.396637  4.557935
O    0.152428  -1.149281  5.316095
H    -1.949261  -0.725444  1.674702
H    -0.679996  0.582480  3.943459
C    -2.765566  0.364311  3.936104
C    -4.045763  -0.353380  3.500737
S    -4.116515  -0.528725  1.678345
C    -5.489636  -1.692622  1.469462
H    -2.745950  1.360238  3.467198
H    -2.822030  0.550144  5.019325
H    -4.897514  0.260636  3.822796
H    -4.161552  -1.334185  3.976624
H    -5.602449  -1.839027  0.389466
H    -6.409191  -1.248320  1.866309
H    -5.286425  -2.656421  1.949658
N    -1.357496  -2.617575  4.566292
C    -2.409940  -3.238444  3.760262
H    -0.881857  -3.241435  5.222965
H    -2.015257  -4.176548  3.351717
H    -2.711629  -2.588244  2.933443
H    -3.275722  -3.471767  4.391924
Pb    2.043371  -0.229088  4.508970
