30
Energy: -616654.5314269  eV PBE+vdW (tier 2 basis)
C    0.293069  -0.218009  0.716384
C    0.143603  0.333115  2.088885
O    1.177140  0.692214  2.748265
H    0.591653  0.577885  0.017034
H    -0.606303  -0.719262  0.347763
H    1.128405  -0.932943  0.733472
N    -1.070697  0.455293  2.671534
C    -2.234040  1.040187  2.008488
C    -1.971019  2.570187  1.907943
O    -0.947648  3.106976  2.452964
H    -1.029460  0.647138  3.674698
H    -2.291186  0.639149  0.984877
C    -3.530787  0.705747  2.769491
C    -3.860610  -0.789392  2.760886
S    -5.389058  -1.050697  3.713539
C    -5.579704  -2.840025  3.585936
H    -4.363466  1.263472  2.317228
H    -3.449648  1.075572  3.805015
H    -3.051252  -1.381134  3.215507
H    -4.008951  -1.152244  1.731652
H    -6.494600  -3.082026  4.138626
H    -4.731434  -3.360306  4.047710
H    -5.698473  -3.147446  2.539608
N    -2.833783  3.313045  1.241240
C    -2.722083  4.766830  1.065356
H    -3.637787  2.852364  0.821411
H    -3.585381  5.109142  0.489531
H    -1.803011  5.014413  0.521345
H    -2.714622  5.266223  2.041021
Pb    1.117808  2.872367  3.468140
