30
Energy: -616654.9373947  eV PBE+vdW (tier 2 basis)
C    0.294816  -0.539316  0.226913
C    -0.008926  -0.336816  1.670847
O    0.752684  -0.919100  2.539323
H    1.329128  -0.228809  0.024752
H    -0.387317  0.014564  -0.425523
H    0.233468  -1.611873  -0.005808
N    -1.035188  0.413038  2.022292
C    -1.585472  0.685056  3.342024
C    -3.123804  0.844368  3.041270
O    -3.433359  1.069837  1.871672
H    -1.725413  0.729246  1.307980
H    -1.413453  -0.178719  4.012946
C    -1.055515  2.001431  3.951481
C    0.454042  2.202650  4.026406
S    1.441901  1.211843  5.214475
C    0.724548  1.564436  6.847700
H    -1.518169  2.151677  4.936078
H    -1.431334  2.824943  3.322359
H    0.679620  3.240420  4.312246
H    0.956610  2.028377  3.065311
H    1.335583  1.027965  7.583109
H    -0.323234  1.260011  6.922812
H    0.831179  2.642211  7.021094
N    -4.006263  0.763084  4.049551
C    -3.779263  0.517125  5.467062
H    -4.967418  0.935869  3.756379
H    -3.659784  1.451867  6.033829
H    -2.898974  -0.119164  5.621587
H    -4.641281  -0.021065  5.875321
Pb    1.121443  -1.466024  4.619972
