30
Energy: -616655.4980000  eV PBE+vdW (tier 2 basis)
C    0.048881  -0.145632  0.787531
C    -0.565966  -0.260051  2.133789
O    0.122909  -0.596871  3.146193
H    0.809795  0.648315  0.787118
H    -0.679697  0.021031  -0.010952
H    0.592744  -1.081629  0.587363
N    -1.891150  -0.019918  2.328053
C    -2.619435  1.159064  1.860025
C    -1.796907  2.426122  2.185142
O    -0.997420  2.451114  3.176426
H    -2.201291  -0.332759  3.248343
H    -2.787379  1.094204  0.774952
C    -3.992497  1.191933  2.574855
C    -4.034370  1.658625  4.036858
S    -3.135604  0.752775  5.366805
C    -3.835114  -0.925664  5.344682
H    -4.448359  0.197756  2.460614
H    -4.651608  1.878960  2.024214
H    -5.078972  1.663447  4.378339
H    -3.667632  2.688020  4.152876
H    -3.351053  -1.472900  6.161862
H    -3.677799  -1.455115  4.398457
H    -4.906983  -0.840327  5.560207
N    -1.981549  3.485440  1.416699
C    -1.346133  4.795376  1.590021
H    -2.610497  3.383432  0.621982
H    -2.120238  5.564837  1.693521
H    -0.731665  5.022434  0.710591
H    -0.719134  4.777269  2.483583
Pb    -0.272231  0.979925  4.852681
