30
Energy: -616654.4515712  eV PBE+vdW (tier 2 basis)
C    -0.661064  0.161541  -0.417807
C    -0.180162  -0.176430  0.946849
O    1.059312  -0.411944  1.147933
H    -0.277905  1.146206  -0.725325
H    -1.749704  0.132975  -0.516305
H    -0.215552  -0.564490  -1.114265
N    -1.030280  -0.253786  1.995695
C    -2.041695  0.756591  2.306066
C    -1.272364  2.052402  2.673370
O    -0.031044  2.022948  2.977393
H    -0.630645  -0.705623  2.820888
H    -2.649357  0.946665  1.408684
C    -2.948214  0.223159  3.440440
C    -4.224034  1.025784  3.707681
S    -5.228017  0.092651  4.909830
C    -6.618275  1.216121  5.154062
H    -2.362002  0.137494  4.369411
H    -3.229024  -0.798470  3.142516
H    -4.010182  2.015199  4.140863
H    -4.809619  1.161494  2.783910
H    -7.156716  1.385406  4.213443
H    -7.285207  0.711596  5.862592
H    -6.287573  2.167243  5.589525
N    -1.929881  3.196895  2.680079
C    -1.343658  4.494947  3.037581
H    -2.911664  3.181644  2.414543
H    -0.851904  4.430184  4.014238
H    -2.147459  5.233981  3.082342
H    -0.612286  4.804643  2.281052
Pb    1.991137  0.913747  2.775407
