30
Energy: -616654.8106015  eV PBE+vdW (tier 2 basis)
C    0.208422  2.195655  0.074770
C    0.007181  1.284245  1.233262
O    1.053883  0.711238  1.758473
H    0.689170  1.637119  -0.741082
H    0.894782  3.005542  0.357820
H    -0.731946  2.623650  -0.286478
N    -1.197187  1.058757  1.697451
C    -1.589164  0.176956  2.792142
C    -3.142023  0.096645  2.607640
O    -3.667409  1.028467  1.994004
H    -2.048261  1.520668  1.309138
H    -1.105518  -0.801085  2.651704
C    -1.208671  0.816911  4.157501
C    -0.879737  -0.140488  5.296022
S    0.438377  -1.353052  4.851803
C    1.184458  -1.764441  6.459538
H    -2.032313  1.465042  4.492647
H    -0.356125  1.495516  4.002917
H    -1.736712  -0.755063  5.598967
H    -0.530444  0.417355  6.173580
H    1.982398  -2.491508  6.269309
H    0.407580  -2.244783  7.066254
H    1.574232  -0.874905  6.964194
N    -3.834711  -0.921453  3.143415
C    -3.372776  -2.166491  3.743275
H    -4.840413  -0.829626  3.000437
H    -3.889408  -3.011963  3.273385
H    -3.583586  -2.194135  4.821394
H    -2.299632  -2.309222  3.578967
Pb    2.396157  -0.117660  3.238651
