30
Energy: -616655.0407627  eV PBE+vdW (tier 2 basis)
C    0.237627  0.538200  0.445070
C    -0.132148  -0.589043  1.345617
O    0.785693  -1.446600  1.653376
H    1.082809  1.089663  0.879251
H    -0.596442  1.224931  0.270550
H    0.583437  0.131218  -0.515732
N    -1.368882  -0.687567  1.793327
C    -1.995620  -1.728378  2.593168
C    -3.481501  -1.718468  2.057681
O    -3.844523  -0.707106  1.458517
H    -2.121639  -0.082991  1.399065
H    -1.526655  -2.710391  2.380991
C    -2.003950  -1.405848  4.104218
C    -0.688844  -1.007232  4.765280
S    0.618792  -2.269130  5.023734
C    -0.138127  -3.536802  6.085023
H    -2.478855  -2.237710  4.642976
H    -2.676840  -0.544413  4.247692
H    -0.879050  -0.628266  5.780073
H    -0.168233  -0.204144  4.226260
H    0.641876  -4.277636  6.296586
H    -1.005378  -4.014376  5.620768
H    -0.419866  -3.044307  7.023660
N    -4.240340  -2.786012  2.333748
C    -5.653486  -2.884666  1.953383
H    -3.826876  -3.579698  2.811324
H    -6.274405  -3.020658  2.846472
H    -5.801376  -3.731550  1.273234
H    -5.939898  -1.958699  1.448396
Pb    1.293910  -3.358274  2.579660
