30
Energy: -616655.2803540  eV PBE+vdW (tier 2 basis)
C    0.192389  -0.586143  0.221617
C    0.098037  -0.520577  1.708733
O    1.126784  -0.839875  2.397610
H    -0.732725  -0.298583  -0.288340
H    0.458354  -1.613850  -0.065419
H    1.013637  0.058905  -0.119357
N    -1.060773  -0.147767  2.259906
C    -1.499972  -0.127476  3.669444
C    -0.848894  0.994788  4.485069
O    0.404236  1.006720  4.762505
H    -1.790787  0.080976  1.588927
H    -2.572634  0.111563  3.620745
C    -1.442746  -1.487493  4.390636
C    -2.172954  -1.463295  5.749709
S    -3.843555  -0.744792  5.739291
C    -4.826081  -2.048254  4.947056
H    -0.407617  -1.833580  4.560116
H    -1.896664  -2.230396  3.719691
H    -1.617517  -0.864200  6.486187
H    -2.220477  -2.484471  6.150561
H    -5.862369  -1.691943  4.972066
H    -4.756932  -2.975590  5.527280
H    -4.538919  -2.221276  3.904036
N    -1.649033  1.930378  4.952318
C    -1.263134  3.056781  5.803190
H    -2.646225  1.812484  4.762696
H    -1.542092  3.994374  5.307331
H    -0.185802  3.035007  5.977335
H    -1.799228  2.986515  6.757768
Pb    2.137443  -0.331085  4.308461
