30
Energy: -616654.9437790  eV PBE+vdW (tier 2 basis)
C    0.013718  -0.606693  0.075405
C    0.010806  -0.344909  1.542476
O    1.097358  -0.014216  2.121058
H    0.752425  -1.386403  -0.154041
H    0.344664  0.305571  -0.442008
H    -0.965573  -0.903924  -0.313760
N    -1.141944  -0.444071  2.219637
C    -1.339365  -0.061508  3.624436
C    -0.735333  -1.137471  4.557455
O    0.444741  -0.932474  5.020922
H    -1.973261  -0.683920  1.682812
H    -0.714147  0.826122  3.808389
C    -2.801162  0.344720  3.864006
C    -3.088297  0.782292  5.304764
S    -4.895993  0.862892  5.508958
C    -5.035888  1.595346  7.153779
H    -3.478454  -0.472622  3.578478
H    -3.020537  1.177976  3.180584
H    -2.649598  1.769887  5.509763
H    -2.676342  0.074249  6.042287
H    -6.110656  1.665262  7.356790
H    -4.602215  2.602486  7.171372
H    -4.568404  0.957987  7.914068
N    -1.347699  -2.257351  4.896152
C    -2.674729  -2.773421  4.536307
H    -0.793582  -2.847197  5.519847
H    -2.684288  -3.842482  4.767047
H    -2.866381  -2.656288  3.465226
H    -3.464706  -2.282859  5.118959
Pb    2.250672  0.039953  4.060763
