30
Energy: -616655.3749134  eV PBE+vdW (tier 2 basis)
C    -0.513436  1.679516  0.278431
C    -0.859732  1.020496  1.561722
O    -0.083922  1.078853  2.563966
H    -0.286690  2.741622  0.439627
H    -1.275463  1.552785  -0.495948
H    0.423041  1.221233  -0.080721
N    -2.013576  0.306887  1.700233
C    -3.351602  0.798511  1.387004
C    -3.490463  2.261522  1.865974
O    -2.846486  2.698140  2.872602
H    -1.983089  -0.291242  2.523966
H    -3.521465  0.773655  0.300607
C    -4.422497  -0.111594  2.066149
C    -4.026182  -0.930663  3.302804
S    -3.409666  -0.142957  4.849253
C    -4.764027  0.970292  5.325055
H    -4.752747  -0.854751  1.326053
H    -5.307199  0.499240  2.288166
H    -3.266193  -1.695030  3.079439
H    -4.908548  -1.499472  3.630220
H    -4.498863  1.385714  6.304759
H    -5.672883  0.367855  5.441502
H    -4.920273  1.777122  4.602202
N    -4.319450  3.037101  1.187238
C    -4.633792  4.435568  1.493907
H    -4.777691  2.633504  0.372006
H    -4.375942  5.063193  0.632693
H    -4.057945  4.752467  2.365689
H    -5.706546  4.534720  1.698876
Pb    -1.319614  1.842476  4.421733
