30
Energy: -616655.1097440  eV PBE+vdW (tier 2 basis)
C    0.011434  0.072582  -0.017303
C    -0.118100  0.215315  1.458777
O    0.894211  0.641204  2.134291
H    0.243008  1.055687  -0.451680
H    -0.897248  -0.324420  -0.480576
H    0.861611  -0.583304  -0.248648
N    -1.270584  -0.080031  2.048108
C    -1.512610  0.101728  3.475468
C    -0.664855  -0.894808  4.303723
O    0.281634  -0.386983  5.021649
H    -2.108016  -0.431348  1.505830
H    -1.069204  1.070788  3.759555
C    -3.013765  0.269409  3.812205
C    -4.052062  -0.763440  3.358530
S    -4.127801  -1.125876  1.561889
C    -5.024780  0.319327  0.923028
H    -3.288850  1.251799  3.400589
H    -3.085549  0.381263  4.905327
H    -5.044352  -0.407406  3.666787
H    -3.919727  -1.733025  3.849810
H    -5.118955  0.160085  -0.157216
H    -4.490813  1.258927  1.103556
H    -6.026835  0.353021  1.364853
N    -0.798853  -2.205526  4.307130
C    -1.675115  -3.098502  3.546092
H    -0.137388  -2.672883  4.932003
H    -2.091279  -2.593219  2.671982
H    -2.482155  -3.478274  4.184274
H    -1.073191  -3.948961  3.205949
Pb    1.814061  1.004468  4.137204
