30
Energy: -616654.6319041  eV PBE+vdW (tier 2 basis)
C    0.272134  0.662112  0.949848
C    -0.236315  -0.439731  1.810432
O    0.571349  -1.359400  2.201543
H    -0.041853  0.502671  -0.095514
H    1.366258  0.657101  0.973427
H    -0.108097  1.639132  1.266519
N    -1.526346  -0.531101  2.189917
C    -2.689820  -0.333060  1.301593
C    -2.552337  -1.390354  0.167209
O    -1.745592  -2.397453  0.314412
H    -1.678554  -1.217694  2.928610
H    -3.548968  -0.664990  1.906061
C    -2.949984  1.149509  0.925471
C    -4.423668  1.542586  0.729686
S    -4.985247  1.278251  -0.991516
C    -6.783357  1.168403  -0.787912
H    -2.358663  1.449820  0.048910
H    -2.571613  1.735985  1.773926
H    -4.535808  2.609756  0.958148
H    -5.081416  0.988132  1.414138
H    -7.193543  1.019375  -1.793077
H    -7.165102  2.113595  -0.386579
H    -7.066999  0.328403  -0.144714
N    -3.288891  -1.289276  -0.902532
C    -3.298886  -2.256906  -1.999970
H    -3.975276  -0.467295  -0.975995
H    -4.007474  -1.901839  -2.753345
H    -3.612591  -3.245154  -1.641809
H    -2.303326  -2.337643  -2.452717
Pb    -0.010357  -3.380476  1.342178
