30
Energy: -616655.1178924  eV PBE+vdW (tier 2 basis)
C    0.839871  -1.139719  1.356584
C    -0.062598  0.049036  1.234425
O    0.252235  1.064200  0.592951
H    1.713162  -0.848430  1.957989
H    1.214911  -1.408010  0.361843
H    0.367881  -2.011690  1.822095
N    -1.280386  -0.025328  1.871765
C    -2.194926  1.095800  2.082443
C    -2.837863  1.660701  0.802749
O    -4.121926  1.884913  0.787579
H    -1.517123  -0.899619  2.328532
H    -3.035941  0.670285  2.649408
C    -1.532508  2.211971  2.934683
C    -2.291970  3.521327  3.104793
S    -3.936716  3.526359  3.932452
C    -3.716388  2.566871  5.460909
H    -0.575127  2.481350  2.463591
H    -1.278125  1.775325  3.910084
H    -2.489152  4.030312  2.149897
H    -1.696693  4.219710  3.709985
H    -3.432357  1.527938  5.271155
H    -4.669100  2.613918  6.001136
H    -2.948940  3.079092  6.054129
N    -2.085378  1.924480  -0.226453
C    -2.525744  2.458077  -1.511386
H    -1.055012  1.695320  -0.060593
H    -3.616423  2.490052  -1.563425
H    -2.131868  1.816593  -2.308595
H    -2.113371  3.466332  -1.647787
Pb    -5.737581  2.288766  2.204030
