30
Energy: -616655.2339045  eV PBE+vdW (tier 2 basis)
C    -0.417732  0.008618  -0.008934
C    -0.293379  -0.196448  1.460322
O    0.817900  -0.647977  1.932021
H    -0.334569  -0.961360  -0.519946
H    0.422067  0.624240  -0.358633
H    -1.364636  0.483169  -0.285383
N    -1.325010  0.097988  2.245604
C    -1.259811  0.105721  3.709912
C    -1.120974  -1.331486  4.254355
O    0.023264  -1.691486  4.726170
H    -2.108527  0.695206  1.851182
H    -0.314615  0.594057  4.003340
C    -2.402776  0.929408  4.336739
C    -2.503940  2.363076  3.791622
S    -3.155928  2.510846  2.083542
C    -4.926503  2.202260  2.329307
H    -2.207969  0.969864  5.419201
H    -3.370309  0.427847  4.220062
H    -1.523541  2.860320  3.770744
H    -3.142963  2.962881  4.452275
H    -5.384835  2.274016  1.336325
H    -5.350244  2.981464  2.972872
H    -5.130772  1.208500  2.744625
N    -2.100886  -2.212843  4.259918
C    -3.476317  -2.116100  3.759863
H    -1.843252  -3.108778  4.679660
H    -3.770523  -3.107754  3.400583
H    -3.540232  -1.412881  2.925883
H    -4.160324  -1.818795  4.564697
Pb    1.980752  -1.422422  3.659804
