30
Energy: -616655.4242024  eV PBE+vdW (tier 2 basis)
C    0.626339  1.543579  0.024375
C    0.392627  1.012837  1.390815
O    1.267135  1.135676  2.303616
H    0.714288  2.639406  0.057398
H    -0.139910  1.243519  -0.696098
H    1.605436  1.174185  -0.316682
N    -0.760177  0.365808  1.711325
C    -2.113334  0.840886  1.426946
C    -2.232757  2.317253  1.856460
O    -1.462917  2.792080  2.758586
H    -0.691843  -0.102648  2.615355
H    -2.325294  0.739989  0.354427
C    -3.110172  -0.038799  2.219917
C    -3.249753  0.220398  3.727351
S    -1.822905  0.027439  4.879171
C    -1.327586  -1.714980  4.717506
H    -2.856798  -1.089317  2.017593
H    -4.114754  0.106416  1.796631
H    -4.013773  -0.455919  4.135530
H    -3.596897  1.241198  3.940376
H    -2.183063  -2.332055  5.017359
H    -0.510019  -1.871051  5.430815
H    -0.997134  -1.985235  3.708485
N    -3.151903  3.100423  1.316942
C    -4.154073  2.797357  0.290744
H    -3.170013  4.048520  1.698186
H    -5.137808  2.644832  0.752860
H    -3.880566  1.906880  -0.281395
H    -4.216201  3.646268  -0.398394
Pb    0.207473  2.032796  4.207181
