30
Energy: -616654.9400352  eV PBE+vdW (tier 2 basis)
C    0.008743  1.445473  1.246526
C    -0.532573  0.372747  2.130974
O    0.168000  -0.008416  3.160025
H    0.250792  2.339860  1.835940
H    -0.683155  1.714765  0.442362
H    0.949375  1.089941  0.800752
N    -1.678501  -0.190025  1.834790
C    -2.425699  -1.265869  2.483268
C    -3.791622  -1.213389  1.708274
O    -3.979409  -0.256558  0.948295
H    -2.290091  0.195599  1.073861
H    -1.926765  -2.224765  2.271307
C    -2.576242  -1.136684  4.017281
C    -2.902257  0.278852  4.522349
S    -1.977005  0.583756  6.074448
C    -2.292813  2.337039  6.439523
H    -1.649303  -1.513852  4.477142
H    -3.354232  -1.835192  4.349810
H    -3.963452  0.395212  4.775683
H    -2.641132  1.062216  3.801243
H    -1.713790  2.587541  7.336150
H    -3.360544  2.432655  6.670983
H    -2.019663  2.986697  5.602112
N    -4.658396  -2.206359  1.932698
C    -5.955490  -2.301135  1.255977
H    -4.361200  -3.005183  2.484765
H    -6.709800  -2.655933  1.965841
H    -5.897952  -2.995952  0.408517
H    -6.231952  -1.310089  0.886832
Pb    0.705652  0.255920  5.251383
