30
Energy: -616655.0811986  eV PBE+vdW (tier 2 basis)
C    -0.127726  -0.004253  -0.133828
C    -0.034613  0.289517  1.324187
O    0.818164  1.145826  1.735644
H    -0.387837  0.926478  -0.659462
H    -0.871519  -0.770554  -0.375457
H    0.856551  -0.314553  -0.508990
N    -0.867432  -0.333130  2.167932
C    -1.064663  -0.014735  3.592929
C    0.027253  -0.715189  4.427118
O    1.183062  -0.177494  4.529136
H    -1.520391  -0.996757  1.755036
H    -0.871497  1.064175  3.710109
C    -2.526927  -0.277954  3.990757
C    -2.899625  0.273527  5.377878
S    -4.686526  0.276452  5.703787
C    -5.014088  -1.463059  6.072225
H    -2.769686  -1.352098  3.916115
H    -3.158147  0.219348  3.239662
H    -2.613257  1.333173  5.449801
H    -2.386485  -0.256967  6.194124
H    -6.075195  -1.509561  6.344391
H    -4.418819  -1.802108  6.929627
H    -4.856234  -2.112328  5.201921
N    -0.237397  -1.865448  5.012130
C    0.700934  -2.665957  5.803677
H    -1.183089  -2.228720  4.910643
H    0.912032  -3.607701  5.281879
H    0.249139  -2.889041  6.777014
H    1.626763  -2.105235  5.945540
Pb    2.219708  1.528848  3.449168
