30
Energy: -616655.3736606  eV PBE+vdW (tier 2 basis)
C    1.447247  -2.853997  1.781730
C    0.824988  -1.659706  2.419970
O    1.585399  -0.733562  2.872768
H    2.147516  -3.324164  2.484961
H    2.043024  -2.516330  0.920827
H    0.715497  -3.594255  1.442133
N    -0.505401  -1.572466  2.478449
C    -1.308010  -0.403697  2.885018
C    -1.420020  -0.367020  4.424132
O    -0.398191  0.062512  5.097797
H    -1.027414  -2.356400  2.089758
H    -0.709501  0.486595  2.634326
C    -2.579679  -0.308523  2.013421
C    -3.560902  -1.495382  1.968448
S    -4.901025  -1.270318  3.191192
C    -5.684351  -2.904782  3.189904
H    -2.214872  -0.125192  0.992495
H    -3.114261  0.611008  2.295546
H    -3.077214  -2.469580  2.151283
H    -4.010437  -1.549867  0.969428
H    -6.516378  -2.840327  3.900342
H    -4.989900  -3.689398  3.510067
H    -6.086747  -3.120834  2.193981
N    -2.497584  -0.749912  5.048364
C    -2.653679  -0.731801  6.503929
H    -3.356812  -1.043260  4.483488
H    -3.701876  -0.945207  6.730906
H    -2.382290  0.250664  6.907009
H    -2.018549  -1.496807  6.968163
Pb    1.692422  0.635007  4.634168
