30
Energy: -616654.4143083  eV PBE+vdW (tier 2 basis)
C    0.087041  0.781294  -0.055861
C    -0.024479  0.177235  1.296936
O    1.001605  -0.350594  1.847984
H    0.706901  1.689967  -0.019875
H    -0.879972  1.003061  -0.515612
H    0.635139  0.069426  -0.691132
N    -1.197485  0.160449  1.967837
C    -2.069203  1.327729  2.112594
C    -1.287837  2.359138  2.964059
O    -0.264681  2.013751  3.651775
H    -1.203973  -0.465034  2.776045
H    -2.257820  1.759724  1.118236
C    -3.417991  0.878847  2.733615
C    -4.546540  1.918801  2.681615
S    -6.186718  1.194674  2.998234
C    -6.219216  1.076253  4.800475
H    -3.251571  0.548946  3.771043
H    -3.732161  -0.005114  2.159851
H    -4.635671  2.343521  1.669816
H    -4.394660  2.745521  3.390320
H    -7.214101  0.688822  5.049824
H    -6.099149  2.065166  5.260497
H    -5.467463  0.374918  5.182646
N    -1.704438  3.611508  2.981661
C    -1.085825  4.688796  3.764365
H    -2.511963  3.851095  2.410934
H    -0.094940  4.932932  3.362054
H    -0.988518  4.385549  4.812384
H    -1.726160  5.571995  3.698352
Pb    1.506680  0.550044  3.892846
