30
Energy: -616655.1096291  eV PBE+vdW (tier 2 basis)
C    -0.555456  0.155043  -0.248907
C    -0.514796  0.094926  1.240015
O    0.589590  0.306354  1.843387
H    0.171583  -0.555540  -0.664387
H    -0.232750  1.157880  -0.565081
H    -1.547027  -0.050433  -0.665400
N    -1.646726  -0.153284  1.910737
C    -1.845677  -0.064950  3.367407
C    -1.379190  -1.375901  4.032648
O    -0.127581  -1.587146  4.194336
H    -2.479199  -0.320941  1.349058
H    -1.152671  0.708664  3.738474
C    -3.279872  0.380509  3.694621
C    -3.569312  1.834974  3.278088
S    -5.156143  2.466556  3.893510
C    -6.337270  1.738416  2.734136
H    -3.425509  0.300062  4.781386
H    -4.011197  -0.294650  3.217906
H    -3.528411  1.970097  2.186967
H    -2.818062  2.506604  3.718996
H    -6.370744  0.643956  2.802050
H    -6.125672  2.059332  1.706454
H    -7.317384  2.131103  3.029461
N    -2.270525  -2.262983  4.423985
C    -1.982934  -3.551884  5.059827
H    -3.251731  -2.022494  4.296021
H    -2.507406  -3.602049  6.021277
H    -0.907268  -3.647848  5.218222
H    -2.338637  -4.364282  4.414324
Pb    1.764039  -0.498160  3.584919
