30
Energy: -616654.5475396  eV PBE+vdW (tier 2 basis)
C    -2.060407  0.970521  -0.397224
C    -1.002834  1.093102  0.642353
O    0.002320  1.862276  0.434551
H    -3.062678  0.903472  0.037758
H    -1.888267  0.067782  -1.007406
H    -1.996893  1.831978  -1.070716
N    -1.049815  0.402425  1.801439
C    -1.345567  -1.034454  1.909983
C    -0.365089  -1.775209  0.994892
O    0.743729  -1.225642  0.634920
H    -0.427561  0.757701  2.528387
H    -1.057711  -1.265498  2.961323
C    -2.828597  -1.429190  1.858140
C    -3.636772  -0.642540  2.906071
S    -2.899100  -0.602917  4.567342
C    -3.322564  -2.239458  5.221912
H    -2.903181  -2.502283  2.094509
H    -3.266863  -1.295284  0.859279
H    -4.655774  -1.045605  2.970978
H    -3.723936  0.413721  2.616475
H    -2.925915  -2.264001  6.243310
H    -2.871238  -3.056307  4.647501
H    -4.412341  -2.353832  5.261836
N    -0.617780  -3.016213  0.624534
C    0.301001  -3.863350  -0.145775
H    -1.507711  -3.419610  0.905083
H    0.451943  -3.449137  -1.149758
H    -0.142239  -4.858546  -0.230958
H    1.266876  -3.938073  0.366544
Pb    1.952887  0.689866  0.457994
