30
Energy: -616655.0617020  eV PBE+vdW (tier 2 basis)
C    -1.676203  -0.133092  0.324012
C    -1.019605  -0.000737  1.653943
O    0.184669  0.453507  1.705461
H    -1.135735  -0.879118  -0.276135
H    -1.598132  0.822786  -0.211314
H    -2.727538  -0.426841  0.405951
N    -1.699638  -0.345161  2.744011
C    -1.246271  -0.094513  4.113918
C    -0.070236  -1.031283  4.480883
O    1.115849  -0.525589  4.472390
H    -2.750287  -0.468240  2.640218
H    -0.764918  0.896556  4.130457
C    -2.423324  -0.007586  5.135991
C    -3.757053  -0.704820  4.832990
S    -4.602262  0.068888  3.398225
C    -6.005282  -1.057267  3.176837
H    -2.629928  1.062422  5.276220
H    -2.054029  -0.359214  6.110204
H    -4.402744  -0.596214  5.714605
H    -3.650435  -1.778698  4.639081
H    -6.577431  -0.664331  2.328888
H    -6.637857  -1.037417  4.071482
H    -5.676044  -2.078150  2.954740
N    -0.186733  -2.302419  4.808203
C    -1.373010  -3.157145  4.887170
H    0.703713  -2.746067  5.041281
H    -1.034414  -4.197050  4.867204
H    -2.025394  -2.990027  4.025061
H    -1.920132  -2.986454  5.822272
Pb    2.011184  0.811900  2.910045
