30
Energy: -616655.1296909  eV PBE+vdW (tier 2 basis)
C    -0.326893  0.504565  -0.207098
C    -0.488825  0.387016  1.273365
O    0.238009  1.111532  2.022688
H    -0.524177  1.543650  -0.505215
H    -0.980503  -0.164870  -0.775634
H    0.720131  0.295037  -0.466418
N    -1.397378  -0.484410  1.737615
C    -1.777596  -0.866933  3.116052
C    -2.278580  0.316929  3.962295
O    -1.498882  1.158517  4.518274
H    -1.895568  -0.993967  1.012194
H    -2.660290  -1.500491  2.956578
C    -0.779342  -1.805461  3.855107
C    0.712085  -1.460603  3.933114
S    1.779004  -2.746452  4.580913
C    1.080581  -3.112782  6.210140
H    -0.843116  -2.780340  3.350013
H    -1.188517  -1.961934  4.863790
H    0.883919  -0.530764  4.568485
H    1.132682  -1.252323  2.940295
H    1.784724  -3.821577  6.662372
H    0.097507  -3.591586  6.148234
H    1.045674  -2.213217  6.838164
N    -3.585229  0.398679  4.152311
C    -4.268855  1.415094  4.956264
H    -4.175192  -0.299723  3.705467
H    -4.982915  0.919075  5.623051
H    -4.812620  2.103759  4.297109
H    -3.534260  1.968533  5.544568
Pb    0.630310  1.798964  4.127481
