30
Energy: -616654.6916017  eV PBE+vdW (tier 2 basis)
C    -2.635939  -1.305180  0.173615
C    -1.241179  -1.015425  0.588752
O    -0.259973  -1.401379  -0.142484
H    -2.852361  -0.852463  -0.804260
H    -3.383264  -1.005669  0.914216
H    -2.704323  -2.394672  0.021190
N    -0.965736  -0.367672  1.740552
C    -1.637353  0.862338  2.149225
C    -1.065092  1.995425  1.282606
O    -0.131825  1.780553  0.421805
H    0.008310  -0.442554  2.042525
H    -2.724410  0.754897  1.935559
C    -1.546596  1.075386  3.668496
C    -2.385660  0.027671  4.419941
S    -4.112363  -0.089088  3.862882
C    -4.876306  1.350255  4.656418
H    -1.906478  2.084810  3.913245
H    -0.497923  1.040124  4.006141
H    -2.365006  0.233169  5.498195
H    -1.972356  -0.980462  4.281177
H    -5.933383  1.326275  4.368236
H    -4.440887  2.300063  4.324455
H    -4.802041  1.258699  5.746381
N    -1.558902  3.212618  1.410515
C    -1.121850  4.381337  0.637132
H    -2.302422  3.352505  2.090032
H    -1.362409  4.249327  -0.424657
H    -0.042135  4.528473  0.752032
H    -1.648505  5.259790  1.018072
Pb    1.135122  0.293174  -0.742268
