30
Energy: -616654.6486416  eV PBE+vdW (tier 2 basis)
C    -0.289714  1.209739  -0.576538
C    -0.316296  0.469451  0.709636
O    0.708395  -0.200649  1.088761
H    0.493284  1.981514  -0.563747
H    -1.256358  1.644458  -0.847019
H    0.010325  0.492133  -1.356854
N    -1.411912  0.469159  1.499027
C    -2.136792  1.684251  1.863584
C    -1.229336  2.484475  2.802582
O    -0.184108  1.939106  3.333221
H    -1.409815  -0.253558  2.222212
H    -2.345134  2.269721  0.941118
C    -3.519619  1.337687  2.442074
C    -4.444773  0.786400  1.341808
S    -4.589284  1.858420  -0.119430
C    -5.805769  3.088794  0.423992
H    -3.959840  2.237041  2.891021
H    -3.422097  0.607401  3.262265
H    -5.444557  0.596786  1.753553
H    -4.072321  -0.173150  0.958495
H    -5.923617  3.786779  -0.412700
H    -5.480835  3.645314  1.310755
H    -6.767959  2.600186  0.616988
N    -1.485459  3.747719  3.089618
C    -2.562299  4.606103  2.588005
H    -0.840013  4.172603  3.757378
H    -2.144336  5.596911  2.379356
H    -3.351548  4.708573  3.344013
H    -2.982491  4.202905  1.662403
Pb    1.437815  0.361663  3.177751
