30
Energy: -616654.9238877  eV PBE+vdW (tier 2 basis)
C    0.691983  -0.882703  0.363138
C    0.358749  -0.626201  1.790351
O    1.312287  -0.262401  2.593095
H    1.147233  0.018324  -0.071074
H    -0.187495  -1.164125  -0.224495
H    1.443470  -1.682296  0.302815
N    -0.873596  -0.770963  2.222232
C    -1.391925  -0.539132  3.558174
C    -2.759859  -1.310977  3.528600
O    -3.235417  -1.560307  2.421509
H    -1.642896  -1.126285  1.614054
H    -0.714142  -0.987994  4.309891
C    -1.605877  0.978843  3.824161
C    -1.355629  1.433103  5.256724
S    0.383700  1.760864  5.758880
C    0.777780  3.301487  4.868863
H    -2.645838  1.230995  3.568381
H    -0.989632  1.562371  3.126718
H    -1.722512  0.723797  6.010961
H    -1.858969  2.389184  5.459997
H    0.648975  3.205793  3.786017
H    1.814765  3.561511  5.113966
H    0.120718  4.083511  5.268379
N    -3.336618  -1.585593  4.707343
C    -4.642448  -2.244589  4.819020
H    -2.810605  -1.441676  5.562260
H    -5.230520  -1.757720  5.604086
H    -4.519458  -3.307762  5.060493
H    -5.161354  -2.152794  3.861360
Pb    2.219336  -0.010018  4.554400
