30
Energy: -616655.3677223  eV PBE+vdW (tier 2 basis)
C    0.842043  0.860829  0.335816
C    0.258075  -0.143570  1.259133
O    0.993820  -0.877584  1.987352
H    1.418231  1.605161  0.903435
H    0.099762  1.351418  -0.300224
H    1.570940  0.340050  -0.304741
N    -1.089540  -0.327266  1.343880
C    -2.078022  0.726191  1.541573
C    -1.586507  1.694699  2.641592
O    -0.704760  1.332089  3.490026
H    -1.315199  -1.191831  1.834467
H    -2.210346  1.295199  0.611681
C    -3.448125  0.088978  1.923601
C    -3.428166  -1.245286  2.681896
S    -2.591929  -1.242181  4.328508
C    -2.855612  -2.961658  4.853911
H    -4.004074  -0.106807  0.996006
H    -4.036676  0.826546  2.484248
H    -3.016952  -2.068464  2.078889
H    -4.468267  -1.520100  2.906251
H    -2.371958  -3.071565  5.831455
H    -2.435388  -3.674071  4.136606
H    -3.933775  -3.119696  4.973784
N    -2.070475  2.924187  2.705234
C    -3.075030  3.581907  1.864600
H    -1.701025  3.477722  3.480582
H    -4.045348  3.603612  2.377485
H    -3.187223  3.072599  0.903830
H    -2.752551  4.611413  1.676177
Pb    0.264496  -0.649023  4.222494
