30
Energy: -616655.2920215  eV PBE+vdW (tier 2 basis)
C    1.593417  -0.434101  1.142973
C    0.699032  -0.464829  2.334194
O    1.179406  -0.828590  3.463074
H    1.081778  -0.125977  0.225329
H    2.043133  -1.425485  0.997577
H    2.420607  0.261972  1.345246
N    -0.575325  -0.084975  2.204436
C    -1.536779  0.087816  3.308291
C    -2.060271  -1.286472  3.768906
O    -1.433643  -1.939899  4.693975
H    -0.871973  0.207998  1.275467
H    -0.973292  0.491968  4.163868
C    -2.619424  1.111867  2.932758
C    -3.303083  1.672614  4.184968
S    -3.795961  0.402725  5.393902
C    -5.382251  -0.162020  4.733712
H    -3.357770  0.676950  2.239950
H    -2.145566  1.941016  2.384937
H    -4.174483  2.283714  3.918180
H    -2.611096  2.329053  4.731070
H    -5.288892  -0.641626  3.750582
H    -6.082613  0.678955  4.671380
H    -5.772772  -0.891648  5.452350
N    -2.975688  -1.916574  3.049366
C    -3.473448  -3.261949  3.348523
H    -3.457839  -1.385959  2.329954
H    -2.653735  -3.988359  3.319802
H    -4.217545  -3.530014  2.594324
H    -3.935579  -3.282591  4.343946
Pb    0.661654  -1.859579  5.387960
