30
Energy: -616654.4752814  eV PBE+vdW (tier 2 basis)
C    -0.169130  0.403863  -0.111820
C    -0.097473  0.138944  1.349156
O    1.030172  -0.088685  1.902910
H    0.265998  1.388685  -0.341198
H    -1.183277  0.340760  -0.516176
H    0.471754  -0.333081  -0.617211
N    -1.210761  0.125193  2.117892
C    -2.237478  1.166887  2.078361
C    -1.586602  2.461617  2.623866
O    -0.475352  2.409827  3.262538
H    -1.060775  -0.261456  3.052003
H    -2.536598  1.331991  1.032704
C    -3.462667  0.741520  2.911827
C    -4.213467  -0.447440  2.305429
S    -5.604025  -0.869884  3.401199
C    -6.310818  -2.287893  2.537674
H    -4.145076  1.596428  3.007017
H    -3.132785  0.505487  3.937157
H    -3.559691  -1.327031  2.202008
H    -4.602249  -0.195736  1.306200
H    -7.170022  -2.604710  3.139726
H    -5.589482  -3.112168  2.477613
H    -6.657404  -2.003900  1.536444
N    -2.169880  3.634334  2.452432
C    -3.423187  3.959598  1.765635
H    -1.676384  4.418158  2.883616
H    -3.280126  4.892377  1.209737
H    -4.232359  4.102665  2.493428
H    -3.702163  3.173576  1.058592
Pb    1.517949  1.321192  3.655391
