30
Energy: -616655.6996311  eV PBE+vdW (tier 2 basis)
C    0.698716  1.154410  1.461492
C    -0.038310  0.375502  2.496474
O    0.517176  0.107730  3.603862
H    1.036277  2.102975  1.900711
H    0.099614  1.359107  0.567927
H    1.603353  0.600369  1.174447
N    -1.305525  -0.028319  2.227990
C    -2.049939  -0.730530  3.255697
C    -1.778714  -2.243772  3.262626
O    -1.017023  -2.694950  4.186913
H    -1.713120  0.209577  1.327710
H    -1.523973  -0.400606  4.156368
C    -3.466203  -0.283559  3.616487
C    -3.760646  -0.685072  5.079996
S    -2.515584  -0.270483  6.372978
C    -2.451616  1.545143  6.333720
H    -4.254584  -0.715191  2.985716
H    -3.522965  0.807451  3.497872
H    -3.885838  -1.771368  5.191362
H    -4.695594  -0.222312  5.422922
H    -2.078386  1.936164  5.381646
H    -1.786036  1.850464  7.149492
H    -3.458622  1.926210  6.540468
N    -2.285613  -3.077864  2.373835
C    -3.146035  -2.799726  1.224161
H    -2.005779  -4.052919  2.503970
H    -3.351086  -1.730422  1.136486
H    -4.096907  -3.335495  1.333819
H    -2.650263  -3.143277  0.308136
Pb    0.191225  -1.255236  5.533718
