30
Energy: -616654.5681069  eV PBE+vdW (tier 2 basis)
C    0.601807  0.081368  0.364346
C    -0.165928  0.998226  1.245212
O    -0.254332  2.245756  0.946664
H    0.174666  0.053141  -0.647923
H    0.703792  -0.930279  0.766670
H    1.608153  0.517217  0.253378
N    -0.759475  0.561462  2.371899
C    -1.623767  -0.633086  2.391095
C    -3.049513  -0.093489  2.104620
O    -3.192540  0.960713  1.357901
H    -1.043538  1.309027  3.007228
H    -1.367940  -1.209739  1.487537
C    -1.380747  -1.558141  3.596488
C    -2.002890  -1.165290  4.949445
S    -3.477508  -2.216984  5.202185
C    -4.295409  -1.421413  6.607888
H    -0.289596  -1.632215  3.695164
H    -1.707902  -2.572102  3.319425
H    -2.295418  -0.103712  4.991837
H    -1.296876  -1.342058  5.769128
H    -5.193050  -2.015395  6.814219
H    -4.582501  -0.388381  6.380913
H    -3.639275  -1.456646  7.484907
N    -4.098694  -0.728589  2.554765
C    -5.480218  -0.361289  2.239132
H    -3.974610  -1.429196  3.346503
H    -6.136495  -1.118405  2.676936
H    -5.625549  -0.336290  1.153469
H    -5.731547  0.621871  2.658321
Pb    -2.391759  2.901131  0.557627
