30
Energy: -616655.6297107  eV PBE+vdW (tier 2 basis)
C    0.682504  2.540073  1.538421
C    0.465979  1.161621  2.061359
O    1.349809  0.271566  1.878105
H    0.797910  2.494142  0.446534
H    1.628697  2.928667  1.939294
H    -0.130405  3.229424  1.789715
N    -0.680255  0.892629  2.733905
C    -0.888145  -0.424912  3.303849
C    -1.478483  -1.435189  2.310349
O    -0.665279  -2.296005  1.825846
H    -1.360936  1.639188  2.849383
H    0.136717  -0.794690  3.367106
C    -1.303645  -0.541784  4.777630
C    -0.041949  -0.735532  5.649833
S    1.152910  -2.044055  5.148678
C    0.181580  -3.571528  5.307816
H    -1.989269  -1.389168  4.909035
H    -1.838605  0.348572  5.138003
H    -0.311229  -0.968652  6.688719
H    0.573135  0.175361  5.672234
H    0.875055  -4.402290  5.131134
H    -0.648558  -3.620433  4.595215
H    -0.187391  -3.640041  6.337939
N    -2.747889  -1.444410  1.950852
C    -3.824047  -0.555368  2.386741
H    -2.994159  -2.159613  1.262981
H    -3.484825  0.096471  3.196056
H    -4.665779  -1.154557  2.753380
H    -4.166561  0.057571  1.543677
Pb    1.638114  -2.057057  2.148208
