30
Energy: -616654.3860294  eV PBE+vdW (tier 2 basis)
C    -0.112751  0.234769  -0.285749
C    -0.096720  0.048029  1.188348
O    1.014245  -0.120668  1.798841
H    0.325286  1.208307  -0.553524
H    -1.108950  0.137529  -0.726377
H    0.552563  -0.524303  -0.723206
N    -1.237698  0.038571  1.911828
C    -2.294254  1.041092  1.773108
C    -1.726080  2.364911  2.342192
O    -0.629966  2.371347  3.013580
H    -1.114817  -0.298200  2.868176
H    -2.498328  1.188710  0.702651
C    -3.604897  0.579250  2.454704
C    -3.518516  0.369140  3.973047
S    -5.145482  0.166784  4.763384
C    -5.603362  -1.518326  4.297229
H    -3.912950  -0.347163  1.950933
H    -4.388039  1.317539  2.242922
H    -3.094576  1.252583  4.474884
H    -2.898361  -0.500318  4.243661
H    -6.553842  -1.712273  4.808154
H    -4.857162  -2.239760  4.652855
H    -5.761307  -1.620912  3.217107
N    -2.357900  3.508982  2.153000
C    -3.595450  3.781212  1.414509
H    -1.911431  4.314340  2.595306
H    -4.455952  3.797707  2.095749
H    -3.759604  3.036248  0.630493
H    -3.500826  4.764615  0.942642
Pb    1.407339  1.406755  3.462148
