30
Energy: -616654.6941576  eV PBE+vdW (tier 2 basis)
C    -2.004178  -1.503475  -0.044509
C    -0.779673  -1.074888  0.677497
O    0.376607  -1.389924  0.225812
H    -2.016010  -1.094512  -1.064684
H    -2.929768  -1.253688  0.483046
H    -1.943840  -2.597519  -0.160423
N    -0.853907  -0.369244  1.828271
C    -1.694694  0.812012  1.982703
C    -1.016072  1.961266  1.212490
O    0.124063  1.806996  0.639885
H    0.017036  -0.343597  2.363740
H    -2.672556  0.604099  1.502283
C    -1.990113  1.100403  3.467714
C    -3.001514  0.105565  4.039929
S    -4.563201  0.239953  3.112451
C    -5.497350  -1.169300  3.754896
H    -2.381075  2.122707  3.571488
H    -1.056825  1.073720  4.051754
H    -3.183029  0.332166  5.099088
H    -2.626749  -0.927421  3.977033
H    -6.460193  -1.158892  3.232270
H    -5.670371  -1.046487  4.830403
H    -4.980237  -2.114584  3.553546
N    -1.638767  3.121190  1.130107
C    -1.127318  4.299912  0.419950
H    -2.547533  3.204417  1.581022
H    -1.800017  5.137617  0.619701
H    -1.096165  4.111864  -0.660175
H    -0.121906  4.548511  0.777111
Pb    1.771603  0.394804  -0.059851
