30
Energy: -616654.4576116  eV PBE+vdW (tier 2 basis)
C    -0.160455  0.266626  -0.290015
C    -0.023537  0.124501  1.182952
O    1.135262  0.018829  1.710680
H    0.215197  1.248789  -0.615063
H    -1.183068  0.119171  -0.648269
H    0.499929  -0.477772  -0.758805
N    -1.106001  0.095332  1.992026
C    -2.207593  1.057110  1.912734
C    -1.632173  2.432106  2.312520
O    -0.502327  2.512439  2.920132
H    -0.898687  -0.206038  2.946435
H    -2.570828  1.101951  0.875554
C    -3.356500  0.612686  2.849384
C    -4.030563  -0.685984  2.377458
S    -5.173024  -1.391541  3.597085
C    -6.623808  -0.325740  3.443189
H    -4.096722  1.420261  2.913809
H    -2.957233  0.484132  3.868252
H    -4.559730  -0.533647  1.424592
H    -3.286130  -1.477824  2.214146
H    -6.421911  0.700865  3.772508
H    -7.007386  -0.337449  2.415308
H    -7.379117  -0.760366  4.108390
N    -2.297265  3.546298  2.060660
C    -3.588184  3.725369  1.391593
H    -1.847170  4.395204  2.407439
H    -3.523584  4.605654  0.743010
H    -4.382541  3.889840  2.131110
H    -3.836939  2.857735  0.774489
Pb    1.576800  1.613639  3.304597
