30
Energy: -616656.2448180  eV PBE+vdW (tier 2 basis)
C    -0.706553  -0.739568  -0.185955
C    -0.640491  -0.505964  1.289845
O    0.492221  -0.478640  1.857790
H    -1.726437  -0.804489  -0.578651
H    -0.169564  -1.668920  -0.419965
H    -0.172036  0.071568  -0.699522
N    -1.803578  -0.352514  1.945854
C    -2.108937  -0.195472  3.384100
C    -1.631809  1.148701  3.961369
O    -0.422803  1.531719  3.976652
H    -2.626185  -0.395031  1.350197
H    -3.204994  -0.129261  3.388874
C    -1.830917  -1.439529  4.276062
C    -0.471826  -2.140208  4.324636
S    0.808651  -1.265678  5.306157
C    2.134097  -2.509934  5.362465
H    -2.538664  -2.207691  3.930092
H    -2.156277  -1.181509  5.295445
H    -0.073017  -2.369418  3.330332
H    -0.611245  -3.091170  4.857708
H    2.981578  -2.046364  5.880341
H    2.427795  -2.837432  4.359780
H    1.775623  -3.358738  5.956079
N    -2.566228  1.928738  4.485605
C    -2.289085  3.222447  5.119220
H    -3.535311  1.626499  4.441893
H    -1.561366  3.097959  5.929228
H    -3.224918  3.612959  5.526437
H    -1.889314  3.928435  4.381371
Pb    1.633590  0.670508  3.465561
