30
Energy: -616656.1490610  eV PBE+vdW (tier 2 basis)
C    -0.525303  0.620691  0.015328
C    -0.292095  0.268315  1.449773
O    0.761714  -0.362613  1.765051
H    -1.488451  1.106708  -0.170879
H    -0.460527  -0.295892  -0.586841
H    0.284633  1.280106  -0.326260
N    -1.236155  0.627467  2.336906
C    -1.388425  0.366545  3.782053
C    -0.370590  1.124978  4.645702
O    0.872867  1.168323  4.384049
H    -2.018370  1.130210  1.926331
H    -2.355467  0.832316  4.008691
C    -1.607795  -1.118983  4.190245
C    -0.610899  -2.224179  3.835460
S    0.953661  -2.176874  4.793910
C    1.709610  -3.766289  4.334759
H    -2.557843  -1.418072  3.723049
H    -1.797513  -1.128468  5.274347
H    -0.378583  -2.259625  2.765713
H    -1.069267  -3.183403  4.114324
H    2.695069  -3.798073  4.813490
H    1.804863  -3.872069  3.249093
H    1.087199  -4.568497  4.747450
N    -0.817194  1.774931  5.712473
C    -2.194652  1.942712  6.193568
H    -0.083458  2.239493  6.249042
H    -2.813158  2.467947  5.454622
H    -2.158473  2.556414  7.097772
H    -2.650395  0.980355  6.455262
Pb    2.377791  -0.221320  3.368972
