30
Energy: -616655.1430325  eV PBE+vdW (tier 2 basis)
C    0.558097  -0.002734  0.241629
C    0.118066  0.612353  1.526325
O    0.856280  1.491564  2.083679
H    1.541693  -0.471937  0.378643
H    0.691206  0.797959  -0.500375
H    -0.147833  -0.742268  -0.150375
N    -1.057061  0.244593  2.051386
C    -1.741334  0.859846  3.201794
C    -1.170015  0.278335  4.512098
O    -0.040747  0.693883  4.946258
H    -1.577330  -0.470388  1.546140
H    -1.466127  1.927172  3.210085
C    -3.263401  0.744025  3.038104
C    -3.822741  1.583224  1.882579
S    -5.609321  1.254153  1.763632
C    -6.088674  2.397089  0.450351
H    -3.739144  1.074258  3.973269
H    -3.549872  -0.312494  2.886167
H    -3.345150  1.329480  0.923130
H    -3.659419  2.655485  2.069610
H    -7.167356  2.257243  0.315967
H    -5.576631  2.156741  -0.489256
H    -5.895716  3.436074  0.743683
N    -1.847993  -0.642301  5.166370
C    -1.432164  -1.298291  6.409254
H    -2.753549  -0.912145  4.786530
H    -2.213371  -1.160103  7.165880
H    -0.495871  -0.858654  6.757682
H    -1.295474  -2.371334  6.227053
Pb    1.575078  2.062122  4.137906
