30
Energy: -616654.4931731  eV PBE+vdW (tier 2 basis)
C    -0.043028  0.253059  1.675353
C    -1.173850  0.702508  2.532940
O    -0.941146  1.087867  3.733091
H    -0.156088  0.569476  0.634063
H    0.030056  -0.847607  1.696522
H    0.891740  0.645440  2.089879
N    -2.452664  0.699264  2.100847
C    -3.096369  -0.408815  1.381077
C    -2.937306  -1.672579  2.246860
O    -2.662334  -1.583547  3.499828
H    -3.089120  1.247610  2.679627
H    -4.170210  -0.143249  1.417979
C    -2.764381  -0.535598  -0.119688
C    -3.003181  0.774214  -0.876771
S    -4.713605  1.348952  -0.612773
C    -4.648661  3.006725  -1.332008
H    -3.429125  -1.302171  -0.548266
H    -1.736305  -0.884579  -0.283160
H    -2.838607  0.601940  -1.949196
H    -2.307404  1.560324  -0.550613
H    -5.651550  3.429636  -1.206438
H    -4.417203  2.944262  -2.401879
H    -3.917271  3.638282  -0.814495
N    -3.148456  -2.859203  1.712150
C    -3.136268  -4.125453  2.455299
H    -3.363586  -2.898945  0.719138
H    -3.325565  -4.937623  1.749193
H    -3.918548  -4.122006  3.223571
H    -2.160169  -4.278484  2.929617
Pb    -1.987485  -0.270197  5.240265
