30
Energy: -616654.4791316  eV PBE+vdW (tier 2 basis)
C    0.125425  -0.427132  0.274039
C    0.011516  0.180256  1.614135
O    1.015372  0.781191  2.143811
H    -0.694890  -0.011478  -0.346255
H    -0.034465  -1.516149  0.305583
H    1.110433  -0.224856  -0.154530
N    -1.158588  0.164908  2.302731
C    -1.975667  -1.036318  2.555498
C    -1.031669  -2.096325  3.183486
O    0.043809  -1.740240  3.782633
H    -1.182743  0.846057  3.061412
H    -2.646389  -0.737917  3.379219
C    -2.887678  -1.518113  1.412684
C    -3.839005  -0.425541  0.885545
S    -3.147413  0.718173  -0.347407
C    -3.418112  -0.201788  -1.885077
H    -3.523912  -2.320039  1.823174
H    -2.309770  -1.962244  0.590929
H    -4.207614  0.202315  1.709349
H    -4.720424  -0.901151  0.436510
H    -3.013867  0.425063  -2.688316
H    -4.492248  -0.344882  -2.052888
H    -2.899555  -1.168202  -1.890361
N    -1.366753  -3.369880  3.145100
C    -0.606074  -4.452800  3.781700
H    -2.223638  -3.618666  2.657059
H    -0.461354  -4.236327  4.846065
H    0.370831  -4.567961  3.297000
H    -1.174328  -5.379783  3.672667
Pb    1.579348  -0.077665  4.160170
