30
Energy: -616655.2654590  eV PBE+vdW (tier 2 basis)
C    0.049595  0.547388  0.465416
C    -0.016629  -0.019250  1.843685
O    1.007493  -0.625909  2.302526
H    -0.878005  1.035155  0.148753
H    0.291928  -0.262530  -0.237151
H    0.877114  1.268367  0.412519
N    -1.151470  0.123397  2.539030
C    -1.529115  -0.419373  3.861252
C    -0.774656  0.279029  4.998486
O    0.440801  -0.005787  5.281065
H    -1.895637  0.617148  2.051496
H    -2.596455  -0.164707  3.958485
C    -1.498353  -1.957115  3.963338
C    -2.469569  -2.645612  2.980399
S    -4.189299  -2.099149  3.158579
C    -4.782120  -3.124197  4.532309
H    -1.752226  -2.223696  4.999952
H    -0.487234  -2.377020  3.775041
H    -2.410381  -3.733988  3.108055
H    -2.189780  -2.430107  1.940227
H    -5.838173  -2.859749  4.660933
H    -4.252817  -2.918557  5.469404
H    -4.710725  -4.185845  4.269728
N    -1.434163  1.175057  5.707693
C    -0.901759  1.938289  6.839543
H    -2.403423  1.352698  5.450698
H    -0.859778  3.002271  6.575290
H    0.098983  1.577235  7.084199
H    -1.566507  1.809487  7.701546
Pb    1.929871  -1.317385  4.221606
