30
Energy: -616655.4046666  eV PBE+vdW (tier 2 basis)
C    -0.530095  -1.053076  0.663423
C    -0.419686  -0.416569  2.005284
O    0.653685  0.226770  2.301781
H    -0.467716  -0.264995  -0.101742
H    -1.465107  -1.606888  0.531153
H    0.325090  -1.721716  0.499045
N    -1.444875  -0.501752  2.849184
C    -1.539481  0.144258  4.164557
C    -0.756498  -0.693669  5.199806
O    0.504201  -0.461980  5.349662
H    -2.223612  -1.137830  2.612569
H    -0.975117  1.085389  4.095646
C    -3.000764  0.523579  4.539956
C    -4.152493  -0.265821  3.902404
S    -3.887132  -2.074371  3.991201
C    -5.545124  -2.728041  3.659243
H    -3.141280  1.575773  4.258423
H    -3.084547  0.494584  5.634608
H    -4.300838  0.024818  2.853047
H    -5.075827  -0.019237  4.441605
H    -6.238164  -2.410980  4.445590
H    -5.449844  -3.819349  3.669469
H    -5.889834  -2.400816  2.672749
N    -1.360815  -1.617825  5.904548
C    -0.727728  -2.487839  6.897255
H    -2.356399  -1.803408  5.683316
H    0.227594  -2.060912  7.210311
H    -0.566223  -3.485664  6.468566
H    -1.397666  -2.576415  7.759230
Pb    2.011296  0.543980  4.039116
