30
Energy: -616656.0871154  eV PBE+vdW (tier 2 basis)
C    0.378932  -0.874776  0.317114
C    0.205320  -0.483070  1.748157
O    1.116339  -0.754470  2.585625
H    -0.467313  -0.600112  -0.320947
H    0.523840  -1.963719  0.270616
H    1.296656  -0.417066  -0.075528
N    -0.941102  0.122748  2.101360
C    -1.476646  0.432057  3.441074
C    -0.813709  1.670926  4.053823
O    0.436639  1.738138  4.277232
H    -1.592590  0.283619  1.338065
H    -2.510757  0.714737  3.222122
C    -1.569128  -0.797998  4.411747
C    -0.880912  -0.739343  5.782248
S    0.796048  -1.485222  5.790532
C    1.300531  -1.254922  7.520930
H    -1.257357  -1.699058  3.867623
H    -2.637509  -0.943755  4.615512
H    -1.447997  -1.358838  6.489614
H    -0.829775  0.273529  6.202875
H    2.314436  -1.661850  7.610149
H    0.625801  -1.845749  8.151398
H    1.282066  -0.201350  7.818173
N    -1.573338  2.709556  4.376581
C    -3.020598  2.896569  4.200754
H    -1.055399  3.492813  4.777408
H    -3.590636  2.102688  4.697143
H    -3.288517  2.953242  3.138287
H    -3.291564  3.846928  4.668934
Pb    2.248842  0.322525  4.238883
