30
Energy: -616655.0338736  eV PBE+vdW (tier 2 basis)
C    -1.615665  1.674333  -0.458776
C    -1.821358  0.991750  0.853385
O    -1.252109  -0.124528  1.061259
H    -2.152100  2.624591  -0.547867
H    -1.935706  1.000149  -1.265154
H    -0.540465  1.850222  -0.602995
N    -2.599260  1.595890  1.765812
C    -2.984403  1.147768  3.118591
C    -1.765501  0.794048  3.986720
O    -1.314977  -0.398572  4.082425
H    -3.012033  2.476117  1.467395
H    -3.408263  2.051258  3.575401
C    -4.143627  0.112673  3.178124
C    -4.136587  -1.113655  2.259446
S    -5.670846  -2.031229  2.156194
C    -6.046834  -2.444101  3.877867
H    -5.062007  0.668446  2.938937
H    -4.242664  -0.193060  4.229507
H    -3.327085  -1.853777  2.571404
H    -3.927522  -0.840936  1.216093
H    -6.302105  -1.562139  4.474883
H    -5.226661  -3.010546  4.337683
H    -6.927476  -3.095341  3.823165
N    -1.204029  1.742667  4.717647
C    -1.565822  3.162104  4.825894
H    -0.427285  1.420226  5.297546
H    -2.549199  3.285467  5.297884
H    -1.547668  3.650842  3.845077
H    -0.820994  3.648749  5.461547
Pb    -0.967906  -1.900186  2.432620
