30
Energy: -616655.6721044  eV PBE+vdW (tier 2 basis)
C    0.517979  2.393011  1.037129
C    0.295611  1.098814  1.740990
O    1.121821  0.148491  1.597350
H    1.497287  2.793994  1.333154
H    -0.257765  3.136583  1.248184
H    0.565090  2.209988  -0.045072
N    -0.797817  0.967566  2.535543
C    -0.957485  -0.261883  3.286679
C    -1.636459  -1.379980  2.478843
O    -0.894945  -2.341398  2.075041
H    -1.427747  1.758507  2.638888
H    0.078704  -0.602194  3.320386
C    -1.276270  -0.222674  4.786430
C    -0.725695  -1.508764  5.430968
S    1.082483  -1.752777  5.101544
C    1.358897  -3.383745  5.854633
H    -2.347522  -0.150757  5.016060
H    -0.788480  0.661253  5.221236
H    -1.259961  -2.406843  5.091221
H    -0.813770  -1.451764  6.523376
H    2.415755  -3.627374  5.696761
H    0.715605  -4.150292  5.410186
H    1.172418  -3.298509  6.931341
N    -2.925144  -1.384855  2.192673
C    -3.950952  -0.395920  2.523032
H    -3.230588  -2.185216  1.634340
H    -4.762448  -0.879694  3.079892
H    -4.360661  0.030186  1.598926
H    -3.537790  0.409217  3.134724
Pb    1.412035  -2.154945  2.156565
