30
Energy: -616654.7997985  eV PBE+vdW (tier 2 basis)
C    -2.882690  0.356727  -1.072230
C    -1.798126  -0.016987  -0.130063
O    -0.650145  -0.374300  -0.583409
H    -3.864698  0.428748  -0.596583
H    -2.914656  -0.411712  -1.859479
H    -2.641313  1.300807  -1.583925
N    -1.979983  0.003806  1.204332
C    -2.600095  1.121133  1.917072
C    -1.624734  2.323055  1.798650
O    -0.404871  2.161824  1.392525
H    -1.259363  -0.486820  1.737580
H    -3.528936  1.400646  1.398907
C    -2.950116  0.678559  3.358416
C    -3.543842  1.751476  4.277504
S    -4.830166  2.726510  3.414294
C    -5.407107  3.808142  4.751123
H    -2.048328  0.271292  3.843526
H    -3.660693  -0.152451  3.248586
H    -2.766906  2.430641  4.656930
H    -3.998264  1.254926  5.144284
H    -6.157517  4.469194  4.303578
H    -4.587510  4.407147  5.162669
H    -5.879989  3.205970  5.534467
N    -2.079862  3.508430  2.108987
C    -1.305112  4.748994  2.057675
H    -3.080978  3.537349  2.456397
H    -0.402439  4.665397  2.674502
H    -1.933746  5.557992  2.438589
H    -1.015593  4.978681  1.024639
Pb    1.045847  0.920316  0.199800
