30
Energy: -616654.9451216  eV PBE+vdW (tier 2 basis)
C    -0.264766  1.745343  0.197384
C    -0.814004  1.041470  1.391052
O    -1.514678  1.691355  2.233808
H    0.353550  2.591395  0.526700
H    -1.101477  2.169462  -0.376171
H    0.325800  1.094697  -0.455872
N    -0.573619  -0.269029  1.542419
C    -1.163446  -1.126226  2.579321
C    -0.486739  -0.868680  3.945316
O    -1.070594  -0.066697  4.760735
H    -0.020469  -0.725422  0.819858
H    -2.196629  -0.776698  2.732685
C    -1.237983  -2.591304  2.119652
C    -2.355106  -2.833181  1.097735
S    -2.239618  -4.562749  0.542499
C    -3.676137  -4.678084  -0.545424
H    -1.409961  -3.225439  3.001561
H    -0.275987  -2.910337  1.691979
H    -2.259032  -2.167020  0.225241
H    -3.343205  -2.660037  1.550879
H    -3.676486  -5.705282  -0.927593
H    -3.590492  -3.982017  -1.388675
H    -4.605017  -4.502270  0.010617
N    0.648546  -1.423169  4.327948
C    1.545394  -2.354606  3.634142
H    0.932113  -1.152620  5.271789
H    2.535058  -2.261765  4.091165
H    1.635542  -2.100657  2.574128
H    1.202702  -3.390266  3.747546
Pb    -2.236671  1.833857  4.372559
