30
Energy: -616654.7857045  eV PBE+vdW (tier 2 basis)
C    -0.868566  1.030795  -1.693541
C    -0.681801  1.118176  -0.220964
O    0.424988  1.627872  0.232840
H    -1.764677  0.474631  -1.983282
H    0.020451  0.600513  -2.171078
H    -0.958918  2.059476  -2.078401
N    -1.592745  0.743295  0.654720
C    -2.729653  -0.159250  0.577660
C    -3.441563  0.111359  1.937689
O    -2.722004  0.482408  2.883948
H    -1.490838  0.986602  1.664593
H    -3.373488  0.087036  -0.275233
C    -2.285730  -1.665940  0.530909
C    -0.798453  -1.996176  0.400994
S    0.393958  -1.681033  1.783700
C    -0.505281  -2.041339  3.321078
H    -2.759275  -2.141406  -0.340641
H    -2.699970  -2.187786  1.403654
H    -0.317487  -1.526591  -0.467319
H    -0.699041  -3.081315  0.254154
H    0.234055  -1.987824  4.129655
H    -0.866445  -3.074726  3.254267
H    -1.322174  -1.331601  3.488568
N    -4.749733  -0.126930  2.001171
C    -5.551895  0.015733  3.218845
H    -5.236843  -0.382577  1.146565
H    -6.336558  0.764394  3.059218
H    -4.899159  0.341039  4.032468
H    -6.015836  -0.943596  3.476694
Pb    1.500829  0.905775  2.026308
