30
Energy: -616654.4533245  eV PBE+vdW (tier 2 basis)
C    -0.240805  0.481720  0.061517
C    -0.792826  0.817423  1.399734
O    -0.633255  1.993294  1.878664
H    -0.781638  1.027693  -0.725954
H    -0.241184  -0.590126  -0.155667
H    0.793703  0.855366  0.029950
N    -1.449630  -0.097694  2.144971
C    -2.503842  -0.961137  1.615988
C    -3.787997  -0.084455  1.523866
O    -3.765249  1.160341  1.820629
H    -1.590087  0.188740  3.115149
H    -2.231821  -1.230606  0.584395
C    -2.669320  -2.265048  2.425358
C    -3.065706  -2.075317  3.896445
S    -3.593598  -3.614492  4.710157
C    -2.027267  -4.475009  4.977183
H    -1.721389  -2.814453  2.347110
H    -3.417402  -2.899615  1.927155
H    -3.942668  -1.416206  3.991205
H    -2.249441  -1.635425  4.490366
H    -2.287055  -5.387875  5.526023
H    -1.349591  -3.871394  5.593765
H    -1.546163  -4.760307  4.034024
N    -4.899373  -0.663930  1.112258
C    -6.198401  -0.012459  0.921357
H    -4.852594  -1.657214  0.891827
H    -6.183036  0.975364  1.385561
H    -6.976201  -0.628208  1.386417
H    -6.411467  0.084322  -0.150769
Pb    -2.589799  3.057977  2.398418
