30
Energy: -616655.1459062  eV PBE+vdW (tier 2 basis)
C    0.465722  0.156524  0.088223
C    0.145013  0.035435  1.539989
O    1.030818  -0.447705  2.320993
H    -0.344469  0.594239  -0.503869
H    0.696812  -0.844965  -0.302708
H    1.375397  0.760387  -0.031947
N    -1.063650  0.427732  1.960771
C    -1.701727  0.286224  3.289112
C    -1.079924  1.246918  4.310290
O    0.050157  0.988016  4.863675
H    -1.672411  0.791492  1.231528
H    -2.735888  0.614506  3.126096
C    -1.792947  -1.169874  3.788978
C    -2.664352  -1.333753  5.038200
S    -4.328915  -0.662700  4.710024
C    -5.298380  -1.439735  6.026191
H    -0.794815  -1.602568  3.996803
H    -2.206027  -1.766081  2.962988
H    -2.214922  -0.848875  5.918955
H    -2.759709  -2.404486  5.262104
H    -6.323138  -1.073318  5.897657
H    -4.927782  -1.144910  7.014139
H    -5.290707  -2.530041  5.913366
N    -1.712736  2.349104  4.659920
C    -3.031286  2.829716  4.225794
H    -1.221084  2.914193  5.354847
H    -3.226547  3.773995  4.740617
H    -3.809268  2.102825  4.501297
H    -3.046311  3.019787  3.145937
Pb    1.671812  -0.498193  4.461947
