30
Energy: -616654.4532737  eV PBE+vdW (tier 2 basis)
C    -0.961631  -1.548622  0.998827
C    -0.277983  -0.648368  1.962975
O    0.948036  -0.846261  2.264070
H    -0.542632  -1.416523  -0.010247
H    -2.047108  -1.419154  0.975910
H    -0.725831  -2.583853  1.287634
N    -0.927890  0.386189  2.543020
C    -1.748121  1.348242  1.802154
C    -0.809177  2.048435  0.789987
O    0.458634  2.057854  0.967306
H    -0.430202  0.794775  3.337015
H    -2.536984  0.812304  1.253454
C    -2.399351  2.325514  2.816640
C    -3.458719  3.273182  2.240433
S    -4.194189  4.353308  3.506690
C    -5.344483  3.243338  4.348545
H    -1.612229  2.916511  3.310717
H    -2.857437  1.689182  3.587658
H    -4.263170  2.720115  1.730511
H    -3.022065  3.982363  1.523775
H    -5.856771  3.865507  5.091948
H    -4.830124  2.429287  4.873728
H    -6.086828  2.844979  3.645826
N    -1.351878  2.656934  -0.248363
C    -0.629040  3.414492  -1.275416
H    -2.362838  2.592821  -0.351643
H    -1.230475  4.284812  -1.557341
H    -0.467361  2.789279  -2.162914
H    0.332041  3.746722  -0.876565
Pb    2.288490  0.968375  1.853102
