30
Energy: -616654.7324450  eV PBE+vdW (tier 2 basis)
C    -1.110655  -1.495005  0.228030
C    -0.421188  -0.752376  1.312956
O    0.827019  -0.471699  1.203272
H    -1.191882  -0.870165  -0.674496
H    -2.098044  -1.865696  0.516192
H    -0.468943  -2.344187  -0.051540
N    -1.072420  -0.354781  2.423736
C    -2.372183  0.319298  2.399106
C    -2.163951  1.668642  1.664267
O    -0.980660  2.168669  1.502418
H    -0.462007  -0.062988  3.189746
H    -3.080657  -0.267901  1.797638
C    -2.918007  0.417545  3.841763
C    -4.247903  1.160735  4.034009
S    -5.568411  0.850141  2.815571
C    -5.893468  -0.924551  3.005960
H    -2.164095  0.898576  4.487213
H    -3.012810  -0.619725  4.193252
H    -4.107107  2.249984  4.000006
H    -4.632417  0.933652  5.037408
H    -6.725966  -1.149029  2.329511
H    -6.210029  -1.131208  4.034734
H    -5.037057  -1.553787  2.736488
N    -3.234274  2.264678  1.206571
C    -3.290299  3.540641  0.495598
H    -4.135498  1.764729  1.411586
H    -4.130360  4.123172  0.889930
H    -3.460423  3.363002  -0.574381
H    -2.358360  4.093032  0.636453
Pb    1.227489  1.764407  1.320869
