30
Energy: -616655.1087457  eV PBE+vdW (tier 2 basis)
C    -0.182247  -0.175351  0.014657
C    -0.271583  -0.132855  1.501675
O    0.802214  -0.210104  2.191017
H    0.323431  -1.101007  -0.292146
H    0.449267  0.658213  -0.324582
H    -1.157121  -0.111471  -0.479641
N    -1.467018  0.005380  2.080472
C    -1.710515  0.171264  3.519650
C    -1.359084  -1.129644  4.296740
O    -0.228458  -1.131664  4.966609
H    -2.267559  0.089654  1.457458
H    -0.980759  0.907342  3.892396
C    -3.110944  0.761456  3.748409
C    -3.330215  1.096208  5.220675
S    -3.044828  -0.410352  6.208284
C    -2.003839  0.169601  7.565666
H    -3.888700  0.071402  3.391339
H    -3.203956  1.680971  3.150775
H    -4.353172  1.452715  5.391760
H    -2.638079  1.876442  5.563659
H    -1.828294  -0.698630  8.210819
H    -2.538934  0.934779  8.139939
H    -1.047491  0.559458  7.198392
N    -1.837363  -2.325758  3.927981
C    -3.139701  -2.620744  3.332784
H    -1.402288  -3.100104  4.427765
H    -3.151287  -3.677615  3.050938
H    -3.307678  -2.032408  2.425152
H    -3.954599  -2.439477  4.048265
Pb    1.761617  -0.656775  4.170750
