30
Energy: -616655.3634038  eV PBE+vdW (tier 2 basis)
C    -1.388735  -0.710878  0.405702
C    -0.874147  -0.925671  1.787060
O    0.279333  -1.488366  1.931580
H    -0.641164  -0.137780  -0.161171
H    -2.344771  -0.178095  0.392888
H    -1.497803  -1.678764  -0.102704
N    -1.602325  -0.510479  2.813244
C    -1.185838  -0.417700  4.221612
C    -1.358210  -1.785703  4.911835
O    -0.544004  -2.738545  4.631494
H    -2.482257  0.037225  2.590368
H    -0.096799  -0.239239  4.244085
C    -1.858513  0.799019  4.897328
C    -3.373539  0.995695  4.699909
S    -3.716303  1.664764  3.025940
C    -5.518416  1.496845  2.933965
H    -1.341220  1.698278  4.531071
H    -1.624611  0.759624  5.971762
H    -3.741220  1.712313  5.445513
H    -3.957687  0.068306  4.820813
H    -5.807250  1.892884  1.953716
H    -5.987576  2.107442  3.713537
H    -5.834121  0.450691  3.012100
N    -2.313567  -1.971103  5.796390
C    -2.583269  -3.208894  6.532902
H    -2.924602  -1.178740  5.986783
H    -3.542012  -3.629661  6.204700
H    -2.639780  -2.980385  7.603349
H    -1.782415  -3.926817  6.347080
Pb    1.219820  -2.971266  3.257147
