30
Energy: -616654.7929333  eV PBE+vdW (tier 2 basis)
C    -0.159677  -0.971514  0.037650
C    -0.194612  -0.598132  1.480316
O    0.798138  0.027142  1.984304
H    -0.060718  -0.051540  -0.557038
H    -1.050547  -1.516614  -0.290961
H    0.735697  -1.574871  -0.163190
N    -1.278378  -0.906617  2.202127
C    -1.581071  -0.463391  3.570611
C    -0.874491  -1.389647  4.589952
O    0.372438  -1.150741  4.815765
H    -2.024772  -1.400323  1.715960
H    -1.048456  0.489630  3.711416
C    -3.080791  -0.142549  3.741628
C    -4.091506  -1.042261  3.010103
S    -5.646115  -0.990806  3.955282
C    -6.739019  -1.982084  2.911510
H    -3.226864  0.890767  3.400851
H    -3.292313  -0.118786  4.821362
H    -3.760447  -2.092159  2.936529
H    -4.277806  -0.674779  1.990256
H    -7.703761  -2.003877  3.431545
H    -6.368911  -3.008709  2.802791
H    -6.874872  -1.511174  1.930724
N    -1.415524  -2.387265  5.263204
C    -2.754642  -2.986677  5.262529
H    -0.739049  -2.843070  5.879656
H    -2.826102  -3.618122  6.152411
H    -2.890596  -3.620466  4.377080
H    -3.551126  -2.235528  5.309298
Pb    1.985083  0.112109  3.890763
