30
Energy: -616654.2944599  eV PBE+vdW (tier 2 basis)
C    0.236552  -0.707384  0.005015
C    0.155895  -0.090444  1.356613
O    1.214851  0.384407  1.894919
H    -0.626357  -0.459024  -0.620477
H    0.289281  -1.805244  0.098352
H    1.162830  -0.377673  -0.476961
N    -1.000196  -0.020094  2.056844
C    -1.966190  -1.114845  2.217578
C    -1.207460  -2.275511  2.908743
O    -0.066597  -2.086302  3.458925
H    -0.946689  0.613146  2.855834
H    -2.686190  -0.740996  2.964863
C    -2.786876  -1.470734  0.944183
C    -4.242646  -1.880771  1.239519
S    -5.263285  -1.956856  -0.258159
C    -4.864004  -3.590016  -0.922101
H    -2.277530  -2.239719  0.347733
H    -2.825774  -0.561290  0.330960
H    -4.726394  -1.121706  1.871908
H    -4.338201  -2.843039  1.769992
H    -3.809877  -3.674592  -1.213272
H    -5.481255  -3.699876  -1.821530
H    -5.138623  -4.378464  -0.209874
N    -1.770160  -3.467126  2.958919
C    -1.196367  -4.633118  3.642079
H    -2.683700  -3.574577  2.523538
H    -1.899172  -5.464665  3.548993
H    -1.036364  -4.410145  4.703376
H    -0.241919  -4.912794  3.181122
Pb    1.703125  -0.670602  3.865761
