30
Energy: -616655.2647011  eV PBE+vdW (tier 2 basis)
C    -0.646816  1.075855  0.181169
C    -0.451257  0.404655  1.497918
O    0.663810  0.571230  2.113177
H    -1.636049  0.902874  -0.254847
H    0.120526  0.700086  -0.512499
H    -0.474045  2.155180  0.285519
N    -1.429660  -0.361048  1.979751
C    -1.446034  -1.317407  3.106006
C    -1.481014  -0.652535  4.487418
O    -0.728771  0.345345  4.809179
H    -2.260497  -0.399746  1.392944
H    -2.416944  -1.818494  2.994346
C    -0.377461  -2.433483  2.990927
C    -0.600288  -3.582359  3.985253
S    -2.349553  -4.128317  3.971714
C    -2.286767  -5.520128  5.132580
H    0.638879  -2.033569  3.119784
H    -0.437650  -2.816643  1.962449
H    -0.316280  -3.291066  5.008123
H    0.036472  -4.427938  3.695305
H    -3.313266  -5.896489  5.205153
H    -1.943615  -5.201894  6.123069
H    -1.642915  -6.311013  4.732677
N    -2.305803  -1.186744  5.356732
C    -2.486144  -0.770966  6.745382
H    -2.762683  -2.075227  5.050229
H    -3.558848  -0.662740  6.943350
H    -1.980493  0.180617  6.921195
H    -2.081285  -1.539580  7.416628
Pb    1.222088  1.179930  4.165273
