30
Energy: -616654.8406953  eV PBE+vdW (tier 2 basis)
C    0.239331  -0.013525  0.362256
C    0.013985  -0.098633  1.834689
O    1.018788  -0.385451  2.611830
H    1.048738  0.694504  0.139727
H    -0.662691  0.279924  -0.183827
H    0.566718  -0.999647  0.001134
N    -1.193269  0.076130  2.313347
C    -1.703322  0.020682  3.683141
C    -3.162911  0.558286  3.497247
O    -3.423326  1.113965  2.421823
H    -1.968793  0.434134  1.705170
H    -1.722330  -1.028764  4.012775
C    -0.889693  0.834710  4.720192
C    -0.412766  2.214415  4.235617
S    1.288791  2.505787  4.851227
C    1.789921  4.057526  4.046139
H    -0.037134  0.213252  5.035495
H    -1.496553  0.950979  5.625620
H    -1.022571  3.031151  4.641611
H    -0.409540  2.310028  3.143655
H    2.828084  4.251600  4.340200
H    1.153485  4.852986  4.452332
H    1.693913  4.004605  2.957166
N    -4.050270  0.408152  4.488824
C    -3.928908  -0.322032  5.748134
H    -4.960700  0.814916  4.277125
H    -4.871543  -0.844082  5.945207
H    -3.727573  0.353378  6.591237
H    -3.141474  -1.081201  5.692970
Pb    2.729961  0.346152  3.740649
