30
Energy: -616655.1334439  eV PBE+vdW (tier 2 basis)
C    -0.081231  1.765672  1.646865
C    0.012229  0.471287  2.382316
O    0.780796  -0.442369  1.914178
H    0.910163  2.239377  1.619262
H    -0.801433  2.463100  2.086375
H    -0.360695  1.559780  0.604173
N    -0.707091  0.315339  3.494600
C    -0.989908  -0.902224  4.282114
C    0.203280  -1.377867  5.109169
O    1.263432  -1.868152  4.574942
H    -1.349325  1.080100  3.703396
H    -1.753851  -0.562935  4.990872
C    -1.640087  -2.049642  3.475967
C    -2.868706  -1.594961  2.678301
S    -3.943694  -0.525255  3.693408
C    -5.280948  -0.170587  2.525378
H    -1.924265  -2.826196  4.201352
H    -0.926373  -2.519703  2.782353
H    -3.430050  -2.481493  2.354400
H    -2.568341  -1.045275  1.773398
H    -4.904705  0.344239  1.634064
H    -5.976449  0.488300  3.057117
H    -5.800407  -1.095380  2.250525
N    0.132785  -1.341175  6.426394
C    -0.960613  -0.853150  7.281221
H    0.953616  -1.719284  6.903067
H    -1.159110  0.209508  7.098401
H    -1.872969  -1.443133  7.131087
H    -0.643574  -0.967972  8.321182
Pb    2.127583  -2.090456  2.527009
