30
Energy: -616655.3989376  eV PBE+vdW (tier 2 basis)
C    1.267311  0.282567  0.845471
C    0.707651  -0.305023  2.095592
O    1.500650  -0.482924  3.096772
H    1.995250  -0.416724  0.409622
H    1.818435  1.199067  1.095431
H    0.492224  0.501755  0.103848
N    -0.583501  -0.607371  2.133745
C    -1.357450  -1.006848  3.320418
C    -1.076059  -2.484382  3.671911
O    -0.063916  -2.782577  4.403333
H    -1.183062  -0.232343  1.342119
H    -0.980765  -0.428947  4.182011
C    -2.851235  -0.668354  3.135183
C    -3.121276  0.749476  2.607759
S    -2.959397  0.732049  0.779844
C    -2.871921  2.500116  0.392965
H    -3.338971  -0.800083  4.110673
H    -3.343149  -1.374326  2.444809
H    -2.427272  1.486028  3.039614
H    -4.140745  1.055335  2.871526
H    -2.776803  2.568770  -0.696596
H    -2.008390  2.976775  0.869988
H    -3.802686  2.990378  0.699155
N    -1.873782  -3.429216  3.226030
C    -1.722536  -4.868493  3.457621
H    -2.675283  -3.135140  2.670826
H    -1.389630  -5.358092  2.533421
H    -2.694029  -5.281362  3.750722
H    -0.992819  -5.037188  4.251960
Pb    1.864158  -1.741922  4.870226
