30
Energy: -616655.1735326  eV PBE+vdW (tier 2 basis)
C    0.282207  -0.394170  0.324396
C    0.200763  -0.344763  1.813075
O    1.244981  -0.624539  2.489401
H    -0.661556  -0.149148  -0.173468
H    0.599729  -1.402509  0.023125
H    1.064583  0.298148  -0.016081
N    -0.968739  -0.019163  2.378237
C    -1.359694  0.006351  3.801993
C    -0.678275  1.163534  4.543794
O    0.528734  1.063309  4.970069
H    -1.723211  0.169670  1.722411
H    -2.438707  0.212704  3.788016
C    -1.238960  -1.339237  4.538464
C    -2.006863  -1.352501  5.874626
S    -3.777121  -0.986696  5.709058
C    -4.463571  -2.587831  5.204271
H    -0.184054  -1.621626  4.749352
H    -1.615294  -2.122005  3.865127
H    -1.610421  -0.597516  6.569387
H    -1.878124  -2.327707  6.362110
H    -5.545661  -2.430190  5.126761
H    -4.269085  -3.341891  5.975342
H    -4.087004  -2.918086  4.230082
N    -1.337478  2.280157  4.784451
C    -2.716528  2.646819  4.429858
H    -0.790128  2.991631  5.273578
H    -3.012705  3.482344  5.070570
H    -3.405820  1.815285  4.612674
H    -2.773688  2.972938  3.383563
Pb    2.158407  -0.412670  4.517909
