30
Energy: -616655.1204683  eV PBE+vdW (tier 2 basis)
C    0.195268  0.074562  0.083306
C    -0.062905  0.117442  1.550698
O    0.859879  0.517689  2.336614
H    1.070336  -0.558333  -0.116597
H    0.455920  1.088718  -0.253313
H    -0.659061  -0.287597  -0.497965
N    -1.268768  -0.240635  2.007514
C    -1.768443  -0.095460  3.386086
C    -1.279489  -1.286426  4.234313
O    -0.079942  -1.292808  4.680348
H    -1.942557  -0.557585  1.312545
H    -1.276252  0.791927  3.816097
C    -3.288354  0.141800  3.376237
C    -3.684521  1.498722  2.764544
S    -5.475896  1.706259  2.550482
C    -6.019880  2.109737  4.227157
H    -3.648587  0.094994  4.413745
H    -3.800758  -0.660846  2.818452
H    -3.276888  1.612433  1.749830
H    -3.290258  2.329676  3.368484
H    -5.869142  1.278619  4.926771
H    -7.096001  2.303045  4.146358
H    -5.523807  3.018493  4.589697
N    -2.099081  -2.286535  4.485855
C    -1.777356  -3.492102  5.254707
H    -3.048074  -2.211509  4.123745
H    -2.526295  -3.622409  6.044277
H    -0.785196  -3.387630  5.697735
H    -1.799493  -4.366245  4.592045
Pb    1.755014  -0.009761  4.331312
