30
Energy: -616654.4412607  eV PBE+vdW (tier 2 basis)
C    -0.535510  1.402177  -1.322680
C    0.187858  1.221917  -0.038344
O    1.447021  1.435758  0.025553
H    -0.499177  2.454600  -1.640525
H    -1.569240  1.047335  -1.293301
H    0.015200  0.838441  -2.091822
N    -0.455534  0.829027  1.083522
C    -1.699948  1.441596  1.573629
C    -1.395354  2.948388  1.717991
O    -0.198606  3.329922  2.014984
H    0.167845  0.522281  1.833283
H    -2.498024  1.296353  0.833708
C    -2.069248  0.705038  2.886112
C    -3.384269  1.058172  3.581357
S    -3.249951  2.590938  4.559485
C    -4.839813  2.585164  5.424300
H    -1.239178  0.824160  3.602607
H    -2.103568  -0.360068  2.612380
H    -3.622947  0.239449  4.274566
H    -4.219731  1.125117  2.868531
H    -5.678862  2.616769  4.719344
H    -4.852444  3.488483  6.044248
H    -4.916045  1.703635  6.071820
N    -2.310005  3.868596  1.484526
C    -3.744553  3.714895  1.249620
H    -1.983980  4.826015  1.631011
H    -4.270692  3.755241  2.214979
H    -3.965760  2.765411  0.753413
H    -4.079676  4.535763  0.608114
Pb    2.015300  2.982284  1.625163
