30
Energy: -616655.3775019  eV PBE+vdW (tier 2 basis)
C    0.419650  -0.335141  0.158056
C    0.042565  0.220135  1.488494
O    0.958307  0.713256  2.238285
H    0.874987  0.471681  -0.435617
H    -0.428869  -0.750534  -0.395307
H    1.190887  -1.106513  0.284287
N    -1.240136  0.216182  1.854223
C    -1.862592  0.905768  3.006219
C    -1.744903  0.004920  4.248285
O    -0.568124  -0.215992  4.744443
H    -1.892252  -0.205408  1.194484
H    -1.243752  1.793343  3.220854
C    -3.255845  1.380343  2.549142
C    -4.076797  2.214463  3.552375
S    -5.254843  1.279177  4.589992
C    -6.567614  0.885757  3.401598
H    -3.847011  0.516504  2.204643
H    -3.073117  1.995932  1.655404
H    -4.650286  2.976041  3.009717
H    -3.433971  2.761044  4.256838
H    -6.208773  0.283903  2.559002
H    -7.033148  1.812049  3.046587
H    -7.310904  0.305737  3.960616
N    -2.799283  -0.536024  4.795548
C    -2.755509  -1.402154  5.976220
H    -3.759062  -0.160375  4.533094
H    -3.783740  -1.562720  6.311336
H    -2.174455  -0.935985  6.780763
H    -2.301120  -2.366664  5.719216
Pb    1.500174  0.504299  4.391365
