30
Energy: -616654.5106495  eV PBE+vdW (tier 2 basis)
C    0.028501  0.527652  0.282110
C    -0.206312  -0.012252  1.645017
O    0.777480  -0.423797  2.351874
H    -0.892906  0.718556  -0.274665
H    0.630032  -0.215671  -0.264540
H    0.647009  1.435880  0.328099
N    -1.450870  -0.088313  2.167329
C    -2.411031  1.016418  2.145149
C    -1.745627  2.182868  2.902092
O    -0.862268  1.930613  3.809065
H    -1.523037  -0.689236  2.991644
H    -2.633881  1.307905  1.106367
C    -3.725853  0.531819  2.813862
C    -4.972937  1.356383  2.502028
S    -5.274102  1.372222  0.704966
C    -6.722889  2.450954  0.600014
H    -3.587957  0.476687  3.905172
H    -3.884098  -0.496166  2.453441
H    -4.901492  2.385151  2.885906
H    -5.830386  0.886970  3.003980
H    -6.971294  2.520912  -0.464819
H    -6.507662  3.452784  0.990243
H    -7.567393  2.003247  1.136680
N    -2.062587  3.441482  2.672558
C    -2.935025  4.025567  1.648399
H    -1.573351  4.108713  3.273636
H    -3.509317  3.253960  1.120862
H    -2.320280  4.581238  0.928812
H    -3.626682  4.725291  2.131622
Pb    0.865536  0.571585  4.414131
