30
Energy: -616654.7311452  eV PBE+vdW (tier 2 basis)
C    -0.238775  0.277525  0.101003
C    -0.249307  0.095973  1.579952
O    0.734791  0.523920  2.269385
H    -0.176762  1.352717  -0.120844
H    -1.122528  -0.140674  -0.391929
H    0.666317  -0.184407  -0.316040
N    -1.302415  -0.498684  2.156522
C    -1.504511  -0.614511  3.603391
C    -0.555167  -1.674177  4.202016
O    0.502429  -1.263161  4.806483
H    -2.069713  -0.778757  1.549242
H    -1.133620  0.323884  4.041069
C    -3.010378  -0.724831  4.019383
C    -4.046052  -0.991903  2.913195
S    -5.755440  -0.951759  3.532781
C    -5.885280  -2.528721  4.408721
H    -3.277662  0.225480  4.496497
H    -3.098524  -1.483886  4.807127
H    -3.889780  -1.947133  2.388526
H    -4.039135  -0.186276  2.163376
H    -6.928332  -2.588447  4.741966
H    -5.242764  -2.569283  5.297026
H    -5.686588  -3.373017  3.736180
N    -0.768229  -2.976240  4.143756
C    -1.861558  -3.724275  3.519161
H    -0.052711  -3.531215  4.616939
H    -2.141855  -3.279266  2.560448
H    -2.736088  -3.776026  4.179777
H    -1.505697  -4.741478  3.330534
Pb    1.856062  0.450554  4.229385
