30
Energy: -616654.4050621  eV PBE+vdW (tier 2 basis)
C    -0.050689  -0.375946  0.204119
C    -0.168047  -0.275082  1.683877
O    0.894414  -0.165576  2.388032
H    -0.062329  -1.436176  -0.100023
H    0.921026  0.031297  -0.096279
H    -0.857219  0.141726  -0.324003
N    -1.359258  -0.295355  2.328208
C    -2.447750  -1.259009  2.092463
C    -1.870850  -2.667182  2.394428
O    -0.749844  -2.805344  2.997685
H    -1.283473  0.002767  3.301007
H    -3.177404  -1.052907  2.892575
C    -3.198355  -1.116200  0.748904
C    -3.731615  0.309790  0.527376
S    -4.348965  0.585974  -1.153585
C    -5.999785  -0.147486  -1.098329
H    -4.054419  -1.807420  0.763677
H    -2.566710  -1.424602  -0.093755
H    -2.928494  1.049676  0.652870
H    -4.515956  0.559890  1.257010
H    -5.966185  -1.233371  -0.948689
H    -6.444489  0.054985  -2.079634
H    -6.610493  0.333461  -0.324320
N    -2.568492  -3.734885  2.057909
C    -2.171621  -5.117009  2.354894
H    -3.448010  -3.592934  1.568571
H    -2.975070  -5.781348  2.027484
H    -2.013072  -5.241634  3.432113
H    -1.250132  -5.372563  1.818466
Pb    1.159544  -1.877214  3.879286
