30
Energy: -616654.5968171  eV PBE+vdW (tier 2 basis)
C    0.464591  -0.228134  0.508088
C    -0.263176  -0.053776  1.791060
O    0.027108  -0.840578  2.769870
H    0.427357  0.650570  -0.136972
H    0.089291  -1.110109  -0.033723
H    1.510249  -0.455956  0.762390
N    -1.167318  0.920013  2.027807
C    -2.378108  1.262870  1.258934
C    -3.465658  0.250476  1.703733
O    -3.160205  -0.855429  2.305365
H    -1.310613  1.059012  3.029747
H    -2.692271  2.252140  1.625720
C    -2.179946  1.386650  -0.270160
C    -3.419836  1.826245  -1.064144
S    -4.324417  3.182142  -0.233468
C    -5.631841  3.515676  -1.446324
H    -1.839338  0.435008  -0.698512
H    -1.380398  2.126655  -0.411982
H    -4.104464  0.981923  -1.229700
H    -3.087404  2.174584  -2.050468
H    -6.263483  4.293070  -1.002352
H    -6.233290  2.621647  -1.643763
H    -5.188420  3.898300  -2.371967
N    -4.712937  0.562719  1.465200
C    -5.870073  -0.267358  1.800349
H    -4.868483  1.503091  1.002193
H    -5.746670  -1.279751  1.399074
H    -6.758626  0.193667  1.361202
H    -5.999027  -0.323453  2.889000
Pb    -1.724044  -2.012671  3.591088
