30
Energy: -616656.1940883  eV PBE+vdW (tier 2 basis)
C    -1.254485  0.093274  -0.580257
C    -0.765070  -0.169524  0.805791
O    0.336959  -0.775655  0.976598
H    -2.217140  0.613798  -0.614506
H    -1.347646  -0.867551  -1.106372
H    -0.502415  0.679866  -1.124737
N    -1.534363  0.226124  1.834661
C    -1.367863  -0.076267  3.267803
C    -0.309693  0.834392  3.913132
O    0.916309  0.813903  3.584757
H    -2.393903  0.706155  1.581547
H    -2.328196  0.218679  3.708365
C    -1.208971  -1.611118  3.533875
C    -0.253745  -2.055037  4.646586
S    1.461835  -2.501293  4.172068
C    1.235288  -4.016601  3.193964
H    -0.946861  -2.111626  2.595806
H    -2.209989  -1.981495  3.790080
H    -0.636436  -2.962608  5.132516
H    -0.132531  -1.311865  5.446275
H    2.235790  -4.335120  2.877948
H    0.596495  -3.859873  2.318617
H    0.812717  -4.784340  3.852394
N    -0.734574  1.665511  4.854470
C    0.112788  2.612889  5.584002
H    -1.729995  1.684337  5.062172
H    -0.250788  2.689755  6.613528
H    0.066175  3.602033  5.110150
H    1.146198  2.257810  5.578431
Pb    2.210903  -0.555111  2.276694
