30
Energy: -616654.4412659  eV PBE+vdW (tier 2 basis)
C    -0.458738  0.024128  -0.430433
C    -0.090593  0.087057  1.009711
O    1.092324  0.446470  1.347905
H    -0.601949  -1.021233  -0.750439
H    0.352567  0.450707  -1.027338
H    -1.394264  0.564426  -0.621274
N    -0.961123  -0.228197  1.995602
C    -1.849329  -1.399217  2.014376
C    -0.938850  -2.639855  1.794546
O    0.315141  -2.580159  2.047769
H    -0.693529  0.126055  2.913117
H    -2.179897  -1.474963  3.063904
C    -3.125350  -1.306497  1.152610
C    -4.123978  -0.235737  1.606914
S    -3.481507  1.464435  1.460777
C    -4.942880  2.409621  1.950338
H    -3.662888  -2.264012  1.235124
H    -2.876193  -1.183620  0.091047
H    -4.441753  -0.413125  2.645663
H    -5.018500  -0.317845  0.973112
H    -4.650715  3.464553  1.904622
H    -5.246989  2.160848  2.973809
H    -5.766279  2.231490  1.248180
N    -1.469343  -3.776938  1.392510
C    -0.724898  -5.033007  1.234384
H    -2.466748  -3.793753  1.197239
H    -0.285651  -5.335177  2.192276
H    0.071569  -4.911156  0.491247
H    -1.421879  -5.803075  0.894990
Pb    2.111441  -1.218600  2.528597
