30
Energy: -616654.3493396  eV PBE+vdW (tier 2 basis)
C    0.357409  0.263012  0.208060
C    0.042367  0.039027  1.642717
O    0.978072  -0.217806  2.472023
H    0.962126  1.173806  0.085870
H    -0.528474  0.304762  -0.431463
H    0.999212  -0.568343  -0.121719
N    -1.229789  0.093329  2.100747
C    -2.165384  1.181254  1.794315
C    -1.504743  2.479619  2.311070
O    -0.676907  2.423028  3.291371
H    -1.347472  -0.292282  3.040002
H    -2.317538  1.237529  0.708435
C    -3.502089  0.854515  2.502845
C    -4.681680  1.784415  2.216817
S    -6.132638  1.107280  3.089962
C    -7.409750  2.291239  2.618221
H    -3.321932  0.820727  3.590219
H    -3.766334  -0.167018  2.189584
H    -4.501885  2.806244  2.582962
H    -4.905786  1.828706  1.140332
H    -7.561982  2.293373  1.531821
H    -8.328090  1.946798  3.107426
H    -7.168439  3.298736  2.979215
N    -1.770129  3.658285  1.775811
C    -2.626138  4.013727  0.641216
H    -1.288852  4.437814  2.229514
H    -3.510218  4.559179  0.992882
H    -2.948677  3.124788  0.094947
H    -2.057447  4.661411  -0.035912
Pb    1.026402  1.215453  4.274596
