30
Energy: -616654.9184562  eV PBE+vdW (tier 2 basis)
C    -0.433437  0.777138  -0.214999
C    -0.350162  0.566599  1.258174
O    0.750236  0.788424  1.860671
H    0.334953  0.171048  -0.713471
H    -0.197446  1.828872  -0.432806
H    -1.416531  0.536095  -0.632489
N    -1.444215  0.166349  1.923194
C    -1.556836  0.066958  3.383644
C    -0.831930  -1.197951  3.896616
O    0.367462  -1.062841  4.334708
H    -2.290747  0.022627  1.376777
H    -0.954689  0.890693  3.800454
C    -3.001545  0.284877  3.867321
C    -3.412205  1.768212  3.814953
S    -5.021165  2.103870  4.583150
C    -6.179686  1.581706  3.297143
H    -3.075193  -0.067445  4.905971
H    -3.705098  -0.322033  3.280865
H    -3.415597  2.157172  2.785291
H    -2.701163  2.376939  4.393001
H    -6.022804  2.152642  2.373429
H    -7.176985  1.814168  3.688692
H    -6.129317  0.503095  3.102600
N    -1.367112  -2.404027  3.914891
C    -2.690199  -2.868982  3.485478
H    -0.748060  -3.117497  4.305086
H    -2.614034  -3.940937  3.280354
H    -3.004323  -2.368362  2.565066
H    -3.436310  -2.714393  4.274392
Pb    2.029153  0.322560  3.667746
