21
Energy:  -40372.5287993  eV PBE+vdW (tier 2 basis)
N    -0.648110  0.718773  0.552615
C    0.167854  0.122120  1.577609
C    1.616517  0.542405  1.360885
O    2.017803  0.916348  0.205182
H    -1.644236  0.658493  0.753007
H    -0.465702  0.358729  -0.382933
H    -0.128658  0.576735  2.538186
C    0.088271  -1.447761  1.743755
C    -0.186979  -1.960991  3.157522
S    1.298162  -1.977700  4.239479
C    0.630956  -2.279931  5.896282
H    0.957418  -1.957979  1.302534
H    -0.774625  -1.771426  1.143959
H    -0.481602  -3.020067  3.140739
H    -0.968162  -1.386785  3.673886
H    -0.186268  -1.588731  6.123394
H    1.464636  -2.162099  6.598686
H    0.289584  -3.321774  5.905363
O    2.457959  0.532969  2.345345
H    1.522991  -0.635464  4.309358
Ca    3.899632  1.552193  1.009773
