21
Energy:  -40373.3308931  eV PBE+vdW (tier 2 basis)
N    1.194045  -0.437545  0.853584
C    0.138409  0.142945  1.735522
C    0.818738  1.117148  2.699056
O    2.031564  1.032223  2.954052
H    1.380394  0.225422  0.091181
H    0.809629  -1.260107  0.376952
H    -0.588256  0.717402  1.137980
C    -0.668995  -0.943964  2.515405
C    0.002470  -2.284898  2.834452
S    1.562077  -2.348244  3.797235
C    1.152798  -1.561272  5.385070
H    -1.555046  -1.189414  1.911270
H    -1.064261  -0.496364  3.438029
H    0.237159  -2.863660  1.929675
H    -0.714972  -2.901051  3.394396
H    0.312598  -2.107645  5.829038
H    0.922143  -0.496033  5.286377
H    2.031287  -1.693339  6.027685
O    0.122619  2.042781  3.308317
H    -0.809982  2.103684  3.017196
Ca    3.203585  -0.704069  2.303529
