21
Energy:  -40373.3259700  eV PBE+vdW (tier 2 basis)
N    1.067953  -0.353053  -0.046821
C    0.773625  0.189155  1.313415
C    2.029569  -0.005489  2.167928
O    2.881987  -0.857092  1.863480
H    0.184822  -0.449866  -0.559064
H    1.585043  0.360049  -0.575451
H    0.567725  1.270784  1.262071
C    -0.474338  -0.485115  1.968427
C    -0.817565  -1.928614  1.582631
S    0.460999  -3.181928  2.012142
C    -0.386109  -4.732552  1.574732
H    -1.351260  0.117181  1.690847
H    -0.391127  -0.402242  3.061282
H    -1.071020  -2.030106  0.518580
H    -1.712897  -2.217889  2.149835
H    -0.699929  -4.745889  0.525990
H    -1.249251  -4.846566  2.240222
H    0.323519  -5.543814  1.773604
O    2.217678  0.700900  3.250663
H    1.540642  1.390171  3.407443
Ca    2.499934  -2.369025  0.326046
