21
Energy:  -40372.7721744  eV PBE+vdW (tier 2 basis)
 N    0.55162    0.49477    0.25012
 C    0.46292    0.08398    1.71392
 C    1.83490   -0.42993    2.14161
 O    1.97466   -0.92805    3.30550
 H   -0.07978    1.27818    0.03485
 H    0.28616   -0.30049   -0.35307
 H    0.28695    1.00564    2.29036
 C   -0.69521   -0.90190    1.95508
 C   -0.59660   -2.20578    1.15292
 S   -1.77535   -3.47771    1.69449
 C   -3.31054   -2.93344    0.89727
 H   -1.64311   -0.38178    1.75345
 H   -0.69597   -1.12846    3.02976
 H    0.39181   -2.67379    1.29002
 H   -0.73547   -2.05229    0.06669
 H   -3.67042   -1.97513    1.28810
 H   -4.04895   -3.70432    1.14847
 H   -3.20111   -2.90261   -0.19365
 O    2.84352   -0.31257    1.35207
 H    1.52277    0.75752    0.01081
Ca    4.11748   -1.18367    2.97215
