21
Energy:  -40370.5966404  eV PBE+vdW (tier 2 basis)
N    -2.311200  -0.028959  1.321980
C    -0.978847  -0.298761  1.779740
C    -0.015681  -0.999143  0.793638
O    1.188499  -1.051294  0.989482
H    -2.837903  -0.845887  1.017218
H    -2.379705  0.710870  0.627311
H    -0.496317  0.668796  1.996651
C    -1.062108  -1.113952  3.100418
C    0.234104  -1.406900  3.848761
S    1.099392  0.150649  4.417318
C    2.640500  0.246873  3.431241
H    -1.514943  -2.097755  2.889340
H    -1.775109  -0.585293  3.747652
H    0.981141  -1.937637  3.245972
H    0.021283  -2.000508  4.749066
H    2.336441  0.075220  2.387440
H    3.371545  -0.512254  3.730108
H    3.035686  1.262223  3.551655
O    -0.637717  -1.542569  -0.251602
H    0.025794  -1.968166  -0.834673
Ca    1.969627  -0.102535  6.897458
