21
Energy:  -40372.8013289  eV PBE+vdW (tier 2 basis)
N    0.295615  1.002225  0.779231
C    0.133421  -0.112435  1.783410
C    1.516820  -0.799454  1.959590
O    2.523445  0.018773  1.846211
H    0.224917  0.609906  -0.167751
H    -0.515800  1.626028  0.851895
H    -0.034982  0.391388  2.750115
C    -1.095637  -1.019351  1.555275
C    -0.983190  -2.171355  0.536835
S    -0.582126  -3.718336  1.444612
C    0.142053  -4.818200  0.203596
H    -1.935150  -0.375450  1.255354
H    -1.403219  -1.420082  2.533421
H    -0.211360  -2.016799  -0.229581
H    -1.938994  -2.350836  0.032662
H    -0.653486  -5.110147  -0.490604
H    0.488523  -5.702964  0.751396
H    0.975146  -4.334245  -0.314910
O    1.646961  -1.994046  2.231967
H    0.586072  -3.082122  1.984926
Ca    2.556327  1.939269  1.148477
