21
Energy:  -40373.4041352  eV PBE+vdW (tier 2 basis)
N    1.006682  -0.561142  -0.234253
C    0.595859  -0.041001  1.108617
C    1.829574  -0.074119  2.010777
O    2.742693  -0.888237  1.791402
H    0.156521  -0.802089  -0.754348
H    1.417108  0.214047  -0.769779
H    0.231638  0.994592  1.017056
C    -0.549738  -0.881094  1.739989
C    -0.214229  -2.220253  2.403772
S    0.476227  -3.593058  1.398534
C    -0.867152  -4.021844  0.249924
H    -1.328670  -1.004314  0.972382
H    -1.022800  -0.261989  2.518101
H    -1.126585  -2.628793  2.859731
H    0.509948  -2.110459  3.224152
H    -1.123437  -3.206711  -0.434423
H    -1.740694  -4.315235  0.843580
H    -0.523601  -4.893913  -0.318739
O    1.919648  0.695642  3.063074
H    1.195243  1.348225  3.148694
Ca    2.626765  -2.376257  0.169757
