21
Energy:  -40372.7052826  eV PBE+vdW (tier 2 basis)
 N    0.12661   -0.29904    0.02212
 C    0.05233   -0.16918    1.54249
 C    1.43691   -0.47489    2.09278
 O    2.41914   -0.66980    1.28061
 H   -0.51205    0.35956   -0.44472
 H   -0.13758   -1.24923   -0.27726
 H   -0.15851    0.89296    1.75136
 C   -1.10191   -1.03752    2.10000
 C   -1.61732   -0.59312    3.47953
 S   -3.19604   -1.38693    3.89108
 C   -2.65499   -2.99231    4.53646
 H   -0.79566   -2.09475    2.11654
 H   -1.94359   -0.95755    1.39265
 H   -1.83465    0.48556    3.46902
 H   -0.88120   -0.77426    4.27265
 H   -2.00815   -2.86578    5.41289
 H   -2.16781   -3.61126    3.77362
 H   -3.57336   -3.50125    4.85232
 O    1.62718   -0.51012    3.35267
 H    1.09535   -0.13204   -0.30155
Ca    3.76475   -0.86360    3.04832
