21
Energy:  -40373.4046288  eV PBE+vdW (tier 2 basis)
N    0.991894  -0.446577  -0.209171
C    0.570913  -0.006811  1.159054
C    1.801079  -0.080083  2.063643
O    2.722360  -0.872573  1.803012
H    0.146080  -0.665873  -0.745689
H    1.396815  0.361395  -0.698427
H    0.197866  1.029116  1.124431
C    -0.569746  -0.890950  1.736906
C    -0.225186  -2.263075  2.324447
S    0.480589  -3.570205  1.245033
C    -0.854775  -3.942715  0.067734
H    -1.345034  -0.976443  0.960543
H    -1.050554  -0.321273  2.547357
H    -1.135652  -2.704623  2.752567
H    0.495104  -2.194348  3.152669
H    -0.502462  -4.778613  -0.547940
H    -1.114290  -3.091918  -0.570424
H    -1.728582  -4.275569  0.639800
O    1.879783  0.629667  3.158180
H    1.149211  1.270043  3.277159
Ca    2.626813  -2.267123  0.099186
