21
Energy:  -40372.7669220  eV PBE+vdW (tier 2 basis)
N    0.159711  -0.631446  0.135696
C    -0.176668  0.117128  1.419147
C    1.124003  0.647578  2.010027
O    1.096420  1.271789  3.121124
H    0.272936  -1.638480  0.330832
H    -0.583166  -0.530735  -0.569099
H    -0.766084  0.998868  1.124085
C    -1.020303  -0.762561  2.361538
C    -0.299759  -2.004222  2.900244
S    -1.400083  -3.157651  3.767385
C    -1.780428  -2.247268  5.288091
H    -1.941039  -1.054278  1.832891
H    -1.339106  -0.115787  3.189652
H    0.542696  -1.719596  3.552909
H    0.121124  -2.632900  2.095544
H    -2.386343  -2.938910  5.885743
H    -2.374483  -1.344794  5.104752
H    -0.867918  -2.013535  5.849887
O    2.227953  0.511284  1.361778
H    1.055158  -0.289129  -0.252181
Ca    3.238516  1.682617  2.969125
