21
Energy:  -40370.6236026  eV PBE+vdW (tier 2 basis)
N    -0.982100  -1.549742  0.246372
C    -0.513424  -0.683920  1.324069
C    0.869219  -0.105573  0.995282
O    1.823464  -0.131095  1.752360
H    -0.762705  -1.160987  -0.670892
H    -1.992720  -1.684181  0.288211
H    -1.159258  0.204599  1.485758
C    -0.473045  -1.446522  2.659303
C    0.347352  -2.739721  2.530297
S    1.169867  -3.141512  4.138307
C    2.595893  -2.000543  4.232110
H    -1.495032  -1.688575  2.978234
H    -0.052336  -0.779475  3.422791
H    1.144582  -2.667305  1.781828
H    -0.281032  -3.607506  2.288939
H    2.821823  -1.841985  5.291573
H    3.458944  -2.386758  3.681482
H    2.263765  -1.064040  3.759254
O    0.884339  0.448384  -0.222875
H    1.766135  0.842622  -0.384356
Ca    1.888837  -5.643072  4.329724
