21
Energy:  -40372.5264951  eV PBE+vdW (tier 2 basis)
N    0.057615  0.636874  0.104295
C    -0.701013  0.730949  1.399503
C    0.232225  1.287724  2.468744
O    1.467785  1.334724  2.267381
H    -0.325490  1.339699  -0.539555
H    -0.243964  -0.289307  -0.341414
H    -1.546163  1.429280  1.280776
C    -1.259715  -0.642910  1.857386
C    -2.263570  -1.267102  0.875479
S    -1.551975  -1.899737  -0.687769
C    -0.893919  -3.510703  -0.167054
H    -1.765523  -0.501775  2.825616
H    -0.427248  -1.337560  2.052066
H    -3.034355  -0.541110  0.579712
H    -2.787369  -2.095963  1.369329
H    -0.149629  -3.429354  0.633236
H    -0.425335  -3.948592  -1.055859
H    -1.722230  -4.155540  0.147623
O    -0.204247  1.696552  3.625516
H    -1.177741  1.660537  3.725581
Ca    2.412444  0.921209  0.393670
