21
Energy:  -40372.0996096  eV PBE+vdW (tier 2 basis)
N    0.709157  0.215773  0.180025
C    0.254859  0.136300  1.618996
C    1.467298  0.395564  2.500632
O    2.531312  0.852503  2.007873
H    -0.075903  0.573975  -0.376044
H    0.819199  -0.750258  -0.157379
H    -0.422870  0.993248  1.789512
C    -0.528557  -1.165956  1.935514
C    -1.346691  -1.147754  3.244650
S    -2.638588  -2.422205  3.287849
C    -1.694279  -3.913901  3.697378
H    0.157763  -2.026886  1.917912
H    -1.246386  -1.308812  1.114157
H    -1.892016  -0.197365  3.350077
H    -0.729631  -1.290472  4.153936
H    -1.178392  -3.803262  4.658956
H    -0.995722  -4.202623  2.903818
H    -2.446374  -4.705821  3.797426
O    1.429553  0.193235  3.781471
H    0.566399  -0.186474  4.079703
Ca    2.860577  1.377424  -0.016256
