21
Energy:  -40372.1892383  eV PBE+vdW (tier 2 basis)
N    0.323011  0.270701  0.461006
C    0.062929  -0.145552  1.883430
C    1.389826  -0.491669  2.514259
O    2.351269  -0.868687  1.789400
H    0.425725  1.292809  0.431102
H    -0.536743  0.094825  -0.073302
H    -0.431769  0.667001  2.440055
C    -0.847074  -1.410490  1.917995
C    -2.310021  -1.132640  1.512370
S    -3.247652  -2.661449  1.280002
C    -3.628115  -3.144789  2.984473
H    -0.826855  -1.831587  2.932843
H    -0.415075  -2.183480  1.259635
H    -2.380941  -0.622294  0.538683
H    -2.801002  -0.482257  2.251078
H    -2.733175  -3.425527  3.551972
H    -4.267938  -4.030777  2.893729
H    -4.190710  -2.355627  3.496695
O    1.574074  -0.498301  3.806753
H    0.811452  -0.165208  4.321940
Ca    2.383397  -0.819462  -0.321242
