21
Energy:  -40372.5667488  eV PBE+vdW (tier 2 basis)
N    0.705969  -0.503217  0.232854
C    0.316309  -0.463753  1.628685
C    1.135196  -1.521204  2.355625
O    0.719044  -2.694942  2.597009
H    0.570837  -1.391071  -0.246325
H    1.617198  -0.101623  0.021858
H    0.615777  0.513992  2.034414
C    -1.199011  -0.646177  1.768617
C    -1.731933  -0.586552  3.213815
S    -2.650029  -2.127099  3.615660
C    -3.189452  -1.888189  5.337320
H    -1.502646  -1.583048  1.267674
H    -1.662928  0.143973  1.165927
H    -2.458028  0.225316  3.340592
H    -0.939362  -0.444409  3.961011
H    -3.872341  -1.030874  5.352590
H    -2.342160  -1.720906  6.009741
H    -3.746197  -2.786418  5.628351
O    2.360939  -1.162452  2.636349
H    2.907201  -1.906715  2.969042
Ca    -0.773868  -4.062038  3.212781
