21
Energy:  -40373.2502108  eV PBE+vdW (tier 2 basis)
N    -0.593666  -1.513555  0.479141
C    0.162567  -0.751548  1.532225
C    1.584520  -1.264801  1.692018
O    2.025093  -2.213235  0.949050
H    -0.792733  -2.483776  0.751297
H    -0.105091  -1.534481  -0.424380
H    0.238671  0.276464  1.141163
C    -0.623607  -0.712577  2.866876
C    -2.153237  -0.582892  2.716236
S    -2.623742  0.507889  1.316830
C    -4.400890  0.166059  1.182385
H    -0.218867  0.131189  3.438755
H    -0.413724  -1.619586  3.452416
H    -2.570034  -0.180425  3.647381
H    -2.617235  -1.566683  2.553067
H    -4.906852  0.515473  2.088659
H    -4.595470  -0.897786  1.009764
H    -4.754228  0.750797  0.325662
O    2.338919  -0.721802  2.568350
H    -1.527411  -0.933583  0.394788
Ca    3.993017  -2.006142  1.957316
