21
Energy:  -40373.7104372  eV PBE+vdW (tier 2 basis)
N    -0.610456  0.869099  0.122187
C    -0.054730  0.470857  1.482184
C    1.324739  -0.131171  1.238425
O    1.560278  -0.629522  0.082681
H    -0.363405  1.839556  -0.119171
H    -1.634926  0.786442  0.068945
H    0.008285  1.374889  2.098509
C    -0.935125  -0.583644  2.192107
C    -0.938386  -2.012106  1.621643
S    0.436346  -3.082754  2.237974
C    -0.049657  -4.693053  1.547781
H    -1.972243  -0.212783  2.205786
H    -0.622027  -0.594486  3.245617
H    -0.945686  -2.044247  0.522864
H    -1.846810  -2.519001  1.971824
H    0.705667  -5.416540  1.876532
H    -0.103439  -4.671363  0.454360
H    -1.015734  -4.980012  1.978479
O    2.097931  -0.286690  2.225299
H    -0.165018  0.250055  -0.584713
Ca    2.893397  -2.093528  1.214684
