21
Energy:  -40371.8713249  eV PBE+vdW (tier 2 basis)
N    0.674292  1.076867  1.059160
C    0.100610  0.041548  1.874546
C    1.028082  -1.184015  2.133855
O    0.741453  -2.349416  1.742790
H    1.218949  0.755261  0.260243
H    1.214663  1.762123  1.583416
H    -0.151385  0.467868  2.857841
C    -1.140365  -0.600247  1.235993
C    -2.418992  0.054720  0.746182
S    -3.190709  -1.365785  -0.167998
C    -4.935900  -1.398186  0.338268
H    -1.478888  -1.354592  1.977489
H    -0.717504  -1.079756  0.320520
H    -2.248149  0.882674  0.049734
H    -3.081862  0.377964  1.556784
H    -5.412001  -0.481385  -0.025880
H    -5.039875  -1.497748  1.422899
H    -5.384648  -2.259422  -0.170532
O    2.150565  -0.900713  2.728947
H    2.728401  -1.689387  2.831678
Ca    -1.103202  -3.232483  0.780686
