21
Energy:  -40373.5363445  eV PBE+vdW (tier 2 basis)
N    -0.295963  -0.218505  0.147151
C    0.048121  -0.156832  1.601110
C    0.808468  -1.430811  1.951836
O    0.750995  -2.459739  1.249509
H    -1.005893  0.494945  -0.049318
H    0.521391  0.092059  -0.392228
H    0.729173  0.681114  1.813183
C    -1.204819  0.039337  2.508930
C    -2.546349  -0.537767  2.044493
S    -2.574868  -2.365670  1.817184
C    -4.331768  -2.664982  1.445592
H    -1.361600  1.122757  2.611949
H    -0.960708  -0.319686  3.517499
H    -2.913924  -0.064349  1.123731
H    -3.288708  -0.328614  2.826803
H    -4.667904  -2.094173  0.573988
H    -4.915124  -2.396598  2.333595
H    -4.436569  -3.740802  1.264686
O    1.508817  -1.340380  3.048186
H    1.969184  -2.182814  3.260861
Ca    -0.817997  -2.596193  -0.306855
