21
Energy:  -40373.3971552  eV PBE+vdW (tier 2 basis)
N    -0.897898  0.187271  0.423548
C    -1.473992  -0.370698  1.702070
C    -0.482584  -0.127734  2.838799
O    -0.685685  -0.670578  3.975286
H    -0.225590  0.942709  0.620070
H    -0.372334  -0.655047  -0.074780
H    -2.360708  0.228157  1.967065
C    -1.904594  -1.838605  1.522830
C    -0.781945  -2.836531  1.219334
S    0.190494  -2.525760  -0.309376
C    -0.929644  -3.130659  -1.607014
H    -2.677094  -1.870767  0.740234
H    -2.411580  -2.141099  2.450286
H    -1.195459  -3.851361  1.156266
H    -0.035492  -2.858538  2.026349
H    -0.413690  -2.951327  -2.557212
H    -1.892203  -2.607851  -1.612725
H    -1.077616  -4.208609  -1.479315
O    0.513228  0.664749  2.665019
H    -1.630317  0.543009  -0.201108
Ca    1.016702  0.418269  4.812373
