21
Energy:  -40373.3308200  eV PBE+vdW (tier 2 basis)
N    1.099533  -0.471382  0.850301
C    0.073299  0.098998  1.772600
C    0.786153  1.056605  2.729258
O    2.005846  0.964037  2.945911
H    1.265142  0.202549  0.092744
H    0.697808  -1.285324  0.373155
H    -0.669263  0.684526  1.206165
C    -0.713656  -0.997097  2.560410
C    -0.037081  -2.344354  2.839452
S    1.550186  -2.425682  3.754483
C    1.191071  -1.658356  5.363893
H    -1.618333  -1.231117  1.979796
H    -1.079512  -0.562094  3.501022
H    0.168973  -2.910206  1.919654
H    -0.739427  -2.966931  3.411295
H    2.087452  -1.802579  5.978577
H    0.361822  -2.207169  5.825094
H    0.962434  -0.590955  5.286190
O    0.112220  1.975249  3.373072
H    -0.828545  2.043508  3.111351
Ca    3.151313  -0.766076  2.234188
