21
Energy:  -40373.0639450  eV PBE+vdW (tier 2 basis)
N    0.372362  -1.367923  0.788352
C    -0.667056  -0.365949  0.971973
C    -0.316736  0.794179  1.915223
O    0.811297  0.823360  2.525885
H    1.157678  -1.007146  0.245544
H    0.757414  -1.678868  1.682697
H    -0.860602  0.114718  -0.002345
C    -1.972197  -1.049751  1.426495
C    -2.485647  -2.094605  0.439866
S    -1.370301  -3.565022  0.288470
C    -0.749039  -3.574771  -1.413861
H    -2.766735  -0.298086  1.535981
H    -1.832651  -1.506676  2.418522
H    -2.631454  -1.695293  -0.572169
H    -3.439674  -2.509858  0.787527
H    -0.309244  -4.567667  -1.569842
H    0.024406  -2.805224  -1.465954
H    -1.562440  -3.393951  -2.122961
O    -1.157459  1.753026  2.081193
H    -2.360945  -4.480544  0.071271
Ca    0.265728  2.762194  3.370670
