21
Energy:  -40372.6997596  eV PBE+vdW (tier 2 basis)
 N   -0.21554    0.00971    0.07664
 C    0.12655   -0.04146    1.56321
 C    1.64884    0.02632    1.68713
 O    2.36585    0.15284    0.62856
 H   -1.15269    0.40767   -0.07664
 H   -0.21162   -0.93687   -0.33222
 H   -0.28619    0.87695    2.00920
 C   -0.51489   -1.28760    2.20452
 C   -0.71140   -1.18511    3.71996
 S   -1.30022   -2.81552    4.28416
 C   -1.73656   -2.43558    5.99993
 H    0.08945   -2.17632    1.95726
 H   -1.50398   -1.43881    1.74165
 H   -1.46345   -0.41509    3.95065
 H    0.22373   -0.92235    4.23261
 H   -2.09942   -3.37850    6.42491
 H   -2.54061   -1.69220    6.04872
 H   -0.86154   -2.10298    6.57017
 O    2.18992   -0.03622    2.83608
 H    0.48390    0.56599   -0.44197
Ca    4.18594    0.14301    1.94010
