21
Energy:  -40373.2772588  eV PBE+vdW (tier 2 basis)
N    -1.308569  0.138584  0.461936
C    -1.542465  -0.351163  1.868951
C    -0.212080  -0.252048  2.620667
O    -0.055234  -0.898726  3.707363
H    -0.756133  1.007171  0.454998
H    -0.723228  -0.641851  -0.002876
H    -2.206592  0.371538  2.370007
C    -2.198746  -1.749911  1.896596
C    -1.813945  -2.703343  0.753166
S    -0.026619  -2.606916  0.355368
C    0.056638  -3.556303  -1.190143
H    -3.289989  -1.628345  1.886774
H    -1.947858  -2.189260  2.870204
H    -2.376384  -2.471720  -0.163433
H    -2.071781  -3.730848  1.036735
H    1.097319  -3.502779  -1.528174
H    -0.601088  -3.128593  -1.954192
H    -0.205257  -4.600454  -0.988822
O    0.706467  0.534902  2.188231
H    -2.187170  0.290117  -0.048120
Ca    1.937715  -0.035050  3.935766
