21
Energy:  -40372.1051023  eV PBE+vdW (tier 2 basis)
N    0.326673  0.102302  0.064106
C    -0.156150  0.037080  1.492335
C    1.040997  0.208451  2.411055
O    2.189908  0.430778  1.946953
H    -0.349605  0.659180  -0.469912
H    0.226708  -0.842681  -0.330459
H    -0.799770  0.915216  1.669074
C    -1.001740  -1.231857  1.790784
C    -0.225450  -2.549675  1.688148
S    -1.276533  -4.014079  1.885221
C    -1.599994  -4.015896  3.668137
H    -1.861494  -1.232738  1.104140
H    -1.445204  -1.129158  2.794216
H    0.608639  -2.583910  2.410392
H    0.211616  -2.689539  0.685234
H    -2.214235  -3.166149  3.988496
H    -0.665422  -4.071757  4.239320
H    -2.172119  -4.933805  3.849975
O    0.916192  0.180086  3.709218
H    0.003808  -0.001536  4.014466
Ca    2.678236  0.792274  -0.074424
