21
Energy:  -40371.6745449  eV PBE+vdW (tier 2 basis)
N    0.162677  0.564680  0.108596
C    -0.155400  -0.014948  1.371062
C    1.057663  -0.266889  2.275009
O    2.131192  -0.694022  2.052683
H    0.778957  1.374559  0.139138
H    0.502719  -0.101065  -0.584183
H    -0.814439  0.706916  1.922222
C    -0.949320  -1.323252  1.166039
C    -1.495493  -2.032042  2.401073
S    -2.664965  -1.102861  3.477880
C    -4.035782  -0.623546  2.379036
H    -0.296014  -2.046478  0.651221
H    -1.755008  -1.083058  0.458772
H    -0.710773  -2.367913  3.094545
H    -2.047186  -2.933665  2.101982
H    -4.457504  -1.545851  1.962258
H    -3.714610  0.054528  1.582841
H    -4.793000  -0.145424  3.011171
O    0.748186  0.168711  3.706926
H    1.584096  -0.013095  4.189275
Ca    -1.199354  0.931239  4.487153
