21
Energy:  -40372.2831214  eV PBE+vdW (tier 2 basis)
N    0.361967  -0.947067  0.079291
C    -0.230416  -0.126400  1.096143
C    0.852342  0.537299  1.909639
O    1.892610  0.014969  2.319972
H    0.642071  -0.430002  -0.752723
H    -0.237015  -1.721057  -0.202697
H    -0.925382  0.666249  0.740385
C    -1.009077  -1.035274  2.107181
C    -1.531846  -0.418630  3.405989
S    -0.413444  -0.284314  4.874811
C    -0.074044  -2.021113  5.304979
H    -0.379983  -1.914687  2.303367
H    -1.887431  -1.393673  1.548216
H    -2.364379  -1.024394  3.789061
H    -1.937365  0.595299  3.278231
H    0.508150  -2.010822  6.234398
H    0.474600  -2.545881  4.516563
H    -1.033551  -2.511873  5.506031
O    0.628865  1.790155  2.416259
H    -0.178064  2.220237  2.063015
Ca    2.006482  0.949308  4.323654
