21
Energy:  -40372.1172452  eV PBE+vdW (tier 2 basis)
N    0.455199  -0.038984  0.149453
C    0.115910  -0.055729  1.617647
C    1.396098  -0.246775  2.396450
O    2.425434  -0.708352  1.830994
H    0.445040  0.936981  -0.171607
H    -0.335124  -0.463612  -0.351114
H    -0.355151  0.899982  1.902039
C    -0.877358  -1.206783  1.965307
C    -2.285186  -0.998665  1.367569
S    -3.475550  -2.201162  2.009325
C    -3.216006  -3.624594  0.919592
H    -0.973428  -1.263747  3.058225
H    -0.448061  -2.170836  1.646412
H    -2.293414  -1.039923  0.266292
H    -2.673924  -0.012458  1.661331
H    -3.406796  -3.359490  -0.127478
H    -3.962150  -4.365166  1.231834
H    -2.222373  -4.071777  1.043008
O    1.476091  -0.007720  3.676474
H    0.662414  0.369917  4.068639
Ca    2.682581  -1.020917  -0.233770
