21
Energy:  -40372.5351426  eV PBE+vdW (tier 2 basis)
N    0.665374  -0.247671  0.020742
C    0.163603  -0.005799  1.373296
C    1.474111  -0.008168  2.168950
O    2.194577  1.050958  2.155684
H    0.462016  0.504834  -0.631721
H    0.375439  -1.139950  -0.372353
H    -0.241189  1.013957  1.448801
C    -0.911544  -1.020741  1.786973
C    -1.442953  -0.895724  3.219968
S    -0.649178  -1.979287  4.474339
C    -1.212332  -3.646859  4.051159
H    -0.556561  -2.043351  1.585639
H    -1.761666  -0.863838  1.107268
H    -2.507049  -1.157546  3.295683
H    -1.337143  0.115988  3.636999
H    -2.263717  -3.703606  4.355982
H    -0.618778  -4.340451  4.658578
H    -1.092938  -3.854846  2.983896
O    1.959733  -1.084303  2.711503
H    0.593647  -1.994446  3.884801
Ca    3.949772  -0.094898  2.558162
