21
Energy:  -40370.7946334  eV PBE+vdW (tier 2 basis)
N    0.580840  -0.217566  0.104020
C    -0.156886  -0.142241  1.369345
C    0.834293  -0.102738  2.532812
O    1.899423  -0.706396  2.547081
H    1.284929  0.520857  0.045792
H    -0.058523  -0.065426  -0.678117
H    -0.799878  0.748760  1.459728
C    -1.074663  -1.378424  1.500523
C    -0.400066  -2.746069  1.634625
S    0.584974  -3.250223  0.136814
C    2.316234  -2.790573  0.480317
H    -1.765067  -1.387404  0.644437
H    -1.706280  -1.268844  2.396833
H    -1.165743  -3.529002  1.711642
H    0.268627  -2.817704  2.502281
H    2.831791  -2.595537  -0.468569
H    2.892354  -3.516792  1.110005
H    2.296556  -1.862987  1.099268
O    0.376885  0.631570  3.545096
H    1.028592  0.618968  4.277515
Ca    1.855155  -5.502930  0.308610
