21
Energy:  -40373.4269375  eV PBE+vdW (tier 2 basis)
N    0.044695  -0.434125  -0.068973
C    -0.022744  -0.116081  1.400288
C    1.374250  0.078911  1.978263
O    1.495857  0.520426  3.170645
H    0.190028  0.398393  -0.652249
H    -0.945377  -0.905091  -0.323695
H    -0.557227  0.840549  1.504818
C    -0.808632  -1.217622  2.145812
C    -2.300566  -1.273419  1.783892
S    -2.697599  -1.632713  0.028196
C    -2.434930  -3.428366  -0.067720
H    -0.721899  -1.006605  3.221299
H    -0.325509  -2.193116  1.977042
H    -2.788958  -0.310779  1.991496
H    -2.804157  -2.025047  2.405285
H    -1.413396  -3.723354  0.196350
H    -2.635060  -3.706641  -1.108759
H    -3.160585  -3.931448  0.580753
O    2.411886  -0.209039  1.280487
H    0.809713  -1.090891  -0.271475
Ca    3.668460  0.448880  2.989769
