21
Energy:  -40373.4053403  eV PBE+vdW (tier 2 basis)
N    -0.573323  1.815755  1.338699
C    -0.435548  1.122257  2.668977
C    0.889568  1.494726  3.325627
O    1.099995  1.158210  4.539091
H    -0.977340  2.755528  1.422798
H    -1.228402  1.169283  0.693349
H    -1.245186  1.485881  3.318369
C    -0.564888  -0.411798  2.516195
C    -1.913582  -0.875621  1.950180
S    -2.021653  -0.503255  0.150997
C    -3.812953  -0.395984  -0.117186
H    -0.437818  -0.839630  3.520190
H    0.263466  -0.799665  1.901410
H    -2.752083  -0.388221  2.468161
H    -2.015979  -1.958587  2.089690
H    -4.265513  -1.373105  0.083071
H    -3.944645  -0.152268  -1.177481
H    -4.270677  0.381713  0.503127
O    1.791520  2.114796  2.655122
H    0.346109  1.914074  0.885198
Ca    3.088244  2.054682  4.456716
