21
Energy:  -40371.9882652  eV PBE+vdW (tier 2 basis)
N    0.347969  -0.083080  -0.260023
C    -0.136396  -0.125384  1.121459
C    1.048923  -0.738187  1.883842
O    1.877686  0.138248  2.450552
H    0.349437  -0.985385  -0.732961
H    -0.177958  0.578208  -0.829861
H    -0.213561  0.920908  1.442429
C    -1.540245  -0.750398  1.389643
C    -1.721009  -2.247833  1.660381
S    -0.951352  -3.334103  0.395046
C    -1.191418  -4.997861  1.069442
H    -2.176707  -0.446631  0.546336
H    -1.970475  -0.261612  2.277968
H    -2.788676  -2.502680  1.649231
H    -1.292831  -2.557169  2.621429
H    -0.870286  -5.043380  2.114447
H    -0.601826  -5.677169  0.443106
H    -2.256114  -5.234597  0.965398
O    1.293183  -1.941741  1.910182
H    0.320130  -3.036884  0.884309
Ca    3.582766  0.981442  2.953826
