21
Energy:  -40372.8089534  eV PBE+vdW (tier 2 basis)
N    0.184036  0.828320  0.901757
C    0.075550  -0.293795  1.903570
C    1.513230  -0.782197  2.226074
O    2.392493  0.175391  2.260485
H    0.266522  0.431559  -0.042055
H    -0.706166  1.338135  0.882402
H    -0.246841  0.188621  2.842211
C    -0.996724  -1.360652  1.600744
C    -0.759517  -2.375785  0.474356
S    0.228520  -3.863759  0.916547
C    -0.809787  -4.764511  2.095011
H    -1.931185  -0.826206  1.368337
H    -1.212318  -1.884591  2.542626
H    -0.228961  -1.960825  -0.395166
H    -1.712178  -2.764875  0.093371
H    -1.127416  -4.133565  2.930209
H    -0.188618  -5.590821  2.461749
H    -1.666116  -5.168918  1.544711
O    1.784231  -1.959195  2.478530
H    1.051136  -3.089184  1.823375
Ca    2.250315  2.068871  1.500265
