21
Energy:  -40370.5520914  eV PBE+vdW (tier 2 basis)
N    0.441376  -0.445214  -0.237063
C    0.150971  -0.196145  1.151706
C    1.329408  0.298621  2.050335
O    1.299417  0.244492  3.257943
H    1.267287  -1.025823  -0.382753
H    0.543046  0.404978  -0.788115
H    -0.575818  0.633463  1.201623
C    -0.464156  -1.441694  1.834053
C    -1.841315  -1.722267  1.247807
S    -2.523279  -3.333634  1.840533
C    -2.812837  -3.104614  3.625839
H    -0.511435  -1.244624  2.912605
H    0.201794  -2.303451  1.677602
H    -1.775827  -1.829192  0.153547
H    -2.573508  -0.941122  1.492581
H    -3.449114  -2.233042  3.809120
H    -1.834488  -2.984444  4.104041
H    -3.278953  -4.020106  4.008411
O    2.326758  0.806862  1.313968
H    3.018462  1.144566  1.920922
Ca    -4.655328  -4.194249  0.531328
