21
Energy:  -40372.5531450  eV PBE+vdW (tier 2 basis)
N    0.416535  -0.119900  0.079909
C    -0.151750  -0.044752  1.415931
C    0.940863  0.136354  2.449300
O    0.936041  -0.407206  3.586660
H    1.064502  0.642628  -0.119349
H    -0.322237  -0.072494  -0.623168
H    -0.780323  0.862856  1.597832
C    -1.049088  -1.264748  1.681468
C    -0.333027  -2.621726  1.518776
S    -0.531011  -3.624040  3.045916
C    0.407144  -5.145731  2.705873
H    -1.884975  -1.209699  0.972038
H    -1.535943  -1.164473  2.665962
H    0.732599  -2.504620  1.285297
H    -0.781024  -3.223486  0.719619
H    1.454600  -4.931637  2.471577
H    -0.082364  -5.652250  1.866023
H    0.327203  -5.780717  3.595652
O    1.888785  0.954709  2.087990
H    2.550791  1.108193  2.796527
Ca    0.485888  -1.982291  4.949617
