21
Energy:  -40373.2115317  eV PBE+vdW (tier 2 basis)
 N    0.21585   -0.23492   -0.09424
 C    0.13126   -0.18248    1.40476
 C    1.44098    0.27682    2.02660
 O    2.45656    0.53913    1.28800
 H   -0.82435   -0.44748   -0.37664
 H    0.83784   -0.97779   -0.43638
 H   -0.61849    0.59456    1.62004
 C   -0.36191   -1.52872    1.99069
 C   -1.41049   -2.29625    1.14839
 S   -2.57238   -1.33305    0.12204
 C   -3.57327   -0.43951    1.34676
 H   -0.76330   -1.29966    2.98522
 H    0.49529   -2.19966    2.15203
 H   -1.98424   -2.95599    1.81158
 H   -0.91873   -2.95620    0.41936
 H   -4.28526    0.16119    0.76928
 H   -2.98404    0.22203    1.99072
 H   -4.13005   -1.16514    1.95026
 O    1.51138    0.40105    3.29625
 H    0.52809    0.65130   -0.50954
Ca    3.58357    1.06918    3.12484
