21
Energy:  -40373.7192466  eV PBE+vdW (tier 2 basis)
N    -0.266402  -0.424605  -0.010993
C    -0.614176  0.068096  1.383384
C    0.537711  0.942901  1.865690
O    0.286497  1.878717  2.679355
H    -0.453145  0.290571  -0.729558
H    -0.793392  -1.271487  -0.270098
H    -1.542673  0.647016  1.318735
C    -0.758704  -1.143797  2.334409
C    -0.848170  -0.799135  3.831248
S    0.702444  -0.522595  4.780835
C    1.476771  -2.164986  4.823317
H    0.072525  -1.843906  2.158117
H    -1.685967  -1.673369  2.065666
H    -1.346514  -1.622775  4.358389
H    -1.447525  0.102312  4.014222
H    1.774352  -2.514696  3.829626
H    0.780659  -2.867785  5.295016
H    2.362798  -2.074575  5.462979
O    1.724311  0.573563  1.569831
H    0.748733  -0.634933  -0.033998
Ca    2.281866  1.495468  3.573830
