21
Energy:  -40372.8364799  eV PBE+vdW (tier 2 basis)
 N    0.41747   -0.41459   -0.20494
 C    0.02830   -0.01398    1.21071
 C    1.28741    0.40777    1.94074
 O    2.44147    0.07127    1.47389
 H    0.44351    0.38526   -0.85191
 H   -0.25369   -1.10255   -0.57937
 H   -0.66508    0.83536    1.14064
 C   -0.65885   -1.20293    1.92909
 C   -1.99639   -1.62464    1.28999
 S   -2.73430   -3.04867    2.13309
 C   -3.49775   -2.26475    3.57834
 H   -0.83271   -0.87802    2.96357
 H    0.02903   -2.06171    1.97162
 H   -1.87137   -1.97658    0.25149
 H   -2.70548   -0.78318    1.26595
 H   -4.23816   -1.51601    3.27362
 H   -2.75922   -1.83204    4.26349
 H   -4.01544   -3.07728    4.10215
 O    1.19430    1.03997    3.04583
 H    1.36431   -0.83183   -0.18635
Ca    3.36534    1.01878    3.26722
