21
Energy:  -40372.7794172  eV PBE+vdW (tier 2 basis)
 N   -0.31321    0.26279    0.09565
 C   -0.08122    0.08497    1.58957
 C    1.42153   -0.05408    1.81827
 O    2.24527    0.14170    0.84887
 H   -1.10838    0.88649   -0.09731
 H   -0.51777   -0.65210   -0.33811
 H   -0.38791    1.02550    2.07336
 C   -0.90717   -1.08006    2.15051
 C   -0.62238   -2.42449    1.47285
 S   -1.32438   -3.72964    2.52296
 C   -1.44070   -5.10906    1.35535
 H   -1.97699   -0.83344    2.09418
 H   -0.66579   -1.13593    3.22221
 H    0.46529   -2.57868    1.33744
 H   -1.09795   -2.49440    0.47793
 H   -1.85930   -5.94126    1.93360
 H   -0.45445   -5.40388    0.97913
 H   -2.12450   -4.87687    0.53040
 O    1.84705   -0.30764    2.99220
 H    0.54001    0.64044   -0.35110
Ca    3.91236   -0.14508    2.31174
