21
Energy:  -40371.1320187  eV PBE+vdW (tier 2 basis)
N    -0.256110  0.469415  0.311711
C    -0.038154  0.223847  1.707124
C    1.354177  -0.388564  2.027131
O    2.430782  -0.025262  1.724608
H    0.145563  1.347087  -0.013684
H    0.034452  -0.281442  -0.313335
H    -0.049205  1.188833  2.238584
C    -1.090614  -0.709228  2.318275
C    -2.595674  -0.513224  2.281457
S    -3.192860  -2.146359  2.927361
C    -4.492570  -1.765409  4.141169
H    -0.823138  -0.757299  3.395547
H    -0.910054  -1.679225  1.794919
H    -2.989201  -0.360871  1.270591
H    -2.941553  0.291038  2.941121
H    -5.326243  -1.301081  3.603018
H    -4.120986  -1.115708  4.939152
H    -4.822279  -2.728334  4.548580
O    1.265684  -1.731688  2.794506
H    2.214025  -1.974313  2.867564
Ca    -0.533291  -2.982513  3.602164
