21
Energy:  -40370.4277904  eV PBE+vdW (tier 2 basis)
N    -0.529221  0.972909  0.532969
C    -0.341033  0.545138  1.879450
C    1.155060  0.522017  2.235958
O    2.041696  0.567097  1.422874
H    0.305344  0.903863  -0.048730
H    -1.034412  1.842083  0.398706
H    -0.865094  1.210314  2.580227
C    -0.945512  -0.919950  2.031491
C    -1.139487  -1.347785  3.476672
S    -1.692205  -3.125901  3.602705
C    -3.279725  -3.199439  2.711120
H    -0.289304  -1.615512  1.489581
H    -1.904785  -0.882850  1.501797
H    -1.890328  -0.744349  4.003332
H    -0.199509  -1.326505  4.045594
H    -3.074983  -3.006390  1.652432
H    -3.982840  -2.466515  3.119429
H    -3.674172  -4.216887  2.811746
O    1.349661  0.415356  3.580576
H    2.317158  0.458315  3.729776
Ca    -1.644618  -4.332655  5.913174
