21
Energy:  -40371.6645517  eV PBE+vdW (tier 2 basis)
N    0.558541  0.849547  0.179484
C    0.248203  0.203335  1.399715
C    1.471391  -0.283564  2.185374
O    2.456533  -0.828531  1.838865
H    0.539229  0.255964  -0.646580
H    1.374186  1.456645  0.173342
H    -0.272843  0.951148  2.076792
C    -0.736173  -0.964490  1.156135
C    -1.305803  -1.677222  2.379015
S    -2.335287  -0.554500  3.424114
C    -3.116979  -1.706079  4.602648
H    -0.218363  -1.723250  0.548655
H    -1.549639  -0.558053  0.538268
H    -0.539852  -2.153237  3.005503
H    -1.999075  -2.461062  2.046060
H    -3.774535  -2.367633  4.026933
H    -3.729419  -1.103122  5.282843
H    -2.372878  -2.286610  5.157192
O    1.313097  0.055640  3.647649
H    2.135560  -0.284414  4.062655
Ca    -0.481446  1.061367  4.551956
