21
Energy:  -40373.2119641  eV PBE+vdW (tier 2 basis)
N    -0.212119  -1.590373  0.380220
C    0.120059  -0.797715  1.612604
C    1.583931  -0.944298  1.997914
O    2.366982  -1.692589  1.310320
H    -1.238929  -1.266463  0.167974
H    -0.182936  -2.605762  0.534977
H    -0.033755  0.253589  1.323453
C    -0.838269  -1.139836  2.779681
C    -2.305389  -1.445045  2.389048
S    -3.003152  -0.613354  0.921807
C    -3.047639  1.135648  1.411999
H    -0.794871  -0.288528  3.469676
H    -0.451295  -2.006865  3.336054
H    -2.951859  -1.244477  3.252832
H    -2.434243  -2.512269  2.158240
H    -2.061681  1.543329  1.659448
H    -3.733371  1.251091  2.258892
H    -3.454933  1.676912  0.550353
O    2.022009  -0.305258  3.013792
H    0.405154  -1.376263  -0.412617
Ca    4.021305  -1.115474  2.672332
