21
Energy:  -40373.2977400  eV PBE+vdW (tier 2 basis)
N    0.118349  -2.105936  0.015426
C    -0.243203  -0.963661  0.943993
C    0.668073  -1.201714  2.180424
O    0.742750  -0.194038  3.001603
H    -0.693259  -2.585965  -0.392573
H    0.740657  -1.820079  -0.750649
H    0.038977  -0.022418  0.456741
C    -1.759688  -0.991636  1.240946
C    -2.264016  -0.255063  2.487851
S    -1.833196  1.542302  2.551967
C    -3.350239  2.305138  3.209938
H    -2.068879  -2.040815  1.384310
H    -2.289405  -0.614984  0.354312
H    -1.929415  -0.748636  3.407824
H    -3.360865  -0.287879  2.481866
H    -4.151021  2.174236  2.474061
H    -3.139034  3.375579  3.316349
H    -3.632175  1.876112  4.176438
O    1.228679  -2.280980  2.290924
H    0.656027  -2.756603  0.661676
Ca    0.418881  1.434040  4.166573
