21
Energy:  -40371.2622505  eV PBE+vdW (tier 2 basis)
N    -0.271701  0.813584  0.662193
C    -0.150341  0.327693  2.031152
C    1.367865  0.382009  2.202377
O    1.976812  1.452312  2.494580
H    -0.965209  1.544309  0.533081
H    -0.389610  0.079164  -0.032845
H    -0.563680  1.078502  2.719392
C    -0.753157  -1.052079  2.335203
C    -2.285176  -1.051992  2.274681
S    -2.880078  -2.750591  2.546850
C    -4.664209  -2.519437  2.417864
H    -0.429979  -1.385534  3.334500
H    -0.381495  -1.797583  1.604659
H    -2.646202  -0.701010  1.296508
H    -2.703185  -0.394079  3.051792
H    -5.027689  -1.836615  3.195734
H    -5.106699  -3.509997  2.572250
H    -4.941084  -2.151706  1.422005
O    2.122213  -0.658762  1.965813
H    1.587386  -1.465769  1.800416
Ca    3.447938  2.899758  2.640016
