21
Energy:  -40370.5042313  eV PBE+vdW (tier 2 basis)
N    -0.223683  0.392098  0.954564
C    -0.175125  -0.853270  1.678727
C    1.239733  -1.403844  2.047331
O    1.434530  -2.556444  2.356426
H    0.388609  0.415870  0.139165
H    -0.023112  1.206059  1.532638
H    -0.652173  -0.690512  2.660908
C    -0.937237  -1.975262  0.933598
C    -2.428363  -1.662125  0.900865
S    -3.379812  -2.957351  -0.014996
C    -2.926678  -2.731895  -1.766689
H    -0.739543  -2.928958  1.439395
H    -0.531507  -2.049379  -0.086242
H    -2.641277  -0.690993  0.434896
H    -2.860667  -1.677563  1.912657
H    -1.872303  -3.008583  -1.872889
H    -3.097154  -1.698203  -2.083494
H    -3.528346  -3.429592  -2.360699
O    2.166913  -0.437177  2.006955
H    3.024526  -0.818324  2.290026
Ca    -6.010320  -2.939718  0.352692
