21
Energy:  -40373.3574979  eV PBE+vdW (tier 2 basis)
N    -0.465514  0.424001  0.415002
C    -0.299463  0.142423  1.896548
C    1.236764  0.219898  2.102789
O    1.628432  0.142447  3.339653
H    -0.911701  1.328859  0.223014
H    -0.985677  -0.304134  -0.089708
H    -0.784528  0.954718  2.453572
C    -0.935667  -1.214904  2.259268
C    -0.996146  -1.573257  3.753910
S    0.451592  -2.539968  4.370738
C    -0.276034  -3.514869  5.723189
H    -0.444556  -2.024251  1.696660
H    -1.981973  -1.183302  1.917036
H    -1.840841  -2.255978  3.910633
H    -1.158969  -0.693233  4.387637
H    0.538116  -4.107040  6.157256
H    -1.019436  -4.198370  5.298164
H    -0.725517  -2.872542  6.486818
O    1.953685  0.330385  1.117046
H    0.545690  0.450537  0.080550
Ca    2.468411  -0.752905  4.958941
