21
Energy:  -40373.4722684  eV PBE+vdW (tier 2 basis)
N    0.545164  0.496209  0.113706
C    -0.010910  0.117830  1.450221
C    1.148922  -0.396648  2.302666
O    2.148991  -0.898917  1.761098
H    0.909396  1.455164  0.171834
H    -0.232923  0.560947  -0.552114
H    -0.470188  0.993655  1.935663
C    -1.107424  -0.976813  1.335185
C    -0.682493  -2.413194  1.015645
S    0.034219  -2.633868  -0.668042
C    0.252960  -4.438691  -0.750489
H    -1.852808  -0.621431  0.607234
H    -1.641138  -1.015279  2.296675
H    -1.580572  -3.045256  1.028605
H    0.018495  -2.819599  1.757725
H    0.898794  -4.804598  0.054128
H    0.695382  -4.657758  -1.729014
H    -0.738015  -4.903477  -0.697603
O    1.086932  -0.385690  3.608182
H    0.298590  0.068030  3.969564
Ca    2.332804  -1.133364  -0.421848
