21
Energy:  -40372.7049609  eV PBE+vdW (tier 2 basis)
N    0.125395  -0.162555  -0.171670
C    -0.140203  0.083193  1.309742
C    1.173196  0.517137  1.937852
O    1.177590  1.055624  3.093329
H    0.008861  0.687028  -0.742041
H    -0.514058  -0.880496  -0.542528
H    -0.869282  0.902283  1.384905
C    -0.739613  -1.202486  1.946432
C    -1.353180  -0.997579  3.338479
S    -2.422627  -2.389964  3.803884
C    -1.217055  -3.631797  4.343590
H    0.021381  -1.997801  1.962593
H    -1.548749  -1.541687  1.277220
H    -2.016290  -0.120341  3.338619
H    -0.589788  -0.831611  4.109947
H    -0.577857  -3.987095  3.526612
H    -1.815942  -4.478883  4.698729
H    -0.615573  -3.258208  5.181332
O    2.279611  0.310628  1.309591
H    1.102700  -0.483961  -0.289258
Ca    3.355954  1.227174  3.037390
