21
Energy:  -40373.3570074  eV PBE+vdW (tier 2 basis)
N    -0.505794  0.611531  0.521747
C    -0.297227  0.172940  1.959079
C    1.246254  0.201366  2.118566
O    1.676644  -0.012547  3.326117
H    -0.938838  1.539257  0.441017
H    -1.057523  -0.050207  -0.037866
H    -0.746349  0.930691  2.614447
C    -0.950119  -1.203433  2.200074
C    -0.968509  -1.716193  3.650241
S    0.478425  -2.767003  4.111931
C    -0.224298  -3.866356  5.379341
H    -0.495725  -1.957713  1.538767
H    -2.006365  -1.117056  1.900470
H    -1.821554  -2.397033  3.764087
H    -1.092207  -0.905048  4.377794
H    0.591435  -4.514354  5.720814
H    -0.994720  -4.488985  4.911084
H    -0.635719  -3.300527  6.220951
O    1.932549  0.402441  1.125363
H    0.494266  0.655384  0.156924
Ca    2.550373  -1.087155  4.813052
