21
Energy:  -40373.5366718  eV PBE+vdW (tier 2 basis)
N    -0.268856  0.026859  0.410901
C    0.000131  -0.179256  1.867398
C    0.819776  -1.456636  2.010900
O    0.859192  -2.330280  1.121832
H    -1.010488  0.728394  0.313565
H    0.553234  0.477496  -0.009288
H    0.617048  0.634818  2.276848
C    -1.304982  -0.228882  2.719971
C    -2.584279  -0.771708  2.074147
S    -2.489224  -2.519521  1.499954
C    -4.204959  -2.831203  0.977327
H    -1.533052  0.803960  3.020333
H    -1.088254  -0.765454  3.653157
H    -2.934680  -0.147423  1.240770
H    -3.375480  -0.756673  2.836131
H    -4.234288  -3.854739  0.586671
H    -4.535179  -2.119107  0.214195
H    -4.844322  -2.772434  1.865375
O    1.460080  -1.546269  3.143436
H    1.960643  -2.389415  3.217004
Ca    -0.622060  -2.239529  -0.521629
