21
Energy:  -40372.0850660  eV PBE+vdW (tier 2 basis)
N    0.686112  0.128343  0.104703
C    0.348823  0.075205  1.573352
C    1.646856  0.138205  2.346712
O    2.736307  -0.163425  1.790821
H    -0.028612  -0.415050  -0.394040
H    0.534392  1.090411  -0.224445
H    -0.287180  0.934849  1.841345
C    -0.445832  -1.231482  1.905400
C    -1.116768  -1.254315  3.285087
S    -2.361787  -2.575851  3.390288
C    -1.356954  -4.006030  3.869284
H    0.208639  -2.108818  1.780995
H    -1.241067  -1.308080  1.145541
H    -1.678621  -0.322259  3.454447
H    -0.396410  -1.380525  4.106825
H    -0.859456  -3.831524  4.830715
H    -0.633126  -4.291241  3.096990
H    -2.071199  -4.829265  3.990745
O    1.687418  0.455892  3.610061
H    0.814250  0.692219  3.987244
Ca    3.022616  -0.520102  -0.274165
