21
Energy:  -40370.4238100  eV PBE+vdW (tier 2 basis)
N    0.543467  -0.547650  -0.052330
C    -0.012086  0.085617  1.094906
C    1.078222  0.885681  1.822741
O    2.257989  0.756283  1.615055
H    1.561038  -0.519676  -0.102327
H    0.078027  -0.400724  -0.940542
H    -0.834963  0.765571  0.828188
C    -0.602924  -1.045973  2.049419
C    -1.362051  -0.513194  3.253657
S    -2.187334  -1.895110  4.206594
C    -0.812707  -2.934209  4.799723
H    0.243742  -1.677338  2.350307
H    -1.262206  -1.650367  1.414193
H    -2.203715  0.128813  2.955824
H    -0.735827  0.035666  3.965998
H    -1.236163  -3.726942  5.426769
H    -0.093339  -2.332496  5.364306
H    -0.342905  -3.394845  3.923928
O    0.546483  1.737660  2.739515
H    1.290981  2.244951  3.124731
Ca    -3.997368  -1.352088  6.007950
