21
Energy:  -40371.8758248  eV PBE+vdW (tier 2 basis)
N    0.194995  0.554535  -0.106605
C    0.285941  0.204618  1.283929
C    1.058975  -1.113735  1.590466
O    0.520289  -2.101051  2.163052
H    0.979726  1.107853  -0.444730
H    0.028349  -0.222257  -0.744407
H    0.811002  1.012998  1.816412
C    -1.087316  -0.049135  1.923082
C    -2.294353  0.867723  2.001131
S    -3.398803  -0.122375  3.117820
C    -5.032331  -0.130968  2.319820
H    -0.834790  -0.272970  2.985653
H    -1.471323  -0.947347  1.391422
H    -2.778327  1.022220  1.030832
H    -2.091122  1.836451  2.471575
H    -4.985158  -0.541952  1.306926
H    -5.412999  0.896096  2.315882
H    -5.678323  -0.748481  2.954917
O    2.285049  -1.139678  1.154256
H    2.725336  -2.001199  1.328603
Ca    -1.511057  -2.403999  3.106554
