21
Energy:  -40371.1751241  eV PBE+vdW (tier 2 basis)
N    -0.119035  -1.054415  0.249232
C    0.017466  -0.066004  1.382761
C    1.337958  -0.351987  2.115432
O    1.980967  -1.352645  1.878701
H    -0.062146  -0.566633  -0.650558
H    0.742492  -1.632296  0.304601
H    -0.014181  0.972302  1.029919
C    -1.211531  -0.444683  2.223845
C    -1.848477  0.025675  3.520579
S    -3.397593  -1.007714  3.484768
C    -3.419350  -1.864994  5.087100
H    -1.031958  -1.525244  2.438484
H    -2.038954  -0.301611  1.486306
H    -2.121628  1.086848  3.525486
H    -1.256706  -0.209137  4.411939
H    -3.557794  -1.117036  5.875499
H    -2.510510  -2.452126  5.251676
H    -4.296680  -2.522421  5.063113
O    1.604730  0.589479  3.016051
H    2.456450  0.391521  3.462393
Ca    -2.224965  -2.381177  0.829529
