21
Energy:  -40373.1538572  eV PBE+vdW (tier 2 basis)
N    0.110198  -0.159748  0.165406
C    0.083210  -0.113119  1.681444
C    1.588759  -0.213363  2.064306
O    1.870401  0.156251  3.277955
H    -0.614394  -0.757846  -0.250431
H    0.048187  0.770016  -0.268056
H    -0.313080  0.861658  1.988610
C    -0.798949  -1.268372  2.207059
C    -0.585892  -1.803309  3.627679
S    -0.769727  -0.709634  5.090682
C    -2.343716  0.163421  4.857381
H    -0.627962  -2.149539  1.565104
H    -1.853379  -0.988301  2.069616
H    0.415349  -2.239083  3.750207
H    -1.300309  -2.621797  3.789204
H    -2.321086  0.840191  3.997754
H    -2.520508  0.733667  5.776594
H    -3.137991  -0.584488  4.752387
O    2.369623  -0.620450  1.217754
H    1.081569  -0.550574  -0.023017
Ca    1.685193  0.574321  5.252964
