21
Energy:  -40372.7375897  eV PBE+vdW (tier 2 basis)
 N    0.13536    0.27770    0.07136
 C    0.16534    0.05563    1.58329
 C    1.62803   -0.05534    1.99274
 O    2.55366    0.12721    1.11547
 H   -0.65408    0.87548   -0.20895
 H    0.03723   -0.61910   -0.42708
 H   -0.23948    0.97338    2.04036
 C   -0.71884   -1.15328    1.97515
 C   -1.16285   -1.15139    3.44829
 S   -2.09830   -2.63844    3.89066
 C   -3.72798   -2.29620    3.17162
 H   -0.19383   -2.09195    1.74302
 H   -1.61654   -1.11860    1.33660
 H   -1.75403   -0.24996    3.67386
 H   -0.29427   -1.15306    4.11786
 H   -3.71601   -2.28148    2.07545
 H   -4.14647   -1.36572    3.57353
 H   -4.36344   -3.13036    3.49191
 O    1.93019   -0.30799    3.20441
 H    1.02393    0.70681   -0.24173
Ca    4.06205   -0.19821    2.73247
