21
Energy:  -40370.6117860  eV PBE+vdW (tier 2 basis)
N    0.099308  -0.201539  -0.283667
C    -0.204978  -0.004555  1.096717
C    0.773234  -0.627814  2.126103
O    0.491563  -0.784164  3.300902
H    0.355925  -1.147782  -0.553960
H    0.729257  0.479263  -0.697026
H    -0.165957  1.079671  1.297675
C    -1.664533  -0.505886  1.391551
C    -2.203245  0.015793  2.718528
S    -3.929945  -0.613935  3.063035
C    -3.689625  -2.393659  3.389529
H    -1.658294  -1.605088  1.375130
H    -2.284710  -0.161642  0.555724
H    -2.319535  1.109597  2.703579
H    -1.574007  -0.277709  3.567883
H    -2.924974  -2.544538  4.158235
H    -3.394202  -2.865147  2.446228
H    -4.652416  -2.814714  3.700099
O    1.948718  -0.944993  1.578674
H    2.537305  -1.296507  2.279276
Ca    -5.247360  0.570709  4.985713
