21
Energy:  -40372.5564495  eV PBE+vdW (tier 2 basis)
N    0.147223  0.543040  0.469482
C    0.398337  -0.576651  1.347676
C    1.660687  -1.300667  0.906021
O    2.471472  -0.740445  0.087328
H    0.989480  1.079039  0.265177
H    -0.553393  1.178687  0.848670
H    0.631661  -0.295114  2.406649
C    -0.845254  -1.515764  1.362537
C    -1.392617  -1.919820  2.728316
S    -0.443179  -3.267197  3.546080
C    -1.265905  -3.444529  5.151386
H    -0.687626  -2.400087  0.731060
H    -1.653379  -0.953869  0.872285
H    -2.390574  -2.369527  2.623839
H    -1.457062  -1.083820  3.437462
H    -2.234818  -3.916162  4.949393
H    -1.388143  -2.473775  5.641443
H    -0.646996  -4.122150  5.751374
O    1.942444  -2.476063  1.365950
H    0.646211  -2.554216  3.937448
Ca    3.724405  -2.483549  0.062690
