21
Energy:  -40372.2484466  eV PBE+vdW (tier 2 basis)
N    0.028654  0.085968  0.121413
C    -0.562036  0.107355  1.497080
C    0.591365  0.280916  2.478720
O    1.718971  -0.178189  2.194531
H    0.278235  1.043940  -0.154245
H    -0.707125  -0.185948  -0.541532
H    -1.286196  0.929411  1.609485
C    -1.296825  -1.238438  1.782615
C    -0.501398  -2.517250  1.467896
S    -1.412687  -4.071852  1.725781
C    -1.484284  -4.174642  3.534472
H    -2.223284  -1.246146  1.189785
H    -1.612567  -1.251003  2.834790
H    0.438292  -2.579186  2.066345
H    -0.278954  -2.583498  0.380698
H    -1.977156  -5.135831  3.729198
H    -2.097899  -3.382182  3.976457
H    -0.482168  -4.205099  3.978592
O    0.427114  0.835499  3.646012
H    -0.462234  1.219625  3.790201
Ca    1.970371  -1.378341  0.405178
