21
Energy:  -40373.4269077  eV PBE+vdW (tier 2 basis)
N    2.660191  -0.279515  2.016846
C    1.277285  0.306833  1.925475
C    1.211474  1.654841  2.634164
O    0.160729  2.370283  2.509344
H    3.060974  -0.139543  2.953557
H    3.313293  0.128384  1.337518
H    1.066119  0.485553  0.860047
C    0.239661  -0.691457  2.485628
C    0.081006  -1.965886  1.642685
S    1.576168  -3.016245  1.468510
C    1.630514  -3.879592  3.066752
H    -0.728927  -0.171984  2.511836
H    0.492192  -0.938293  3.529087
H    -0.210597  -1.718519  0.612103
H    -0.722300  -2.587202  2.059034
H    2.524893  -4.512406  3.036658
H    0.745483  -4.518693  3.158646
H    1.700232  -3.193817  3.918309
O    2.192657  2.057606  3.356360
H    2.538677  -1.379169  1.809930
Ca    1.047274  3.915818  3.767511
