21
Energy:  -40373.7101199  eV PBE+vdW (tier 2 basis)
 N   -0.55179    0.83284    0.00373
 C   -0.02690    0.47372    1.38665
 C    1.35322   -0.14397    1.19053
 O    1.60880   -0.68047    0.05630
 H   -1.57564    0.75632   -0.06770
 H   -0.09736    0.18850   -0.67419
 H    0.02942    1.39610    1.97585
 C   -0.92867   -0.55296    2.11044
 C   -0.92901   -1.99861    1.58508
 S    0.42556   -3.05714    2.26387
 C   -0.05461   -4.68512    1.61244
 H   -1.96349   -0.17596    2.09054
 H   -0.63793   -0.53229    3.17020
 H   -0.91301   -2.06522    0.48797
 H   -1.84786   -2.48909    1.93140
 H    0.68824   -5.40237    1.98090
 H   -0.08274   -4.69685    0.51790
 H   -1.03231   -4.95326    2.02880
 O    2.10540   -0.27197    2.19736
 H   -0.29201    1.79332   -0.26289
Ca    2.90963   -2.11492    1.26147
