21
Energy:  -40372.8662761  eV PBE+vdW (tier 2 basis)
N    0.744053  -0.417060  0.292058
C    0.051229  -0.294619  1.627428
C    1.068127  0.086051  2.730938
O    2.315057  0.125909  2.380484
H    0.193059  0.087002  -0.410438
H    0.684817  -1.396762  -0.011105
H    -0.624324  0.571799  1.555236
C    -0.797572  -1.564988  1.913191
C    -1.338606  -1.802869  3.332331
S    -2.139878  -0.311730  4.043754
C    -2.377836  -0.773581  5.780288
H    -0.183813  -2.452976  1.687447
H    -1.630411  -1.568389  1.196051
H    -0.543631  -2.093277  4.030121
H    -2.093345  -2.597787  3.307282
H    -2.734496  0.130664  6.287168
H    -1.438443  -1.121063  6.221413
H    -3.153650  -1.545753  5.818613
O    0.673161  0.380311  3.867542
H    -0.803580  0.291420  4.093300
Ca    3.125848  0.225761  0.505949
