21
Energy:  -40372.4522360  eV PBE+vdW (tier 2 basis)
N    -0.269107  0.804023  -0.000343
C    0.162487  0.222258  1.316598
C    1.690280  0.262323  1.347268
O    2.287167  1.130423  0.666754
H    -0.235116  0.034755  -0.685177
H    -1.319302  0.933407  0.131990
H    -0.126290  0.961930  2.090754
C    -0.546226  -1.100395  1.653802
C    -1.991004  -0.889460  2.148768
S    -3.097396  0.108119  1.088642
C    -3.592396  -1.099877  -0.176225
H    -0.016143  -1.632636  2.463964
H    -0.512621  -1.770927  0.781031
H    -1.982434  -0.359908  3.112432
H    -2.467551  -1.862185  2.325929
H    -2.744569  -1.489709  -0.751720
H    -4.274778  -0.571046  -0.851463
H    -4.136795  -1.923247  0.299707
O    2.405277  -0.521766  2.095282
H    1.872388  -1.186844  2.580567
Ca    1.295537  2.476224  -0.685438
