21
Energy:  -40373.4732920  eV PBE+vdW (tier 2 basis)
N    1.522294  -0.340635  -0.192736
C    0.906927  0.179994  1.067755
C    1.817255  -0.226274  2.226561
O    2.540576  -1.232923  2.130952
H    0.804312  -0.339847  -0.925804
H    2.219586  0.339235  -0.520127
H    0.822469  1.277675  1.027465
C    -0.521538  -0.387193  1.294796
C    -0.672712  -1.847922  1.729588
S    -0.142626  -3.074439  0.459909
C    -0.614938  -4.650050  1.238650
H    -1.102777  -0.192039  0.380522
H    -1.001218  0.222471  2.075204
H    -1.740722  -2.047108  1.890365
H    -0.150770  -2.062504  2.672322
H    -0.314532  -5.445527  0.547127
H    -1.705742  -4.663851  1.342457
H    -0.128893  -4.781818  2.210662
O    1.804430  0.426505  3.358847
H    1.253747  1.235588  3.350303
Ca    2.555872  -2.526338  0.347181
