21
Energy:  -40373.3084943  eV PBE+vdW (tier 2 basis)
N    -1.189505  0.127075  0.578692
C    -1.600380  -0.387774  1.938334
C    -0.455575  -0.155450  2.923091
O    -0.550226  -0.615774  4.109086
H    -1.952719  0.632921  0.114398
H    -0.375579  0.754105  0.662222
H    -2.422601  0.245875  2.308658
C    -2.098425  -1.845969  1.885026
C    -1.125954  -2.859084  1.269581
S    -1.076538  -2.642391  -0.556183
C    0.474421  -3.464125  -1.007889
H    -3.058911  -1.866207  1.348607
H    -2.329328  -2.137341  2.918762
H    -1.462919  -3.878511  1.493717
H    -0.106952  -2.750066  1.672538
H    1.339454  -2.998774  -0.523269
H    0.563087  -3.363610  -2.095598
H    0.407889  -4.527796  -0.754151
O    0.562928  0.548337  2.579297
H    -0.935443  -0.747602  -0.056413
Ca    1.288274  0.413163  4.677494
