21
Energy:  -40373.3083185  eV PBE+vdW (tier 2 basis)
N    -0.674345  0.204014  0.400619
C    -1.172532  -0.288242  1.739358
C    0.003079  -0.352865  2.712993
O    -0.177092  -0.846016  3.875702
H    -1.317162  0.884932  -0.020174
H    0.254635  0.639525  0.500536
H    -1.842125  0.480696  2.157740
C    -1.963177  -1.606590  1.620042
C    -1.227885  -2.763030  0.932284
S    -1.154836  -2.460633  -0.880488
C    0.188576  -3.556397  -1.409032
H    -2.911795  -1.397870  1.103090
H    -2.240031  -1.900722  2.641628
H    -1.765858  -3.701999  1.110856
H    -0.203979  -2.888349  1.317690
H    1.136426  -3.305548  -0.920880
H    0.283245  -3.416008  -2.491828
H    -0.092395  -4.596278  -1.209380
O    1.143878  0.139806  2.386501
H    -0.616876  -0.667412  -0.285286
Ca    1.840382  -0.256794  4.461609
