21
Energy:  -40370.5486695  eV PBE+vdW (tier 2 basis)
N    -0.271674  -0.263622  0.154919
C    0.075972  -0.153768  1.568898
C    1.558636  -0.390229  1.948183
O    1.904819  -0.685403  3.068427
H    0.210583  -1.051277  -0.283183
H    0.005469  0.567145  -0.368015
H    -0.119526  0.887173  1.880336
C    -0.799654  -1.093514  2.408865
C    -2.235404  -0.638749  2.612844
S    -3.175406  -0.307926  1.034181
C    -3.228134  -1.902631  0.158146
H    -0.362701  -1.168514  3.419215
H    -0.767950  -2.110870  1.991091
H    -2.281875  0.328085  3.135669
H    -2.813586  -1.381808  3.174768
H    -3.528559  -2.712700  0.830573
H    -2.220936  -2.062524  -0.240956
H    -3.926550  -1.812640  -0.683189
O    2.378500  -0.199497  0.900190
H    3.300924  -0.325132  1.206086
Ca    -5.656526  0.475864  1.368443
