21
Energy:  -40372.4382552  eV PBE+vdW (tier 2 basis)
N    -0.017733  0.762001  0.651648
C    0.070588  -0.190833  1.811168
C    1.521427  -0.457752  2.103964
O    2.414098  0.311447  1.651145
H    -0.854343  1.339744  0.823910
H    -0.251785  0.223321  -0.192467
H    -0.347508  0.387577  2.678363
C    -0.858339  -1.407983  1.703377
C    -2.342868  -0.978793  1.649174
S    -2.775596  0.407765  2.740790
C    -2.802514  -0.371067  4.381939
H    -0.716832  -2.044605  2.592655
H    -0.606756  -2.031415  0.830791
H    -2.985687  -1.840152  1.871568
H    -2.622631  -0.642433  0.640834
H    -3.557429  -1.165410  4.397811
H    -3.104032  0.417997  5.080246
H    -1.825662  -0.760953  4.689378
O    1.919102  -1.425631  2.882176
H    1.191881  -2.011740  3.175374
Ca    2.096201  1.952242  0.367070
