21
Energy:  -40372.5212750  eV PBE+vdW (tier 2 basis)
N    0.287846  -0.253531  -0.583650
C    0.255250  0.152455  0.812192
C    1.741117  0.345357  1.125215
O    2.253837  1.506982  0.970617
H    0.331053  -1.253533  -0.757248
H    -0.426989  0.180417  -1.161290
H    -0.148649  1.172850  0.841859
C    -0.599460  -0.673706  1.810667
C    -0.620954  -2.194663  1.685969
S    0.817014  -3.135447  2.334754
C    0.727830  -2.914421  4.129954
H    -1.641732  -0.363676  1.636790
H    -0.380014  -0.359191  2.842243
H    -0.710515  -2.539626  0.645804
H    -1.476079  -2.625703  2.224671
H    1.648808  -3.341130  4.543975
H    -0.129588  -3.504035  4.474140
H    0.621279  -1.861482  4.405063
O    2.541824  -0.641320  1.417283
H    1.768183  -2.173562  2.022304
Ca    4.243570  0.741728  0.963619
