30
Energy: -106809.315982 eV PBE+vdW (tier 2 basis)
C    0.237778  -0.150118  0.166507
C    0.063829  -0.311904  1.642762
O    1.008822  -0.823361  2.348923
H    -0.603712  0.364785  -0.307204
H    0.336837  -1.148487  -0.283466
H    1.166147  0.393902  -0.050186
N    -1.073280  0.072215  2.188826
C    -1.537517  -0.075166  3.562627
C    -2.926831  0.633303  3.531980
O    -3.159013  1.404902  2.595341
H    -1.771488  0.612891  1.645832
H    -1.653965  -1.145019  3.788565
C    -0.612696  0.552396  4.650320
C    0.066954  1.833466  4.279325
N    1.432622  1.893479  3.985992
C    -0.460480  3.097580  4.181219
C    1.703393  3.178131  3.727905
N    0.584620  3.919676  3.834007
H    0.136530  -0.198090  4.948942
H    -1.214030  0.706278  5.556175
H    -1.467582  3.470192  4.322273
H    2.672199  3.597957  3.479975
H    0.527968  4.925903  3.697199
N    -3.797393  0.397258  4.529033
C    -3.708365  -0.542393  5.642382
H    -4.665127  0.922422  4.434793
H    -4.699308  -0.973061  5.822060
H    -3.375018  -0.051407  6.567731
H    -3.030748  -1.370711  5.409261
Sr    2.723902  -0.207524  3.632299
