30
Energy: -106810.517298 eV PBE+vdW (tier 2 basis)
C    -1.275603  -2.420712  0.001791
C    -1.667665  -1.133299  0.658189
O    -1.122682  -0.764796  1.730054
H    -0.202220  -2.387220  -0.229487
H    -1.831723  -2.636122  -0.916317
H    -1.422382  -3.243638  0.713383
N    -2.606480  -0.383092  0.046252
C    -3.155362  0.911946  0.477673
C    -2.053463  1.912958  0.897657
O    -1.747268  2.088761  2.108275
H    -2.995800  -0.765048  -0.810496
H    -3.601355  1.330280  -0.434647
C    -4.325184  0.838620  1.513705
C    -4.407609  -0.285039  2.500893
N    -3.575203  -0.452086  3.608191
C    -5.403725  -1.232381  2.555034
C    -4.075090  -1.478383  4.298686
N    -5.174632  -1.969124  3.691181
H    -5.254146  0.800803  0.931232
H    -4.351320  1.800883  2.046161
H    -6.255099  -1.417280  1.911066
H    -3.685097  -1.881716  5.227361
H    -5.749946  -2.734081  4.033185
N    -1.488574  2.611543  -0.080368
C    -0.449584  3.624145  0.109024
H    -1.797757  2.436846  -1.032783
H    -0.504530  4.009095  1.130527
H    -0.618723  4.442186  -0.598323
H    0.544802  3.195355  -0.071501
Sr    -1.244586  0.471595  3.702403
