30
Energy: -106809.317454 eV PBE+vdW (tier 2 basis)
C    -1.520296  -0.645235  -0.185849
C    -1.850706  -0.422640  1.262938
O    -2.524728  -1.178146  1.942230
H    -0.853820  -1.515098  -0.264646
H    -1.044279  0.216000  -0.668945
H    -2.439960  -0.903333  -0.724144
N    -1.346816  0.763362  1.838746
C    -1.469043  0.911245  3.269958
C    -2.161994  2.208438  3.664409
O    -1.989727  2.707048  4.831283
H    -0.624698  1.278075  1.341935
H    -2.191363  0.103374  3.529525
C    -0.178361  0.585317  4.066302
C    0.991443  1.507745  3.915431
N    1.199286  2.620036  4.739522
C    2.041159  1.419546  3.032856
C    2.350933  3.172879  4.344040
N    2.875131  2.476061  3.319173
H    0.120111  -0.422698  3.749586
H    -0.437912  0.461396  5.131579
H    2.277137  0.689694  2.267937
H    2.826518  4.050263  4.769045
H    3.755613  2.683286  2.854250
N    -2.990897  2.742821  2.789505
C    -3.863352  3.892097  3.005602
H    -3.028111  2.261788  1.889393
H    -4.883285  3.630695  2.701459
H    -3.523122  4.746608  2.407276
H    -3.861788  4.158230  4.065183
Sr    -0.515400  3.200521  6.431969
