30
Energy: -106809.259952 eV PBE+vdW (tier 2 basis)
C    -0.071310  0.224263  -0.207931
C    -0.146022  0.316955  1.277702
O    0.895749  0.137881  1.997287
H    0.668454  0.945544  -0.580825
H    -1.032205  0.410730  -0.698218
H    0.285410  -0.776639  -0.488463
N    -1.310330  0.582572  1.869859
C    -1.473868  0.573081  3.326940
C    -2.921912  0.301749  3.797886
O    -3.076464  -0.456410  4.745859
H    -2.141418  0.633625  1.284332
H    -0.930354  -0.304833  3.703076
C    -0.892455  1.855756  4.002884
C    -0.396649  1.582452  5.384218
N    0.792698  0.882988  5.618455
C    -0.979043  1.877376  6.589338
C    0.903651  0.775899  6.949451
N    -0.143990  1.363596  7.553413
H    -1.656692  2.642724  4.034436
H    -0.080127  2.259397  3.378809
H    -1.900333  2.390075  6.835678
H    1.711291  0.300582  7.495822
H    -0.292108  1.417034  8.558141
N    -3.922093  0.936494  3.133380
C    -5.325586  0.765827  3.517818
H    -3.706841  1.713430  2.516076
H    -5.959751  0.919875  2.639334
H    -5.615073  1.474301  4.305298
H    -5.462443  -0.251709  3.895084
Sr    2.225213  -0.021856  3.805226
