30
Energy: -106809.477681 eV PBE+vdW (tier 2 basis)
C    -0.778380  -1.588621  0.240237
C    -0.948317  -0.545855  1.305898
O    -0.125175  -0.370968  2.212725
H    0.087481  -1.312076  -0.377315
H    -1.653034  -1.702885  -0.410030
H    -0.540560  -2.549820  0.710498
N    -2.078006  0.238453  1.240533
C    -2.220796  1.430379  2.065221
C    -2.646533  1.093308  3.512683
O    -3.754698  1.521355  4.002083
H    -2.772783  0.059778  0.522686
H    -1.210558  1.861845  2.166683
C    -3.091826  2.500462  1.367722
C    -4.387142  2.071433  0.742316
N    -5.603756  1.953145  1.423528
C    -4.607962  1.794105  -0.587121
C    -6.516400  1.610796  0.507447
N    -5.946793  1.503659  -0.706576
H    -2.473754  2.929823  0.568398
H    -3.257102  3.328947  2.072764
H    -3.943951  1.815277  -1.443337
H    -7.573818  1.440031  0.680681
H    -6.432502  1.270611  -1.569313
N    -1.786972  0.381375  4.199622
C    -1.935750  -0.061685  5.579630
H    -0.947505  0.080977  3.641599
H    -0.987849  0.097911  6.105301
H    -2.173070  -1.133288  5.608562
H    -2.727967  0.503764  6.076939
Sr    -5.815522  2.303761  3.870936
