30
Energy: -106809.463727 eV PBE+vdW (tier 2 basis)
C    -0.884010  0.591418  -0.713829
C    -0.823178  1.110554  0.691367
O    -0.005381  2.060517  0.964643
H    0.124196  0.336454  -1.063478
H    -1.253011  1.397373  -1.364287
H    -1.539129  -0.278905  -0.818378
N    -1.628864  0.540427  1.572601
C    -2.017130  0.817694  2.962678
C    -1.126137  1.678508  3.842429
O    0.145581  1.644268  3.799669
H    -2.229059  -0.274448  1.229155
H    -3.005146  1.299825  2.911161
C    -2.203618  -0.563978  3.676866
C    -3.236374  -1.414404  3.003358
N    -3.264039  -1.536286  1.623856
C    -4.230315  -2.190916  3.553635
C    -4.254718  -2.369501  1.343790
N    -4.855604  -2.789434  2.484977
H    -2.487388  -0.399915  4.724275
H    -1.222109  -1.063944  3.686484
H    -4.530567  -2.377190  4.577321
H    -4.563158  -2.688576  0.354675
H    -5.631637  -3.441924  2.541224
N    -1.725074  2.421702  4.771469
C    -3.158093  2.603883  5.029659
H    -1.084123  2.864801  5.427802
H    -3.682876  2.937763  4.126915
H    -3.264561  3.380867  5.791631
H    -3.619883  1.683558  5.408227
Sr    1.717402  2.420811  2.334105
