30
Energy: -106809.134265 eV PBE+vdW (tier 2 basis)
C    0.642863  1.956447  0.511697
C    0.378407  1.097853  1.707542
O    1.293149  0.337609  2.169667
H    1.509284  2.603435  0.701431
H    -0.211100  2.580147  0.228309
H    0.904435  1.307007  -0.335482
N    -0.826451  1.141185  2.268917
C    -1.335174  0.305472  3.374342
C    -2.778942  0.808909  3.669257
O    -2.964394  1.588033  4.600029
H    -1.492589  1.790878  1.856511
H    -1.356994  -0.736673  3.021237
C    -0.506464  0.338472  4.686246
C    0.163444  1.617611  5.088473
N    1.552449  1.778155  5.018455
C    -0.382407  2.750686  5.639424
C    1.817655  2.987745  5.526405
N    0.673992  3.590165  5.902583
H    0.238127  -0.475189  4.644981
H    -1.196835  0.036949  5.485351
H    -1.413407  3.000662  5.855109
H    2.796352  3.440419  5.641435
H    0.605803  4.509443  6.331972
N    -3.756308  0.396485  2.829201
C    -3.705238  -0.649083  1.807522
H    -4.674561  0.762912  3.074326
H    -4.619146  -0.586402  1.209300
H    -3.656598  -1.654777  2.248409
H    -2.859940  -0.509503  1.122127
Sr    2.845195  0.089061  3.780316
