30
Energy: -106809.509064 eV PBE+vdW (tier 2 basis)
C    0.003519  -1.273882  0.273214
C    -0.282371  -0.886735  1.692651
O    0.733889  -0.474393  2.410981
H    0.432188  -0.418795  -0.267217
H    -0.895603  -1.621665  -0.243000
H    0.757573  -2.072251  0.249872
N    -1.510963  -0.969556  2.142187
C    -1.740891  -0.516474  3.518500
C    -1.000825  -1.382700  4.554838
O    -0.073006  -0.855703  5.254415
H    -2.982754  -0.471408  1.211905
H    -1.311788  0.491855  3.661451
C    -3.258339  -0.420653  3.837730
C    -4.033659  0.338518  2.811095
N    -3.822761  0.112934  1.461684
C    -5.062229  1.242871  2.893860
C    -4.666385  0.845384  0.735175
N    -5.432682  1.533104  1.595039
H    -3.397150  0.052591  4.818119
H    -3.694457  -1.426419  3.912331
H    -5.560109  1.685019  3.747106
H    -4.728015  0.885724  -0.345361
H    -6.180333  2.166049  1.322427
N    -1.282230  -2.670963  4.720283
C    -2.205130  -3.531164  3.976870
H    -0.746160  -3.117059  5.464277
H    -3.142643  -3.673343  4.530052
H    -1.731280  -4.510115  3.844899
H    -2.398497  -3.106779  2.988114
Sr    1.828093  0.001006  4.254497
