30
Energy: -106809.56581 eV PBE+vdW (tier 2 basis)
C    -0.021337  -0.687726  0.458961
C    -0.252433  -0.396017  1.903929
O    0.714823  0.006946  2.643655
H    0.399635  0.203242  -0.026119
H    -0.936897  -0.988404  -0.059193
H    0.726398  -1.487001  0.363055
N    -1.471994  -0.560300  2.402845
C    -1.826421  -0.141244  3.764318
C    -1.075587  -0.978156  4.816507
O    -0.154653  -0.408477  5.495091
H    -2.321446  -0.644118  1.757533
H    -1.451195  0.884529  3.911081
C    -3.366760  -0.114145  3.969489
C    -4.119765  0.411812  2.787244
N    -3.906090  -0.136018  1.530350
C    -5.128496  1.344092  2.717835
C    -4.766796  0.457737  0.716710
N    -5.524331  1.351685  1.400420
H    -3.575344  0.497048  4.856396
H    -3.734086  -1.122635  4.198835
H    -5.600205  1.967330  3.467379
H    -4.876093  0.272390  -0.345908
H    -6.271632  1.917124  1.009304
N    -1.338005  -2.260169  5.027489
C    -2.255072  -3.173230  4.338315
H    -0.795052  -2.667884  5.789505
H    -1.759538  -4.146073  4.246369
H    -2.489773  -2.810607  3.335289
H    -3.178573  -3.306159  4.915878
Sr    1.711715  0.569426  4.582437
