30
Energy: -106809.551597 eV PBE+vdW (tier 2 basis)
C    -0.649078  1.509462  1.058549
C    -0.133740  0.420203  1.944105
O    1.112245  0.385828  2.233462
H    -0.056045  1.534982  0.135134
H    -0.505019  2.476776  1.560217
H    -1.708463  1.392704  0.811717
N    -1.014368  -0.459488  2.406710
C    -0.831656  -1.743888  3.115187
C    0.147206  -1.762964  4.290395
O    1.408790  -1.777534  4.139999
H    -1.912738  -0.546799  1.872513
H    -1.828772  -1.938532  3.536258
C    -0.564224  -2.872558  2.091270
C    -1.767587  -3.047842  1.207171
N    -2.642044  -1.997571  0.974359
C    -2.207018  -4.169644  0.541327
C    -3.588445  -2.475404  0.180425
N    -3.356382  -3.781279  -0.105295
H    -0.343301  -3.809509  2.621782
H    0.335560  -2.617081  1.505644
H    -1.821054  -5.179375  0.476257
H    -4.441846  -1.924991  -0.199410
H    -3.937442  -4.374167  -0.690056
N    -0.396232  -1.854358  5.496874
C    0.351377  -1.983668  6.746929
H    -1.410629  -1.828696  5.560141
H    1.284918  -2.522243  6.561136
H    -0.256307  -2.545444  7.462591
H    0.572872  -0.994690  7.169658
Sr    2.970419  -0.536231  3.034951
