30
Energy: -106809.390127 eV PBE+vdW (tier 2 basis)
C    0.491066  0.207664  0.431866
C    -0.038157  0.431911  1.807899
O    0.549821  1.233614  2.611757
H    -0.106079  -0.504692  -0.146540
H    1.523905  -0.161274  0.500044
H    0.526857  1.164502  -0.106471
N    -1.133645  -0.212340  2.207859
C    -1.713973  -0.066690  3.548264
C    -2.719405  -1.225787  3.855052
O    -3.855785  -0.959172  4.223194
H    -1.605731  -0.820847  1.541487
H    -0.880589  -0.151631  4.265758
C    -2.426413  1.296331  3.734767
C    -2.354840  1.806080  5.136036
N    -1.222118  2.456068  5.642606
C    -3.296403  1.722086  6.129130
C    -1.505623  2.758386  6.917366
N    -2.741097  2.328942  7.231925
H    -3.479482  1.162225  3.458043
H    -2.008427  2.035322  3.033315
H    -4.285132  1.279941  6.134257
H    -0.861898  3.279373  7.617822
H    -3.192286  2.444117  8.136060
N    -2.238136  -2.476912  3.673047
C    -3.047457  -3.667880  3.937221
H    -1.248667  -2.610235  3.492054
H    -2.706323  -4.484608  3.293582
H    -4.094218  -3.439853  3.716049
H    -2.968964  -3.976090  4.988215
Sr    0.795197  2.766449  4.246337
