30
Energy: -106809.580055 eV PBE+vdW (tier 2 basis)
C    -1.573403  -2.679069  1.102968
C    -1.713631  -1.429092  1.924122
O    -1.302322  -1.278074  3.055747
H    -0.648388  -2.599953  0.509487
H    -2.396927  -2.836670  0.393346
H    -1.464605  -3.545891  1.762096
N    -2.430087  -0.343292  1.299966
C    -2.010690  1.020063  1.736906
C    -2.442670  1.253949  3.188027
O    -3.575064  0.839345  3.579849
H    -2.432054  -0.414104  0.278991
H    -0.911603  1.074236  1.689600
C    -2.551162  2.087699  0.759980
C    -4.023374  2.391448  0.684171
N    -5.065033  1.471433  0.825574
C    -4.555712  3.602877  0.309876
C    -6.189246  2.136452  0.531692
N    -5.912964  3.415268  0.216735
H    -2.193315  1.801294  -0.244482
H    -2.028830  3.027724  0.983959
H    -4.089173  4.555006  0.087220
H    -7.196006  1.731765  0.531404
H    -6.594254  4.120242  -0.053235
N    -1.630984  1.949953  3.964833
C    -1.899514  2.291083  5.361769
H    -0.710366  2.180630  3.599811
H    -2.970047  2.194196  5.556356
H    -1.581322  3.322155  5.547878
H    -1.344331  1.615647  6.025315
Sr    -4.939925  -0.509322  2.340041
