30
Energy: -106809.103736 eV PBE+vdW (tier 2 basis)
C    0.463020  -0.335683  0.026326
C    -0.319355  0.552109  0.947565
O    0.051291  1.815757  0.994305
H    0.102610  -1.367257  0.060534
H    1.527630  -0.316760  0.295745
H    0.388654  0.042787  -1.002367
N    -1.309106  0.040438  1.630066
C    -2.084532  0.952353  2.453383
C    -1.296315  1.360563  3.711625
O    -0.820211  2.540362  3.775163
H    -5.444586  -1.148701  3.998006
H    -2.222150  1.921644  1.940968
C    -3.537107  0.435558  2.712159
C    -3.821570  -1.029401  2.594306
N    -4.851520  -1.621381  3.320571
C    -3.335098  -2.025730  1.783079
C    -4.995247  -2.909280  2.980848
N    -4.073799  -3.162836  2.048679
H    -4.180125  0.939229  1.974607
H    -3.887208  0.791312  3.693249
H    -2.526632  -1.990166  1.067729
H    -5.718796  -3.606863  3.385075
H    -3.946098  -4.066696  1.599936
N    -1.044487  0.513760  4.706719
C    -1.369700  -0.906127  4.797517
H    -0.506440  0.917636  5.472057
H    -0.593951  -1.400267  5.391255
H    -1.375215  -1.348258  3.797041
H    -2.335481  -1.064836  5.296433
Sr    0.343522  3.668736  2.104422
