30
Energy: -106809.81226 eV PBE+vdW (tier 2 basis)
C    -0.261621  -0.416871  -0.040001
C    -0.124335  -0.174172  1.424283
O    0.979383  -0.289792  2.019086
H    -0.056805  -1.486168  -0.208124
H    0.501440  0.138404  -0.598281
H    -1.259688  -0.200129  -0.432540
N    -1.218346  0.175029  2.169379
C    -2.195598  1.195134  1.804525
C    -1.491847  2.379717  1.108947
O    -0.294549  2.661702  1.405602
H    -1.075470  0.074668  3.174695
H    -2.963946  0.782358  1.137723
C    -2.907852  1.713372  3.093938
C    -2.142752  1.695708  4.394861
N    -0.779793  1.961056  4.589521
C    -2.731721  1.500475  5.623714
C    -0.590542  1.932157  5.913736
N    -1.742231  1.664736  6.558286
H    -3.812343  1.111369  3.247054
H    -3.259155  2.737053  2.894064
H    -3.755760  1.279659  5.900740
H    0.348046  2.093471  6.434531
H    -1.856887  1.594271  7.566403
N    -2.167257  3.106996  0.229131
C    -3.544004  2.916722  -0.244063
H    -1.651549  3.901905  -0.147352
H    -3.739491  3.665748  -1.015933
H    -4.272085  3.060175  0.563547
H    -3.676739  1.924853  -0.693134
Sr    1.250493  1.896400  2.996668
