30
Energy: -106809.406685 eV PBE+vdW (tier 2 basis)
C    1.157227  -0.926106  1.458456
C    0.404863  -0.990091  2.757119
O    0.895440  -1.324482  3.823898
H    1.924304  -0.143525  1.533436
H    0.522915  -0.722488  0.588167
H    1.687613  -1.874325  1.308599
N    -0.964157  -0.656194  2.694106
C    -1.672769  -0.517323  3.945359
C    -2.841428  -1.482725  4.074622
O    -3.638014  -1.367802  5.072194
H    -1.294153  -0.150326  1.875895
H    -0.921955  -0.878965  4.682139
C    -2.062420  0.950991  4.317720
C    -1.566939  1.411710  5.653257
N    -2.167426  1.064366  6.868676
C    -0.474598  2.199760  5.917342
C    -1.433576  1.644288  7.828356
N    -0.412866  2.329349  7.284916
H    -3.150993  1.093876  4.238136
H    -1.625757  1.610571  3.558182
H    0.246878  2.669691  5.260480
H    -1.611274  1.595846  8.897436
H    0.284408  2.859334  7.801805
N    -2.962128  -2.438944  3.179544
C    -3.951773  -3.510884  3.172551
H    -2.245932  -2.421246  2.449890
H    -4.706859  -3.316092  3.937546
H    -3.462292  -4.472038  3.374232
H    -4.432028  -3.556290  2.188560
Sr    -4.117221  -0.435164  7.046255
