30
Energy: -106809.231686 eV PBE+vdW (tier 2 basis)
C    -0.964294  -0.530388  -0.058464
C    -1.414851  -0.319506  1.360811
O    -2.012454  -1.156243  2.022645
H    -0.438899  0.328953  -0.490919
H    -1.841352  -0.762324  -0.676220
H    -0.312705  -1.412563  -0.094506
N    -1.135099  0.932026  1.915932
C    -1.442474  1.159134  3.309216
C    -2.319401  2.388970  3.504798
O    -1.923890  3.369815  4.234527
H    -0.569284  1.596970  1.399846
H    -2.062897  0.276144  3.568067
C    -0.201394  1.084069  4.240329
C    1.019486  1.862793  3.854863
N    1.275640  3.181265  4.248905
C    2.092658  1.415846  3.121529
C    2.478655  3.497177  3.755885
N    2.989502  2.457574  3.071452
H    0.078931  0.022475  4.262921
H    -0.505876  1.311514  5.275086
H    2.298412  0.453773  2.668319
H    2.999780  4.440870  3.876861
H    3.898986  2.440075  2.616734
N    -3.515014  2.449733  2.944044
C    -4.203416  1.440905  2.133240
H    -4.018954  3.320232  3.110900
H    -5.278519  1.540612  2.311531
H    -3.889489  0.429931  2.411047
H    -4.000453  1.603175  1.067146
Sr    -0.432754  4.477173  5.462703
