30
Energy: -106809.623016 eV PBE+vdW (tier 2 basis)
C    0.859195  1.743670  1.171149
C    0.578405  0.909606  2.385553
O    1.604254  0.309095  2.937616
H    -0.052727  2.185142  0.759559
H    1.333492  1.126160  0.396537
H    1.574957  2.538155  1.423519
N    -0.652006  0.831041  2.829289
C    -0.892480  0.062514  4.057113
C    -0.658010  -1.444045  3.835924
O    0.371911  -2.012614  4.317640
H    -1.726873  2.301768  2.927840
H    -0.172020  0.346435  4.845963
C    -2.324124  0.344207  4.586363
C    -2.634436  1.798295  4.725225
N    -2.330739  2.679354  3.702000
C    -3.278808  2.533545  5.687774
C    -2.750834  3.905684  4.010262
N    -3.336916  3.830231  5.214806
H    -2.472782  -0.154190  5.552530
H    -3.068116  -0.084952  3.895901
H    -3.703148  2.249158  6.641960
H    -2.643729  4.800189  3.409091
H    -3.767854  4.615123  5.696660
N    -1.534552  -2.118176  3.103635
C    -1.433010  -3.538149  2.771387
H    -2.298163  -1.593810  2.685768
H    -0.904736  -4.061605  3.572786
H    -0.896571  -3.680400  1.823508
H    -2.441283  -3.951626  2.671988
Sr    2.558705  -1.312806  4.056653
