30
Energy: -106809.516173 eV PBE+vdW (tier 2 basis)
C    0.564542  0.548070  0.447079
C    -0.049215  0.670815  1.799357
O    0.308144  1.619663  2.594373
H    1.651267  0.425833  0.554791
H    0.398228  1.475803  -0.117025
H    0.163549  -0.296386  -0.121721
N    -0.963133  -0.195854  2.188351
C    -1.606419  -0.225481  3.490697
C    -2.308612  -1.618495  3.514521
O    -2.441191  -2.219323  2.449333
H    -1.282944  -0.989703  1.602865
H    -0.834771  -0.172694  4.274986
C    -2.629967  0.944861  3.671305
C    -2.665801  1.523073  5.047518
N    -1.652181  2.352199  5.544575
C    -3.628146  1.379412  6.016411
C    -2.022765  2.688656  6.786602
N    -3.201746  2.119392  7.095869
H    -3.632971  0.595226  3.396157
H    -2.389738  1.734837  2.943881
H    -4.570028  0.844161  6.016913
H    -1.478451  3.327951  7.473962
H    -3.699856  2.233191  7.975389
N    -2.761795  -2.038652  4.708836
C    -3.459180  -3.313131  4.889020
H    -2.516717  -1.506676  5.536907
H    -2.794524  -4.060862  5.339802
H    -3.783152  -3.670926  3.908078
H    -4.334369  -3.170694  5.532401
Sr    0.329939  3.120736  4.219762
