30
Energy: -106809.225466 eV PBE+vdW (tier 2 basis)
C    -0.865780  1.313676  1.647814
C    -1.025921  0.566592  2.932903
O    -0.267572  0.824108  3.921237
H    -0.191451  2.159618  1.807801
H    -1.827976  1.678832  1.271343
H    -0.434775  0.664832  0.869603
N    -1.967379  -0.396612  3.074989
C    -2.252961  -1.446855  2.085244
C    -0.921484  -2.228832  1.822418
O    0.118117  -1.958469  2.537063
H    -2.061566  -0.705346  4.041832
H    -2.920952  -2.148171  2.607154
C    -3.017832  -0.961228  0.821654
C    -3.877450  -2.017150  0.195470
N    -3.363558  -3.253729  -0.146405
C    -5.200783  -1.957909  -0.174106
C    -4.351517  -3.933711  -0.711481
N    -5.474878  -3.177976  -0.747979
H    -2.311557  -0.567181  0.076007
H    -3.660670  -0.127983  1.131471
H    -5.946312  -1.176756  -0.092684
H    -4.296280  -4.946064  -1.094984
H    -6.368969  -3.464328  -1.135281
N    -0.927332  -3.154494  0.904257
C    0.226240  -3.992907  0.592131
H    -1.873137  -3.340613  0.383805
H    1.100189  -3.378760  0.343269
H    -0.027456  -4.615262  -0.270435
H    0.477692  -4.645057  1.438847
Sr    1.311508  -0.865050  4.125363
