30
Energy: -106809.892988 eV PBE+vdW (tier 2 basis)
C    -0.464099  -1.315251  -0.562783
C    -1.267945  -1.556116  0.668890
O    -0.800248  -2.175788  1.660060
H    -0.957322  -0.667440  -1.293620
H    -0.306958  -2.297392  -1.037286
H    0.529796  -0.928427  -0.309489
N    -2.561412  -1.111857  0.743962
C    -3.012565  0.229462  0.387288
C    -1.927666  1.267686  0.753614
O    -1.200386  1.086124  1.770697
H    -3.095924  -1.542868  1.498972
H    -3.232771  0.300310  -0.688199
C    -4.325827  0.558134  1.169133
C    -4.564845  -0.111858  2.498508
N    -3.623492  -0.365079  3.506382
C    -5.807987  -0.487157  2.955339
C    -4.317937  -0.866801  4.533922
N    -5.628697  -0.945602  4.234984
H    -5.175305  0.297462  0.525426
H    -4.371404  1.650509  1.295366
H    -6.784906  -0.447943  2.488126
H    -3.915501  -1.182069  5.491405
H    -6.359853  -1.288566  4.853208
N    -1.836985  2.340476  -0.018104
C    -0.942351  3.476838  0.208038
H    -2.447170  2.387752  -0.831256
H    -0.320901  3.635322  -0.680838
H    -0.305111  3.263825  1.068912
H    -1.531214  4.382035  0.399637
Sr    -1.059014  -0.566718  3.436704
