30
Energy: -106809.955103 eV PBE+vdW (tier 2 basis)
C    0.661752  0.713626  0.397669
C    0.137369  0.584626  1.787311
O    0.678038  1.189102  2.755150
H    1.701195  0.358766  0.373147
H    0.683142  1.776886  0.123295
H    0.074196  0.159762  -0.341721
N    -0.952683  -0.200772  2.001021
C    -1.471858  -0.299901  3.354300
C    -0.774296  -1.409946  4.168102
O    0.160169  -1.077455  4.951542
H    -1.384648  -0.679828  1.216131
H    -1.097150  0.631726  3.771144
C    -2.965238  -0.105896  3.616387
C    -3.098822  0.543265  4.979310
N    -2.060299  1.254266  5.598961
C    -4.222792  0.621546  5.763784
C    -2.584695  1.747015  6.724407
N    -3.877030  1.385889  6.851226
H    -3.554673  -1.031344  3.572614
H    -3.368168  0.566003  2.842488
H    -5.220518  0.220517  5.633280
H    -2.072866  2.357894  7.460599
H    -4.492561  1.641040  7.619119
N    -1.148055  -2.671158  4.011692
C    -0.511411  -3.796778  4.705134
H    -1.910684  -2.877199  3.373579
H    -1.039393  -4.714083  4.433548
H    -0.566419  -3.651309  5.789929
H    0.540990  -3.880065  4.409114
Sr    0.598410  1.237807  5.159739
