30
Energy: -106809.71852 eV PBE+vdW (tier 2 basis)
C    -0.131683  1.635626  0.679104
C    -0.054194  0.905638  1.979794
O    1.081850  0.529222  2.434268
H    -1.149703  1.954611  0.435993
H    0.242753  0.987583  -0.125330
H    0.530075  2.511058  0.719332
N    -1.186390  0.667011  2.632561
C    -1.283896  0.142579  4.005787
C    -0.843718  -1.335810  4.085009
O    0.368553  -1.616422  4.353158
H    -2.045499  1.227657  2.352034
H    -0.566337  0.689076  4.640204
C    -2.715257  0.395923  4.544826
C    -3.226082  1.776185  4.276029
N    -3.288075  2.237689  2.970335
C    -3.767203  2.712796  5.125557
C    -3.850799  3.434759  3.029502
N    -4.157333  3.752085  4.313677
H    -2.726202  0.180792  5.620217
H    -3.422940  -0.308202  4.074490
H    -3.923328  2.725076  6.197119
H    -4.058398  4.087455  2.188981
H    -4.619426  4.602668  4.620409
N    -1.736937  -2.286564  3.877130
C    -1.464054  -3.723476  3.923869
H    -2.688586  -1.997872  3.664463
H    -2.367687  -4.241369  4.258981
H    -0.649969  -3.918452  4.627223
H    -1.188752  -4.095963  2.928327
Sr    2.392217  -0.771358  3.697952
