30
Energy: -106810.444788 eV PBE+vdW (tier 2 basis)
C    -0.264740  -1.216075  1.207798
C    -0.660153  0.170042  1.611951
O    0.209301  1.033261  1.896082
H    0.342120  -1.661856  2.006694
H    0.375869  -1.156177  0.317439
H    -1.114189  -1.872756  0.993645
N    -1.977084  0.461050  1.640055
C    -2.594009  1.743533  2.005500
C    -1.891829  2.933833  1.319918
O    -1.094906  3.679331  1.956832
H    -2.614299  -0.296255  1.412108
H    -3.597305  1.699403  1.561210
C    -2.826378  1.970620  3.533855
C    -1.904877  1.368967  4.550347
N    -0.596952  1.783580  4.804289
C    -2.254008  0.424184  5.487451
C    -0.187743  1.094761  5.871067
N    -1.161538  0.268935  6.305162
H    -3.825048  1.574930  3.757327
H    -2.897238  3.056418  3.694825
H    -3.179430  -0.113500  5.655385
H    0.780643  1.170016  6.354544
H    -1.104191  -0.341136  7.116105
N    -2.182703  3.187862  0.047722
C    -3.110750  2.476961  -0.836619
H    -1.718520  4.011777  -0.332981
H    -4.145705  2.560664  -0.479692
H    -2.832522  1.421850  -0.940825
H    -3.057218  2.941254  -1.825004
Sr    0.803407  2.956522  3.087808
