30
Energy: -106809.641343 eV PBE+vdW (tier 2 basis)
C    -0.128100  -2.655635  0.096863
C    0.463439  -1.881712  1.225441
O    1.620418  -2.116313  1.652524
H    -0.881469  -2.092506  -0.461680
H    -0.568053  -3.593150  0.467757
H    0.694020  -2.940289  -0.571409
N    -0.210507  -0.863883  1.870128
C    -1.612631  -0.644610  2.247028
C    -1.562852  -0.180569  3.725469
O    -0.590988  -0.545882  4.448736
H    0.423512  -0.150625  2.228971
H    -2.041811  0.150706  1.620596
C    -2.521080  -1.883497  2.106156
C    -2.283179  -3.092295  2.975960
N    -1.058204  -3.537171  3.478549
C    -3.252192  -4.016160  3.295759
C    -1.310146  -4.707050  4.076694
N    -2.616465  -5.019934  3.981853
H    -2.517979  -2.182936  1.048762
H    -3.548132  -1.539730  2.289339
H    -4.313520  -4.049183  3.080173
H    -0.587105  -5.346133  4.573418
H    -3.054626  -5.860242  4.350507
N    -2.539702  0.567082  4.221333
C    -3.731082  1.107838  3.564042
H    -2.434588  0.775630  5.214933
H    -3.936979  2.099763  3.979299
H    -4.602141  0.464407  3.744118
H    -3.574246  1.217724  2.487123
Sr    1.059393  -2.222280  4.026630
