30
Energy: -106809.249716 eV PBE+vdW (tier 2 basis)
C    -1.017532  -3.744794  0.847121
C    -0.706324  -2.279100  0.745644
O    0.092780  -1.875594  -0.161718
H    -0.411174  -4.210227  1.639208
H    -0.753186  -4.228818  -0.097675
H    -2.073670  -3.939346  1.072748
N    -1.190254  -1.326268  1.582808
C    -1.822855  -1.687043  2.840967
C    -3.317838  -1.380951  2.693082
O    -3.662484  -0.777279  1.595045
H    -2.784065  -0.726397  1.087382
H    -1.717774  -2.756255  3.085676
C    -1.200565  -0.845507  3.995928
C    0.256353  -1.107676  4.225877
N    1.265317  -0.725926  3.338307
C    0.834247  -1.686467  5.330599
C    2.416062  -1.076452  3.916026
N    2.190261  -1.656398  5.112207
H    -1.733228  -1.040052  4.936822
H    -1.364699  0.220409  3.768911
H    0.407239  -2.088800  6.241170
H    3.411688  -0.927459  3.511673
H    2.904949  -1.997045  5.749891
N    -4.222818  -1.679867  3.586223
C    -5.663038  -1.398789  3.486703
H    -3.904646  -2.164215  4.423332
H    -6.217394  -2.328594  3.655763
H    -5.890846  -1.006442  2.493432
H    -5.943823  -0.663520  4.250167
Sr    0.809430  0.042648  0.958240
