27
Energy: -103801.960217 eV PBE+vdW (tier 2 basis)
C    -0.068128  0.711661  0.014075
C    -0.101202  0.586955  1.497809
O    0.972949  0.681528  2.181781
H    -1.061361  0.671215  -0.444666
H    0.545612  -0.105858  -0.392301
H    0.425709  1.650770  -0.267622
N    -1.264100  0.361839  2.115216
C    -1.397936  0.034133  3.537751
C    -2.334549  -1.194934  3.806275
O    -1.853157  -2.091778  4.483687
H    -2.088596  0.274767  1.525675
H    -0.441242  -0.409700  3.846131
C    -1.679573  1.247318  4.449477
O    -0.352896  1.913276  4.704195
C    -2.318370  0.908298  5.780711
H    -2.274332  1.990365  3.899439
H    -0.552584  2.656638  5.302755
H    -3.337060  0.530015  5.625630
H    -2.410409  1.807257  6.405916
H    -1.755079  0.142127  6.327555
N    -3.591509  -1.212401  3.303365
C    -4.326327  -0.189930  2.568925
H    -4.081887  -2.083365  3.501644
H    -5.388728  -0.259759  2.826915
H    -4.248722  -0.318161  1.476825
H    -4.004461  0.820954  2.848109
Sr    1.919939  1.274772  4.108730
