27
Energy: -103802.551398 eV PBE+vdW (tier 2 basis)
C    0.041979  -0.982730  0.627584
C    0.020564  -0.135288  1.855569
O    1.099917  0.288861  2.374025
H    -0.892102  -1.526784  0.459477
H    0.866964  -1.699977  0.732034
H    0.268508  -0.374588  -0.261358
N    -1.155341  0.194406  2.445068
C    -2.293584  0.689615  1.686272
C    -2.023627  2.194275  1.356946
O    -0.849759  2.677357  1.531140
H    -1.040393  0.623148  3.364439
H    -2.328385  0.164289  0.720144
C    -3.636652  0.386023  2.400648
O    -4.629842  0.789130  1.445273
C    -3.810696  1.060976  3.755788
H    -3.663837  -0.709507  2.524391
H    -5.516410  0.553393  1.766580
H    -3.752489  2.155604  3.686175
H    -3.072079  0.702259  4.487484
H    -4.792390  0.805124  4.175216
N    -3.028365  2.888569  0.876133
C    -2.996812  4.287046  0.456859
H    -3.924212  2.373896  0.841877
H    -1.971781  4.662350  0.483398
H    -3.626642  4.888069  1.124771
H    -3.391638  4.364907  -0.562868
Sr    1.345102  2.590577  2.196933
