27
Energy: -103801.647707 eV PBE+vdW (tier 2 basis)
C    -0.081898  -1.014059  0.674159
C    -0.724522  -0.038212  1.575017
O    0.012945  0.578114  2.453017
H    0.376017  -1.816967  1.269847
H    0.737199  -0.521364  0.131334
H    -0.790221  -1.446961  -0.039378
N    -2.021875  0.241839  1.548893
C    -2.597435  1.205022  2.451624
C    -2.991456  0.852091  3.765484
O    -3.347698  1.822493  4.581092
H    -2.580371  -0.240156  0.842993
H    -0.623731  1.197372  2.930317
C    -3.028234  2.498683  1.826031
O    -2.428656  3.693746  2.584340
C    -4.530550  2.740954  1.718201
H    -2.580165  2.551638  0.825316
H    -2.053337  4.307493  1.930766
H    -5.047339  2.608905  2.681180
H    -4.974159  2.001517  1.037834
H    -4.756022  3.733570  1.307302
N    -2.988115  -0.381212  4.309855
C    -2.951858  -1.682607  3.651633
H    -3.168582  -0.377925  5.309094
H    -1.934167  -1.982657  3.365826
H    -3.607218  -1.700647  2.772630
H    -3.329127  -2.427901  4.358338
Sr    -3.320419  3.994231  4.808253
