27
Energy: -103802.063029 eV PBE+vdW (tier 2 basis)
C    -0.136946  0.035267  0.024068
C    -0.230264  0.347451  1.477285
O    0.820008  0.616095  2.157467
H    -1.110897  -0.154241  -0.438366
H    0.501900  -0.849125  -0.111729
H    0.353829  0.868000  -0.497932
N    -1.416061  0.343275  2.085819
C    -1.584127  0.490877  3.538666
C    -2.941397  -0.032960  4.073842
O    -2.927175  -0.530806  5.190850
H    -2.217204  0.021041  1.545933
H    -0.870158  -0.190080  4.022981
C    -1.251140  1.938316  4.041867
O    0.007970  1.875848  4.848244
C    -2.317212  2.634505  4.861434
H    -0.985920  2.555262  3.172860
H    -0.250666  1.967009  5.783782
H    -2.592262  2.052553  5.752447
H    -3.228091  2.767294  4.263758
H    -1.979741  3.635597  5.157711
N    -4.036164  0.088637  3.283966
C    -5.351482  -0.381130  3.733642
H    -4.024651  0.724079  2.492056
H    -5.840364  0.359848  4.379786
H    -5.218966  -1.306681  4.301439
H    -5.978102  -0.573825  2.857827
Sr    2.109282  1.242893  3.866298
