27
Energy: -103802.132688 eV PBE+vdW (tier 2 basis)
C    -0.772688  -1.088091  0.099884
C    -1.025148  -0.186653  1.272712
O    -0.163140  0.202961  2.048971
H    -0.116742  -0.565905  -0.609530
H    -1.683252  -1.403448  -0.421896
H    -0.222620  -1.972372  0.444841
N    -2.350556  0.218330  1.473677
C    -2.618382  1.135776  2.554455
C    -3.725725  0.679316  3.493905
O    -4.653832  1.495725  3.853768
H    -3.084299  -0.083490  0.841536
H    -1.664062  1.108347  3.129929
C    -2.749898  2.582409  2.010137
O    -2.824595  3.554451  3.140426
C    -3.906619  2.857383  1.062471
H    -1.804763  2.787970  1.490934
H    -1.949878  3.958371  3.268210
H    -3.904149  3.907571  0.744446
H    -4.892663  2.588708  1.476976
H    -3.797789  2.258833  0.149141
N    -3.729440  -0.546661  3.989071
C    -2.723783  -1.607737  3.854420
H    -4.532620  -0.753972  4.582914
H    -2.799233  -2.248500  4.738167
H    -1.714056  -1.187350  3.812260
H    -2.912025  -2.213659  2.960090
Sr    -4.968040  3.677688  4.223087
