27
Energy: -103802.113013 eV PBE+vdW (tier 2 basis)
C    0.022805  0.584449  0.051411
C    -0.182280  0.475445  1.521069
O    0.803274  0.319825  2.316424
H    -0.907724  0.741924  -0.503598
H    0.502043  -0.338007  -0.307509
H    0.718602  1.406737  -0.163339
N    -1.428948  0.533221  2.029617
C    -1.599226  0.376970  3.467221
C    -2.869515  -0.157680  4.149048
O    -2.735715  -0.242438  5.382901
H    -2.202340  0.736011  1.402007
H    -0.888345  -0.425174  3.725067
C    -1.135145  1.653267  4.243629
O    -0.440961  1.158261  5.439997
C    -2.195409  2.687308  4.568477
H    -0.362261  2.155956  3.631721
H    -1.158963  0.602967  5.871518
H    -2.976556  2.281210  5.220539
H    -2.661268  3.048827  3.641176
H    -1.738308  3.549451  5.067478
N    -3.962397  -0.495616  3.462775
C    -5.170638  -1.039960  4.093156
H    -3.957195  -0.437596  2.449941
H    -6.036829  -0.425642  3.822708
H    -5.032578  -1.024688  5.177030
H    -5.335833  -2.071054  3.758973
Sr    1.678711  0.545028  4.446563
