27
Energy: -103802.643955 eV PBE+vdW (tier 2 basis)
C    -0.566712  -0.391742  0.247259
C    -0.361177  -0.116544  1.698969
O    0.780967  0.216410  2.144191
H    0.136206  -1.168191  -0.082332
H    -0.324854  0.518288  -0.320339
H    -1.588211  -0.701698  0.004449
N    -1.409525  -0.216758  2.530911
C    -1.369334  0.155482  3.944082
C    -0.600833  -0.906584  4.778590
O    0.620290  -0.626103  5.040028
H    -2.311617  -0.472290  2.135340
H    -0.698836  1.021822  4.017122
C    -2.751936  0.656009  4.484703
O    -2.695178  0.339662  5.873391
C    -4.010302  0.148388  3.783465
H    -2.727437  1.750665  4.348790
H    -3.333218  0.887898  6.358858
H    -4.886329  0.547222  4.311960
H    -4.111771  -0.942119  3.771646
H    -4.088980  0.537185  2.756949
N    -1.080852  -2.075748  5.157440
C    -2.415351  -2.656098  5.001565
H    -0.413215  -2.626952  5.697054
H    -3.132427  -2.146541  5.653837
H    -2.353925  -3.710707  5.283581
H    -2.742875  -2.603155  3.957898
Sr    2.336432  0.251200  3.820596
