27
Energy: -103802.823615 eV PBE+vdW (tier 2 basis)
C    -0.611872  -0.726848  -0.003777
C    -0.468828  -0.755183  1.479845
O    0.676056  -0.876345  2.023123
H    -0.044713  0.128778  -0.397056
H    -1.651933  -0.649494  -0.335647
H    -0.161094  -1.632507  -0.431269
N    -1.564751  -0.649193  2.240744
C    -1.525459  -0.462301  3.696002
C    -1.044123  -1.732573  4.423430
O    0.157767  -1.740604  4.853600
H    -2.432577  -0.367822  1.784951
H    -0.751122  0.291338  3.911914
C    -2.854239  0.162487  4.184575
O    -2.990225  1.292443  3.325394
C    -2.797298  0.520559  5.663272
H    -3.686991  -0.539447  4.005747
H    -3.781998  1.798372  3.573520
H    -3.740011  0.990506  5.970986
H    -1.983667  1.228491  5.868675
H    -2.665200  -0.368982  6.295795
N    -1.801986  -2.803950  4.599843
C    -3.173744  -3.089278  4.167321
H    -1.340816  -3.543646  5.131140
H    -3.267457  -4.173086  4.045982
H    -3.387289  -2.618710  3.203974
H    -3.900676  -2.758919  4.919646
Sr    2.107066  -1.226077  3.749845
