27
Energy: -103802.939456 eV PBE+vdW (tier 2 basis)
C    -0.169936  -1.735592  0.513387
C    -0.267889  -0.775056  1.651919
O    0.755525  -0.123478  2.038700
H    0.147568  -1.184152  -0.383160
H    -1.111684  -2.251447  0.301596
H    0.611693  -2.477453  0.723395
N    -1.451819  -0.611005  2.247406
C    -1.784343  0.390473  3.260383
C    -1.245711  -0.022912  4.653804
O    -0.035010  0.315371  4.901300
H    -2.271799  -1.121859  1.906743
H    -1.202715  1.297290  3.041289
C    -3.285546  0.777814  3.089729
O    -3.962249  -0.424737  2.700525
C    -3.453764  1.886662  2.058229
H    -3.661753  1.126120  4.067190
H    -4.841826  -0.204499  2.351175
H    -4.519381  2.110961  1.916074
H    -3.032940  1.601683  1.084432
H    -2.976928  2.816321  2.396320
N    -1.921491  -0.676520  5.580763
C    -3.276726  -1.233826  5.607537
H    -1.380109  -0.809883  6.437332
H    -3.223237  -2.232457  6.055269
H    -3.691100  -1.310896  4.600282
H    -3.923122  -0.604621  6.233113
Sr    1.938290  0.661697  3.805273
