27
Energy: -103802.062467 eV PBE+vdW (tier 2 basis)
C    0.092304  -0.919234  0.997546
C    -0.702564  -0.123243  1.989941
O    -0.490127  -0.085638  3.198481
H    0.381752  -1.873874  1.449648
H    1.020596  -0.374139  0.772433
H    -0.440068  -1.098814  0.056323
N    -1.767649  0.627777  1.496182
C    -2.369876  1.538835  2.433883
C    -3.033183  0.878886  3.654340
O    -3.091962  1.620610  4.704026
H    -1.896839  0.751039  0.496673
H    -1.551910  2.120113  2.904298
C    -3.296636  2.554928  1.731047
O    -3.462705  3.701994  2.676707
C    -4.650184  2.042312  1.286172
H    -2.727912  2.959756  0.880254
H    -3.901714  4.406473  2.166937
H    -5.224154  2.827783  0.777047
H    -5.244187  1.662335  2.127190
H    -4.524831  1.229719  0.557560
N    -3.596302  -0.311775  3.691031
C    -3.686816  -1.376587  2.687313
H    -3.941882  -0.556516  4.620202
H    -4.556820  -1.991938  2.935938
H    -2.786980  -2.004222  2.718676
H    -3.817088  -0.966673  1.685470
Sr    -2.977263  3.804094  5.086683
