27
Energy: -103802.985234 eV PBE+vdW (tier 2 basis)
C    0.741240  -0.874495  3.215575
C    -0.023742  -0.103483  2.188972
O    0.477513  0.119282  1.043143
H    1.746057  -0.450672  3.334133
H    0.871974  -1.901617  2.843370
H    0.245606  -0.915109  4.191033
N    -1.250419  0.329746  2.509745
C    -2.266916  0.887310  1.613238
C    -2.034110  2.396428  1.339647
O    -0.871798  2.770228  0.964616
H    -1.560238  0.145190  3.461125
H    -2.142092  0.407592  0.627953
C    -3.662985  0.453038  2.152128
O    -4.601469  1.067242  1.259892
C    -3.946068  0.800904  3.615023
H    -3.699236  -0.642634  2.027916
H    -5.479470  0.669426  1.385309
H    -3.811305  1.866976  3.837654
H    -3.336431  0.215880  4.319987
H    -4.984922  0.535594  3.850343
N    -3.041135  3.235557  1.437779
C    -2.973137  4.667132  1.151117
H    -3.964240  2.800564  1.569930
H    -3.259265  4.862211  0.108777
H    -1.959838  5.035174  1.329551
H    -3.673614  5.188175  1.811464
Sr    0.974039  2.007357  -0.125415
