27
Energy: -103802.361668 eV PBE+vdW (tier 2 basis)
C    -0.414541  1.810116  0.106534
C    -0.345371  1.209198  1.467985
O    0.790067  0.872556  1.973235
H    0.233260  2.695541  0.059170
H    -1.432860  2.088017  -0.181970
H    -0.021718  1.085424  -0.621213
N    -1.454970  1.016556  2.154825
C    -1.600954  0.389777  3.465422
C    -3.152818  0.172274  3.550533
O    -3.867257  0.945378  2.913556
H    -2.380388  1.324588  1.803933
H    -1.075885  -0.577414  3.482493
C    -1.040325  1.287102  4.615807
O    0.332148  0.789521  4.983997
C    -1.868531  1.374448  5.880437
H    -0.884563  2.295112  4.208931
H    0.323199  0.685279  5.952441
H    -2.856415  1.795753  5.654400
H    -1.393132  2.055169  6.600410
H    -2.022912  0.395167  6.353521
N    -3.579786  -0.843923  4.314759
C    -4.997689  -1.158304  4.506271
H    -2.897230  -1.471337  4.726224
H    -5.240421  -1.167395  5.575310
H    -5.230077  -2.138507  4.073101
H    -5.591793  -0.391264  4.002783
Sr    2.287959  0.598166  3.556104
