27
Energy: -103802.293477 eV PBE+vdW (tier 2 basis)
C    0.118265  1.063418  0.011938
C    -0.069938  0.396896  1.340692
O    0.468380  0.789068  2.382213
H    -0.359245  2.052810  0.054648
H    -0.306885  0.505251  -0.829519
H    1.187895  1.233018  -0.157714
N    -0.893536  -0.711237  1.375561
C    -1.353439  -1.282504  2.635142
C    -0.298835  -2.163750  3.356245
O    -0.605848  -3.327265  3.816984
H    -1.241083  -1.086066  0.499898
H    -1.515128  -0.429527  3.319528
C    -2.725121  -1.958595  2.408728
O    -3.276157  -2.398412  3.719953
C    -2.759069  -3.146548  1.457269
H    -3.402859  -1.179224  2.035538
H    -3.982718  -1.785584  3.983317
H    -3.772396  -3.564607  1.408013
H    -2.033298  -3.931631  1.718760
H    -2.509728  -2.843940  0.431706
N    0.881577  -1.622701  3.517786
C    2.030011  -2.241546  4.170976
H    0.946223  -0.628424  3.179327
H    2.919515  -2.074031  3.553564
H    1.864825  -3.314873  4.292546
H    2.195916  -1.776202  5.151465
Sr    -2.324786  -4.406228  4.703774
