23
Energy: -166137.235949 eV PBE+vdW (tier 2 basis)
N    -0.101101  0.549335  0.474286
C    -0.345162  0.256463  1.949857
C    0.961974  0.543502  2.712419
O    0.867065  0.972744  3.902709
H    0.076398  1.547237  0.287524
H    -0.928369  0.271943  -0.077122
H    -1.095443  0.977514  2.297478
C    -0.883656  -1.194258  2.123699
C    -1.188322  -1.529163  3.608692
C    -0.055234  -2.257083  1.396173
C    -0.066646  -2.193107  4.411223
H    -1.873154  -1.129117  1.630103
H    -2.052188  -2.208533  3.600852
H    -1.545799  -0.621349  4.120058
H    -0.035403  -2.129539  0.303518
H    -0.509716  -3.241241  1.565208
H    0.981389  -2.316157  1.754394
H    0.165753  -3.200199  4.045543
H    -0.381127  -2.295675  5.457105
H    0.871772  -1.618926  4.419450
O    2.073907  0.329218  2.133033
H    0.707185  0.010174  0.124998
Cd    3.080899  0.924396  4.082873
