23
Energy: -166137.387575 eV PBE+vdW (tier 2 basis)
N    -0.233007  1.191832  0.840470
C    0.143142  0.121488  1.855485
C    1.565572  -0.372313  1.538871
O    2.082067  -1.243481  2.304465
H    -1.056199  1.718054  1.169746
H    -0.479286  0.762210  -0.065598
H    0.192296  0.620887  2.835455
C    -0.926022  -0.996956  1.881024
C    -0.840198  -1.846751  3.160295
C    -0.928597  -1.842697  0.602211
C    -0.928912  -1.082601  4.478744
H    -1.885165  -0.443069  1.939186
H    0.079336  -2.458043  3.134385
H    -1.662533  -2.575929  3.095352
H    -0.027708  -2.469245  0.531240
H    -1.014421  -1.259127  -0.328643
H    -1.790011  -2.520763  0.609140
H    -0.994732  -1.785919  5.317051
H    -1.825889  -0.447679  4.524803
H    -0.048113  -0.453950  4.678806
O    2.175357  0.120431  0.536566
H    0.532903  1.859678  0.665387
Cd    3.939122  -1.210053  1.076562
