23
Energy: -166137.01817 eV PBE+vdW (tier 2 basis)
N    0.898272  -0.499517  0.198390
C    0.370858  -0.238811  1.569780
C    1.529102  -0.300822  2.576212
O    2.494617  -1.085212  2.428280
H    0.125710  -0.669504  -0.456031
H    1.433359  0.297041  -0.168572
H    -0.079169  0.765193  1.596233
C    -0.738104  -1.289842  1.936121
C    -1.435964  -0.967744  3.278094
C    -0.246200  -2.744793  1.936378
C    -2.027073  0.440614  3.385602
H    -1.491191  -1.173299  1.137288
H    -0.753780  -1.174224  4.118800
H    -2.251570  -1.696645  3.386815
H    0.460582  -2.975546  2.748737
H    0.128416  -3.116947  0.939704
H    -1.090797  -3.437401  2.078634
H    -1.279027  1.251987  3.428962
H    -2.609362  0.525586  4.311161
H    -2.703789  0.670945  2.551532
O    1.504311  0.416797  3.658149
H    0.725990  1.012220  3.723121
Cd    2.214634  -2.296150  0.630872
