23
Energy: -166136.857022 eV PBE+vdW (tier 2 basis)
N    0.508556  -0.891378  -0.004987
C    0.286900  -0.374377  1.378307
C    1.623493  -0.305685  2.133731
O    2.537452  -1.147919  1.961883
H    0.793027  -0.152824  -0.661022
H    -0.376611  -1.286532  -0.354740
H    -0.124736  0.646714  1.300661
C    -0.721952  -1.295530  2.140010
C    -2.106858  -1.250861  1.443541
C    -0.812346  -0.949730  3.630298
C    -3.090824  -2.305809  1.949761
H    -0.324075  -2.332248  2.053912
H    -2.007904  -1.393295  0.349335
H    -2.529210  -0.241698  1.574498
H    0.130599  -1.095683  4.172425
H    -1.546276  -1.603363  4.112992
H    -1.162172  0.082419  3.784643
H    -4.013718  -2.263476  1.358029
H    -3.377867  -2.136570  2.994419
H    -2.686711  -3.323543  1.862338
O    1.835232  0.604393  3.033528
H    1.093294  1.232909  3.158619
Cd    2.143657  -2.433338  0.259486
