23
Energy: -166136.990847 eV PBE+vdW (tier 2 basis)
N    0.865110  -0.372302  0.212208
C    0.079249  0.035882  1.414361
C    1.055402  0.480321  2.516085
O    2.164102  -0.079681  2.676444
H    1.285861  0.431794  -0.269597
H    0.258549  -0.846401  -0.467068
H    -0.579103  0.877632  1.147276
C    -0.822028  -1.153495  1.908682
C    -1.775485  -0.693799  3.035889
C    -0.040615  -2.411622  2.315833
C    -2.931770  -1.661059  3.305338
H    -1.445686  -1.401264  1.031836
H    -2.199536  0.281914  2.740777
H    -1.208164  -0.529627  3.966956
H    0.541088  -2.898467  1.480317
H    -0.732128  -3.238277  2.541113
H    0.567316  -2.286235  3.225931
H    -3.615083  -1.221269  4.040927
H    -2.594294  -2.618223  3.722262
H    -3.512657  -1.861154  2.395268
O    0.733259  1.411495  3.362636
H    -0.135337  1.832235  3.192982
Cd    2.416014  -1.689190  1.218601
