23
Energy: -166136.900377 eV PBE+vdW (tier 2 basis)
N    0.785330  -0.574990  -0.058566
C    0.592674  -0.450117  1.418161
C    1.907768  -0.859713  2.101163
O    2.584948  -1.826438  1.684079
H    -0.109130  -0.455797  -0.548445
H    1.428601  0.134515  -0.430634
H    0.363342  0.597898  1.667514
C    -0.630565  -1.331900  1.869418
C    -0.980293  -1.151812  3.370771
C    -0.529225  -2.817213  1.484292
C    -0.246387  -2.031034  4.387934
H    -1.469144  -0.898433  1.298694
H    -2.060348  -1.334639  3.462726
H    -0.862145  -0.083189  3.620330
H    -0.563791  -3.011221  0.378513
H    -1.441768  -3.356745  1.787845
H    0.279433  -3.365539  2.000482
H    0.848689  -1.964512  4.345253
H    -0.522060  -3.089303  4.295389
H    -0.537709  -1.727777  5.400776
O    2.346242  -0.233358  3.152252
H    1.788376  0.519308  3.438338
Cd    1.649927  -2.679038  -0.105000
