23
Energy: -166136.871169 eV PBE+vdW (tier 2 basis)
N    1.095812  -1.329367  0.748455
C    0.304624  -0.513801  1.721187
C    1.211507  -0.051484  2.876045
O    2.143170  -0.760153  3.323215
H    0.450708  -1.933686  0.213778
H    1.596034  -0.742866  0.067375
H    -0.063160  0.383093  1.193356
C    -0.898008  -1.348044  2.271888
C    -2.028240  -1.495717  1.219077
C    -1.467476  -0.790554  3.583124
C    -1.690619  -2.103873  -0.141994
H    -0.489515  -2.361147  2.484745
H    -2.499463  -0.510428  1.079547
H    -2.789464  -2.123307  1.704563
H    -0.747739  -0.786617  4.412038
H    -2.309868  -1.415746  3.901138
H    -1.867685  0.226169  3.454892
H    -1.127690  -1.426573  -0.806858
H    -2.615421  -2.313595  -0.697301
H    -1.179645  -3.079820  -0.062149
O    1.005638  1.083434  3.471016
H    0.260806  1.604963  3.105412
Cd    2.538437  -2.479662  2.052134
