23
Energy: -166136.320679 eV PBE+vdW (tier 2 basis)
N    -0.035928  -0.749664  -0.415833
C    -0.003201  -0.348607  0.917131
C    1.511019  -0.358584  1.436654
O    2.005795  0.735038  1.726270
H    -0.258965  -0.088890  -1.155603
H    0.082327  -1.718496  -0.702985
H    -0.314244  0.698395  1.002934
C    -0.824587  -1.231439  1.952540
C    -2.318661  -1.174459  1.521951
C    -0.576159  -0.785305  3.387233
C    -3.041872  0.160043  1.608283
H    -0.485332  -2.276585  1.820726
H    -2.805400  -1.892425  2.206575
H    -2.397261  -1.586856  0.505066
H    0.443749  -0.997258  3.739799
H    -1.244722  -1.339851  4.060811
H    -0.787660  0.282232  3.533801
H    -3.006707  0.598997  2.613153
H    -4.105965  0.016399  1.369778
H    -2.674533  0.895806  0.876685
O    2.215980  -1.454090  1.517436
H    1.717540  -2.278783  1.337241
Cd    4.141437  1.093501  2.444066
