23
Energy: -166137.368878 eV PBE+vdW (tier 2 basis)
N    0.052611  1.031496  0.571709
C    0.339878  0.243997  1.844214
C    1.607526  -0.601808  1.608752
O    2.026921  -1.334436  2.557651
H    0.910931  1.404729  0.138046
H    -0.584062  1.816810  0.772751
H    0.600291  0.984149  2.616944
C    -0.905335  -0.566757  2.272163
C    -0.810050  -0.958784  3.757220
C    -1.198430  -1.736430  1.324099
C    -2.054991  -1.660778  4.304627
H    -1.738317  0.161804  2.194162
H    -0.603822  -0.053888  4.350450
H    0.063459  -1.621440  3.904154
H    -2.191711  -2.149438  1.529233
H    -0.473535  -2.552219  1.459571
H    -1.207254  -1.459625  0.257191
H    -2.956218  -1.048669  4.150519
H    -1.943849  -1.819700  5.383091
H    -2.227036  -2.642275  3.846516
O    2.195845  -0.515723  0.485173
H    -0.407054  0.427803  -0.128746
Cd    3.739202  -1.991819  1.291512
