23
Energy: -166137.388847 eV PBE+vdW (tier 2 basis)
N    0.474125  -1.028548  0.031780
C    0.055599  -0.377195  1.337242
C    1.329402  0.070956  2.082727
O    2.386536  -0.623801  1.956977
H    0.860539  -0.360512  -0.650568
H    1.182728  -1.759607  0.198341
H    -0.522319  0.522174  1.086120
C    -0.800293  -1.375274  2.167115
C    -2.230849  -1.504457  1.568514
C    -0.888386  -0.974374  3.643852
C    -2.375987  -1.954159  0.112646
H    -0.292109  -2.355128  2.105040
H    -2.765908  -0.555513  1.724451
H    -2.734145  -2.242244  2.210328
H    0.082693  -1.039368  4.154326
H    -1.559576  -1.666212  4.165735
H    -1.290983  0.038808  3.772963
H    -3.423053  -2.214871  -0.092832
H    -1.802528  -2.868922  -0.115622
H    -2.157744  -1.161982  -0.626979
O    1.259137  1.106417  2.812653
H    -0.370173  -1.470724  -0.388930
Cd    3.361264  0.786267  3.453190
