23
Energy: -166137.358472 eV PBE+vdW (tier 2 basis)
N    -0.142685  0.231071  0.383244
C    0.129018  -0.188509  1.818554
C    1.629732  -0.526675  1.923710
O    2.187116  -0.460185  3.061946
H    0.231809  1.163644  0.158710
H    -1.167666  0.244679  0.237642
H    -0.073136  0.684895  2.454143
C    -0.785481  -1.377032  2.237128
C    -2.269618  -1.024120  1.906924
C    -0.596936  -1.690509  3.723215
C    -3.257571  -2.120114  2.316704
H    -0.498182  -2.257169  1.635308
H    -2.401923  -0.882316  0.816966
H    -2.536979  -0.074395  2.399310
H    0.446610  -1.905384  3.984729
H    -1.175280  -2.581819  3.987422
H    -0.942809  -0.862201  4.356484
H    -2.981232  -3.097563  1.900101
H    -4.253364  -1.865353  1.930279
H    -3.343624  -2.212264  3.404630
O    2.247708  -0.877746  0.868304
H    0.271066  -0.442625  -0.280423
Cd    4.092598  -1.176621  2.170162
