23
Energy: -166137.196021 eV PBE+vdW (tier 2 basis)
N    0.235772  0.532659  0.895888
C    -0.061991  -0.305961  2.099804
C    1.204391  -1.054916  2.535307
O    2.094891  -1.389538  1.727922
H    0.696349  1.412588  1.157080
H    -0.646768  0.787314  0.436644
H    -0.373075  0.366179  2.915971
C    -1.229025  -1.324847  1.829640
C    -0.882797  -2.606239  1.025619
C    -2.466478  -0.590670  1.291690
C    -0.491500  -2.497899  -0.462019
H    -1.488687  -1.692881  2.835398
H    -1.796192  -3.219287  1.052771
H    -0.134646  -3.210399  1.557761
H    -3.331585  -1.264952  1.318279
H    -2.372867  -0.266442  0.242727
H    -2.724765  0.285996  1.900702
H    0.620825  -2.673490  -0.643596
H    -0.890950  -1.619794  -0.995146
H    -0.843661  -3.356722  -1.057575
O    1.347239  -1.433600  3.773757
H    0.655258  -1.106816  4.385033
Cd    1.546137  -0.833593  -0.326918
