23
Energy: -166137.40746 eV PBE+vdW (tier 2 basis)
N    0.428409  -0.198295  0.079909
C    -0.039791  0.154622  1.483733
C    1.147881  0.699847  2.292991
O    2.309448  0.700737  1.772345
H    1.158659  -0.926132  0.102888
H    -0.373645  -0.575721  -0.450293
H    -0.755710  0.982798  1.373394
C    -0.725195  -1.055642  2.161048
C    0.254936  -2.216279  2.436756
C    -1.958072  -1.474436  1.342106
C    -0.351785  -3.351246  3.263542
H    -1.069999  -0.654730  3.128059
H    1.136562  -1.823256  2.974350
H    0.629648  -2.637044  1.485466
H    -2.604167  -0.622864  1.088961
H    -2.565853  -2.168501  1.935183
H    -1.698851  -2.021586  0.420919
H    -1.150842  -3.872977  2.722447
H    -0.761894  -2.980107  4.212104
H    0.413134  -4.100614  3.500025
O    0.909126  1.138406  3.459320
H    0.806769  0.609541  -0.434512
Cd    3.060232  1.633476  3.699261
