23
Energy: -166136.406389 eV PBE+vdW (tier 2 basis)
N    0.619837  -0.732963  -0.195679
C    0.167508  -0.275939  1.042048
C    1.441341  0.128618  1.948798
O    1.596545  1.323971  2.199207
H    1.028137  -1.655781  -0.323303
H    0.598562  -0.134133  -1.017411
H    -0.376314  0.667794  0.918454
C    -0.692567  -1.287594  1.896313
C    -2.013128  -1.542021  1.128768
C    -0.942545  -0.744494  3.302838
C    -1.923112  -2.301992  -0.174128
H    -0.130716  -2.240661  1.949933
H    -2.566485  -0.597289  1.007998
H    -2.615249  -2.133747  1.846927
H    -1.558254  -1.456330  3.866675
H    -1.485297  0.210167  3.277037
H    -0.024642  -0.609288  3.892919
H    -1.468467  -1.710028  -0.992627
H    -2.934048  -2.528848  -0.552575
H    -1.378921  -3.250660  -0.079520
O    2.303084  -0.763800  2.357857
H    2.050351  -1.692631  2.173879
Cd    3.345243  2.261943  3.373031
