23
Energy: -166136.912021 eV PBE+vdW (tier 2 basis)
N    -0.337902  0.091918  -0.004702
C    -0.315581  0.074064  1.491795
C    0.973609  0.715544  2.047424
O    1.804134  1.345777  1.350575
H    -1.272447  0.335248  -0.351685
H    -0.122477  -0.848260  -0.363987
H    -1.122874  0.747366  1.828410
C    -0.600297  -1.375032  2.021157
C    -1.007135  -1.365253  3.524074
C    0.541715  -2.347916  1.711510
C    -1.861267  -2.576170  3.907999
H    -1.503976  -1.685328  1.469686
H    -1.569216  -0.448089  3.768287
H    -0.096137  -1.397142  4.159237
H    0.771687  -2.436710  0.637802
H    0.265141  -3.359715  2.029746
H    1.470322  -2.083788  2.237771
H    -2.103592  -2.530471  4.978574
H    -1.343375  -3.524881  3.725335
H    -2.813639  -2.582850  3.361033
O    1.205306  0.657183  3.319339
H    0.547852  0.097316  3.804585
Cd    1.280005  1.510653  -0.739037
