27
Energy: -608230.715133 eV PBE+vdW (tier 2 basis)
C    0.861779  0.060121  0.612153
C    0.359943  0.863236  1.754009
O    1.024262  1.833987  2.225725
H    1.760668  -0.473430  0.966101
H    1.193728  0.710617  -0.206304
H    0.147931  -0.690511  0.259116
N    -0.830283  0.562844  2.356846
C    -2.105751  0.451289  1.645443
C    -2.152888  1.450060  0.461481
O    -1.553835  2.568567  0.517813
H    -0.913999  1.022990  3.262503
H    -2.243426  -0.568460  1.254446
C    -3.250861  0.710625  2.651316
C    -3.255545  2.059484  3.376874
O    -2.245897  2.821588  3.456626
N    -4.379090  2.386501  4.000326
H    -3.203572  -0.073452  3.425940
H    -4.214872  0.570469  2.144075
H    -5.200671  1.788538  3.998277
H    -4.416262  3.235440  4.561954
N    -2.846328  1.084233  -0.604147
C    -3.051748  1.894511  -1.808910
H    -3.254501  0.151284  -0.604544
H    -2.563022  1.411248  -2.663676
H    -2.624556  2.887163  -1.653283
H    -4.125803  1.977949  -2.011010
Pb    -0.422969  3.707336  2.228324
