27
Energy: -608230.473838 eV PBE+vdW (tier 2 basis)
C    0.222188  0.150251  0.165040
C    0.111315  0.135989  1.649979
O    1.162483  0.315959  2.355738
H    -0.734717  -0.010918  -0.342071
H    0.940423  -0.617162  -0.154440
H    0.637503  1.120062  -0.145529
N    -1.089995  -0.037711  2.215353
C    -1.354603  0.061180  3.655261
C    -0.973580  -1.252185  4.366134
O    0.246650  -1.449993  4.719168
H    -1.879866  -0.168483  1.586642
H    -0.661484  0.811503  4.059926
C    -2.763959  0.573874  3.959541
C    -2.832262  0.767988  5.486959
O    -1.879208  0.377430  6.170187
N    -3.934827  1.347394  5.984308
H    -3.557437  -0.107619  3.610839
H    -2.927610  1.526478  3.435046
H    -4.688891  1.693780  5.402414
H    -4.002795  1.494116  6.987766
N    -1.851063  -2.222855  4.503935
C    -1.570410  -3.511526  5.148047
H    -2.819220  -2.026977  4.264995
H    -1.494006  -3.377253  6.234943
H    -0.632203  -3.924664  4.765618
H    -2.391449  -4.196228  4.920601
Pb    2.089022  -0.277435  4.319595
