27
Energy: -608230.254899 eV PBE+vdW (tier 2 basis)
C    0.263561  0.725025  0.378773
C    -0.313702  -0.440333  1.124543
O    0.162700  -1.570830  1.131367
H    0.379541  0.444444  -0.676013
H    1.272092  0.927366  0.763339
H    -0.339126  1.637076  0.448750
N    -1.485512  -0.205300  1.852342
C    -1.986396  -1.309615  2.633006
C    -3.504860  -1.372153  2.612944
O    -4.208104  -1.334253  3.698429
H    -1.818027  0.741990  2.007300
H    -1.600899  -2.193882  2.082425
C    -1.339519  -1.360469  4.049780
C    -1.370068  -2.733686  4.669808
O    -2.338070  -3.123598  5.417580
N    -0.383052  -3.568615  4.409650
H    -1.803224  -0.634675  4.731136
H    -0.296235  -1.051497  3.914635
H    0.403130  -3.296019  3.822606
H    -0.386594  -4.511465  4.797033
N    -4.145175  -1.464466  1.462643
C    -3.590173  -1.568481  0.108357
H    -5.163271  -1.454589  1.539248
H    -2.642700  -2.116351  0.114632
H    -3.434496  -0.571355  -0.321300
H    -4.311143  -2.115547  -0.506785
Pb    -4.360563  -2.209127  5.734018
