27
Energy: -608231.413934 eV PBE+vdW (tier 2 basis)
C    -0.617744  0.543476  0.212069
C    -0.379896  -0.090263  1.545023
O    0.696395  -0.714722  1.755048
H    -0.577119  -0.233072  -0.563764
H    0.205687  1.240518  0.003157
H    -1.569843  1.079341  0.139559
N    -1.336423  0.061878  2.485724
C    -1.346889  -0.364048  3.896413
C    0.032971  -0.247412  4.586142
O    0.814756  -1.239863  4.696353
H    -2.143191  0.609422  2.196890
H    -1.983090  0.380508  4.395082
C    -2.063157  -1.716813  4.172162
C    -1.849402  -2.874036  3.213925
O    -0.721462  -3.203579  2.748230
N    -2.917116  -3.594484  2.892836
H    -3.139018  -1.512557  4.241086
H    -1.760581  -2.072780  5.170644
H    -3.845995  -3.384319  3.243847
H    -2.806196  -4.428451  2.318721
N    0.322167  0.927124  5.124096
C    1.556056  1.248369  5.845529
H    -0.370702  1.669550  5.055177
H    2.159965  0.344592  5.947612
H    1.300606  1.634193  6.839373
H    2.115184  2.015876  5.296106
Pb    1.473130  -2.541962  2.921239
