27
Energy: -608231.335218 eV PBE+vdW (tier 2 basis)
C    -1.354235  0.656586  0.413784
C    -0.810216  0.788100  1.799671
O    0.254547  1.435425  1.996580
H    -0.604715  0.159351  -0.217005
H    -1.499249  1.662307  -0.004419
H    -2.297581  0.103332  0.359094
N    -1.512139  0.216996  2.802925
C    -1.249080  0.259521  4.249715
C    -0.687155  1.620099  4.710094
O    0.549058  1.779167  4.960283
H    -2.366426  -0.260048  2.526078
H    -2.244443  0.189091  4.710411
C    -0.477317  -0.961167  4.822802
C    0.696227  -1.529368  4.046306
O    1.593536  -0.821165  3.506060
N    0.789205  -2.851723  3.977976
H    -1.207751  -1.762735  4.990119
H    -0.094645  -0.690116  5.820458
H    0.105931  -3.471951  4.400641
H    1.604261  -3.275737  3.538277
N    -1.536594  2.615260  4.913132
C    -2.997705  2.621655  4.775336
H    -1.099581  3.473622  5.252391
H    -3.470417  1.990219  5.539481
H    -3.302624  2.300317  3.773025
H    -3.344585  3.648025  4.922887
Pb    2.136691  1.404936  3.340897
