27
Energy: -608230.747405 eV PBE+vdW (tier 2 basis)
C    -0.195175  1.131600  0.269165
C    -0.250272  0.691356  1.691070
O    0.729550  0.902416  2.463548
H    0.005603  2.211373  0.239202
H    -1.114824  0.915993  -0.284932
H    0.653378  0.638804  -0.225399
N    -1.378333  0.067215  2.136464
C    -1.418857  -0.321416  3.529481
C    -0.778842  -1.696002  3.797536
O    0.396373  -1.710475  4.291224
H    -2.143078  -0.095299  1.487152
H    -0.674186  0.368061  3.918078
C    -2.579499  0.080190  4.435849
C    -1.955666  0.589684  5.764256
O    -0.719132  0.815277  5.887979
N    -2.787527  0.807655  6.772395
H    -3.300756  -0.720234  4.645803
H    -3.138426  0.916228  3.987796
H    -3.788629  0.656624  6.692665
H    -2.432909  1.178385  7.651779
N    -1.430408  -2.806688  3.505594
C    -0.908723  -4.168097  3.676134
H    -2.365879  -2.718685  3.114574
H    0.088336  -4.116581  4.118277
H    -0.857412  -4.664183  2.699591
H    -1.578624  -4.734130  4.333760
Pb    1.418915  0.329930  4.715959
