27
Energy: -608230.329375 eV PBE+vdW (tier 2 basis)
C    0.399232  1.634691  0.667572
C    0.127492  0.725730  1.815824
O    1.083271  -0.043337  2.225429
H    1.260448  2.276004  0.898424
H    -0.463683  2.255765  0.408120
H    0.682370  1.024911  -0.202915
N    -1.076568  0.712357  2.358577
C    -1.648115  -0.221510  3.323327
C    -3.114659  -0.412570  2.777276
O    -3.536458  0.470059  2.028073
H    -1.863548  1.200928  1.879000
H    -1.086865  -1.166155  3.314457
C    -1.753313  0.373442  4.743784
C    -0.464503  0.799858  5.407324
O    0.615419  0.127249  5.298055
N    -0.485206  1.867479  6.184618
H    -2.201449  -0.381318  5.411748
H    -2.454201  1.219578  4.722207
H    -1.329458  2.417612  6.320236
H    0.340305  2.132435  6.720047
N    -3.829608  -1.476207  3.170298
C    -3.453226  -2.580769  4.045100
H    -4.780247  -1.479918  2.801115
H    -3.771869  -2.407132  5.082911
H    -2.371455  -2.754669  4.020158
H    -3.936492  -3.496603  3.688321
Pb    2.038386  -0.968912  3.956917
