27
Energy: -608230.27271 eV PBE+vdW (tier 2 basis)
C    -0.214196  1.711026  -0.325729
C    0.033041  1.122285  1.018367
O    1.211188  1.250994  1.542530
H    -0.001896  2.788858  -0.295761
H    -1.240306  1.551188  -0.671017
H    0.487112  1.267478  -1.046610
N    -0.933800  0.485402  1.643226
C    -0.896323  -0.201014  2.923378
C    -2.150932  -1.144404  2.828400
O    -2.961211  -0.914216  1.931631
H    -1.859254  0.302377  1.193487
H    0.026103  -0.794575  3.003328
C    -1.031462  0.779505  4.131889
C    0.093128  0.739654  5.135533
O    1.322184  0.694529  4.788176
N    -0.201297  0.781816  6.423204
H    -1.992611  0.627395  4.639145
H    -1.062364  1.810471  3.745138
H    -1.160611  0.824413  6.755925
H    0.542869  0.815753  7.118733
N    -2.286389  -2.126982  3.733761
C    -1.383496  -2.517097  4.808679
H    -3.144232  -2.666042  3.622617
H    -1.627218  -2.015247  5.756272
H    -0.338508  -2.313519  4.544951
H    -1.468429  -3.597167  4.967749
Pb    2.751911  1.039120  3.065999
