27
Energy: -608230.418635 eV PBE+vdW (tier 2 basis)
C    0.854483  2.884789  1.569075
C    0.773402  1.553884  2.240488
O    1.815417  1.046224  2.794968
H    1.217902  3.640972  2.278145
H    -0.100355  3.219242  1.150598
H    1.596332  2.821699  0.759612
N    -0.383299  0.897247  2.223377
C    -0.680503  -0.459329  2.735485
C    -2.222493  -0.616285  2.707565
O    -2.906762  0.016821  3.529079
H    -1.153458  1.366970  1.749727
H    -0.198038  -1.186354  2.065070
C    -0.149849  -0.739359  4.168367
C    -0.159837  0.424791  5.146964
O    0.943353  0.831092  5.682894
N    -1.303487  0.976391  5.457241
H    0.869034  -1.132332  4.111738
H    -0.763950  -1.544688  4.598709
H    -2.145431  0.672587  4.907935
H    -1.347888  1.736670  6.134386
N    -2.718590  -1.437408  1.776316
C    -4.147393  -1.718133  1.619925
H    -2.075811  -1.916427  1.152288
H    -4.337366  -2.784552  1.790564
H    -4.468980  -1.452405  0.606116
H    -4.702751  -1.124325  2.350097
Pb    2.939321  1.062220  4.733270
