27
Energy: -608231.274737 eV PBE+vdW (tier 2 basis)
C    -0.983863  0.969388  -0.121046
C    -0.566261  0.741830  1.293441
O    0.625413  0.398678  1.555050
H    -0.369862  1.771581  -0.552957
H    -2.043054  1.223040  -0.232827
H    -0.766573  0.060727  -0.700338
N    -1.495017  0.877415  2.257517
C    -1.385299  0.569014  3.689609
C    -0.655011  1.693261  4.448780
O    0.381193  2.252861  3.976825
H    -2.419296  1.160511  1.943041
H    -2.425187  0.591813  4.033212
C    -0.886853  -0.892758  3.980093
C    0.394197  -1.105616  4.766842
O    1.467784  -0.480878  4.534443
N    0.377815  -2.040054  5.710752
H    -0.728825  -1.397757  3.015660
H    -1.704177  -1.435150  4.469020
H    -0.448366  -2.589442  5.924293
H    1.241421  -2.276656  6.196456
N    -1.152238  2.101445  5.608412
C    -2.382265  1.676982  6.288828
H    -0.623613  2.860385  6.041647
H    -3.274254  2.042581  5.763146
H    -2.377375  2.111922  7.292242
H    -2.424989  0.587319  6.397431
Pb    2.186557  1.146559  3.052427
