27
Energy: -608230.686334 eV PBE+vdW (tier 2 basis)
C    -0.187642  0.173138  0.172429
C    -0.306417  0.128548  1.656646
O    0.703692  0.349444  2.385298
H    0.550144  -0.574478  -0.150388
H    0.207898  1.154745  -0.122700
H    -1.137600  -0.006660  -0.341912
N    -1.525438  -0.148365  2.203741
C    -1.619526  -0.158054  3.647434
C    -1.228760  -1.504412  4.278691
O    -0.088377  -1.565842  4.851303
H    -2.311363  -0.338064  1.588408
H    -0.750661  0.454420  3.871109
C    -2.664044  0.675873  4.388998
C    -1.925568  1.439665  5.521432
O    -0.665997  1.470186  5.609948
N    -2.679832  2.090757  6.394703
H    -3.493149  0.098055  4.816534
H    -3.102007  1.424359  3.710846
H    -3.693582  2.101858  6.335240
H    -2.243049  2.634367  7.136480
N    -2.005471  -2.571094  4.233453
C    -3.318013  -2.721493  3.607219
H    -1.608001  -3.406377  4.669348
H    -4.025177  -3.134628  4.336122
H    -3.248416  -3.408515  2.754392
H    -3.698473  -1.756665  3.260665
Pb    1.314303  0.279527  4.734786
