27
Energy: -608230.227664 eV PBE+vdW (tier 2 basis)
C    -0.125214  1.048135  0.210465
C    -0.211478  1.108965  1.699586
O    0.031360  2.251050  2.275217
H    -0.868825  1.744242  -0.205483
H    -0.311893  0.045063  -0.185256
H    0.858359  1.402370  -0.125173
N    -0.547166  0.012545  2.344490
C    -0.924140  -0.305068  3.726100
C    -0.378370  0.572651  4.841276
O    0.808170  1.064576  4.807124
H    -0.747928  -0.884493  1.783146
H    -2.024694  -0.267971  3.764153
C    -0.480783  -1.773175  4.012709
C    -0.975862  -2.757304  2.936315
O    -1.113251  -2.393820  1.754541
N    -1.208963  -4.012605  3.332794
H    -0.835899  -2.074145  5.006183
H    0.618782  -1.821091  4.030099
H    -1.088166  -4.325473  4.288804
H    -1.467033  -4.705384  2.633692
N    -1.112337  0.743002  5.929165
C    -2.468260  0.258400  6.222927
H    -0.633580  1.234172  6.685497
H    -3.149892  0.469634  5.391556
H    -2.829776  0.791622  7.106559
H    -2.466522  -0.816521  6.442660
Pb    1.582041  2.855040  3.686155
