27
Energy: -608230.272973 eV PBE+vdW (tier 2 basis)
C    -0.436317  1.595829  -0.370507
C    -0.137294  1.140065  1.014098
O    1.039776  1.376244  1.501995
H    -1.457381  1.352904  -0.680476
H    0.276979  1.128575  -1.064171
H    -0.281995  2.681820  -0.437718
N    -1.058297  0.509283  1.710292
C    -0.963757  -0.060679  3.043518
C    -2.166337  -1.073829  3.055107
O    -3.002888  -0.963985  2.159628
H    -1.979387  0.239852  1.296635
H    -0.009094  -0.595119  3.155523
C    -1.133747  1.012317  4.166024
C    0.005519  1.116780  5.148145
O    1.229995  1.107649  4.782291
N    -0.272289  1.251490  6.433168
H    -2.078432  0.855375  4.701949
H    -1.224270  2.003135  3.693224
H    -1.227718  1.271551  6.778948
H    0.478733  1.383401  7.109395
N    -2.232888  -1.981516  4.042629
C    -1.292357  -2.230984  5.127015
H    -3.061916  -2.572564  3.995312
H    -1.547439  -1.664498  6.034313
H    -0.264566  -1.995179  4.825333
H    -1.315520  -3.296736  5.377454
Pb    2.611888  1.377819  3.007879
