27
Energy: -608229.936666 eV PBE+vdW (tier 2 basis)
C    -0.137532  -0.689375  -0.271895
C    0.164494  -0.119080  1.092301
O    1.213143  0.388230  1.412103
H    0.680948  -0.406659  -0.939835
H    -1.081907  -0.314250  -0.690884
H    -0.180552  -1.788949  -0.246021
N    -0.882240  -0.146175  2.066472
C    -2.053600  -0.980933  2.048513
C    -3.351744  -0.148461  2.050519
O    -4.512189  -0.708419  2.115385
H    -0.529777  0.152201  2.977513
H    -2.064306  -1.513517  1.083397
C    -2.048843  -2.041508  3.213436
C    -2.401551  -3.437084  2.773078
O    -3.558806  -3.731920  2.305655
N    -1.494162  -4.391958  2.855833
H    -2.751141  -1.753596  4.009879
H    -1.049046  -2.035233  3.661520
H    -0.564074  -4.224187  3.230349
H    -1.725064  -5.344030  2.572445
N    -3.228241  1.150558  1.953844
C    -4.299325  2.142433  1.897206
H    -2.251740  1.464440  1.896937
H    -5.267500  1.651764  2.016028
H    -4.258573  2.663612  0.932562
H    -4.150451  2.874687  2.699865
Pb    -5.520936  -2.675476  2.031257
