27
Energy: -608230.285305 eV PBE+vdW (tier 2 basis)
C    -1.675191  1.770702  0.176057
C    -1.134380  1.290984  1.482625
O    -0.040854  1.777778  1.946023
H    -0.920629  1.587441  -0.602488
H    -1.838135  2.856527  0.214867
H    -2.611630  1.282488  -0.112917
N    -1.791861  0.334341  2.134617
C    -1.416664  -0.353351  3.391858
C    -2.661163  -1.171170  3.835377
O    -3.537251  -0.619585  4.519976
H    -2.635612  -0.008805  1.678338
H    -0.573079  -1.022246  3.169624
C    -0.954859  0.579104  4.540886
C    -1.649250  1.925414  4.676705
O    -0.980899  3.022430  4.537454
N    -2.920778  1.946351  4.976815
H    0.120983  0.755876  4.454428
H    -1.102013  0.030400  5.482844
H    -3.412268  1.020599  4.994781
H    -3.413225  2.828047  5.112592
N    -2.753164  -2.444956  3.429006
C    -1.781139  -3.257490  2.692237
H    -3.591735  -2.917047  3.767809
H    -0.952412  -3.580789  3.336407
H    -1.388535  -2.726305  1.817155
H    -2.295739  -4.150863  2.326363
Pb    0.711290  3.492078  3.179056
