27
Energy: -608231.377147 eV PBE+vdW (tier 2 basis)
C    1.357483  -1.885289  1.693371
C    0.582441  -0.703965  2.173785
O    1.183039  0.377104  2.449429
H    1.890858  -1.615384  0.771739
H    0.741119  -2.771527  1.510498
H    2.125234  -2.127730  2.441964
N    -0.747060  -0.840522  2.334639
C    -1.693577  0.119828  2.922243
C    -2.076370  1.208514  1.896825
O    -1.210477  1.890000  1.272818
H    -1.135652  -1.745389  2.082279
H    -2.598393  -0.477265  3.085826
C    -1.252411  0.603541  4.354002
C    -1.129810  2.089357  4.632413
O    -0.378286  2.852880  3.960165
N    -1.798241  2.581977  5.668086
H    -0.258889  0.186387  4.569920
H    -1.935414  0.149696  5.080403
H    -1.665128  3.556589  5.933423
H    -2.387798  2.007909  6.262052
N    -3.371565  1.375675  1.665601
C    -3.931034  2.346402  0.720194
H    -4.028904  0.748020  2.122030
H    -4.880735  2.717783  1.117667
H    -4.108162  1.866755  -0.251204
H    -3.229867  3.174273  0.590350
Pb    0.855597  2.607381  2.020476
