27
Energy: -608230.190301 eV PBE+vdW (tier 2 basis)
C    0.654013  2.451966  0.941072
C    0.230735  1.630712  2.113610
O    0.084774  2.151015  3.273057
H    -0.044686  3.292049  0.822535
H    0.695290  1.886675  0.004105
H    1.647587  2.883307  1.129996
N    -0.012456  0.330800  1.941257
C    -0.428630  -0.680289  2.931225
C    -1.966777  -0.898217  3.068635
O    -2.358726  -1.576651  4.025637
H    0.163098  -0.026670  1.003734
H    -0.083909  -1.626201  2.485847
C    0.309115  -0.620522  4.304282
C    -0.239895  0.191404  5.466977
O    0.433581  1.176974  5.972912
N    -1.350150  -0.192239  6.041182
H    1.347367  -0.313854  4.135642
H    0.353954  -1.659441  4.661914
H    -1.896777  -0.945056  5.573316
H    -1.698951  0.284301  6.871346
N    -2.759354  -0.414120  2.104355
C    -4.201061  -0.671093  2.044940
H    -2.344829  0.100961  1.335530
H    -4.748976  0.276895  1.998309
H    -4.493093  -1.223121  2.941633
H    -4.438351  -1.271600  1.158503
Pb    1.056110  3.074016  5.077446
