27
Energy: -608230.492539 eV PBE+vdW (tier 2 basis)
C    -2.381283  -3.900853  -0.365097
C    -1.624757  -2.917662  0.460776
O    -0.457894  -2.545866  0.081541
H    -2.527118  -3.468288  -1.366433
H    -3.357153  -4.164237  0.055827
H    -1.781795  -4.810707  -0.501618
N    -2.192959  -2.427125  1.564158
C    -1.736931  -1.293941  2.399177
C    -0.724105  -1.808900  3.447308
O    0.287802  -2.505873  3.021296
H    -3.109813  -2.804913  1.798074
H    -1.176109  -0.612733  1.736878
C    -3.032613  -0.589895  2.878578
C    -2.881015  0.669341  3.741132
O    -2.293398  0.617407  4.834545
N    -3.448331  1.792527  3.286695
H    -3.625825  -1.294832  3.484120
H    -3.619021  -0.368090  1.977255
H    -3.980039  1.838739  2.425864
H    -3.432584  2.619533  3.879526
N    -0.885623  -1.532472  4.707178
C    0.006191  -1.951773  5.785372
H    -1.592725  -0.742400  4.925007
H    0.734727  -2.682466  5.428418
H    -0.601032  -2.388837  6.587090
H    0.520445  -1.069130  6.188117
Pb    1.490958  -2.622557  1.176220
