27
Energy: -608230.37547 eV PBE+vdW (tier 2 basis)
C    -0.636477  1.290982  -0.211185
C    -0.332789  0.683023  1.112134
O    0.906327  0.506102  1.446619
H    -0.200299  0.664768  -1.002399
H    -0.152751  2.275320  -0.279957
H    -1.711412  1.399851  -0.385740
N    -1.313426  0.329939  1.916518
C    -1.219495  -0.301267  3.220211
C    -2.672931  -0.849266  3.444752
O    -3.573273  -0.357285  2.768149
H    -2.315445  0.432016  1.652036
H    -0.492489  -1.126845  3.182438
C    -0.839032  0.724301  4.342006
C    0.318480  0.291345  5.200797
O    1.452680  -0.017411  4.695725
N    0.167733  0.234796  6.512112
H    -1.718128  0.954999  4.955835
H    -0.538130  1.672330  3.871124
H    -0.707585  0.486971  6.963055
H    0.954876  -0.015219  7.109848
N    -2.827561  -1.775155  4.403627
C    -4.135691  -2.356094  4.729321
H    -2.004656  -2.219505  4.797787
H    -4.911834  -1.611476  4.531758
H    -4.151300  -2.632762  5.787992
H    -4.331489  -3.245200  4.116497
Pb    2.597098  0.014745  2.737935
