27
Energy: -608230.381519 eV PBE+vdW (tier 2 basis)
C    2.140177  0.989975  0.915693
C    1.310089  0.871614  2.145663
O    1.830054  1.123854  3.291253
H    2.526769  2.015331  0.832564
H    1.591800  0.736323  0.002434
H    3.012849  0.327841  1.009449
N    0.034442  0.490866  2.053769
C    -0.846675  0.355108  3.212037
C    -2.127407  -0.503773  2.965407
O    -3.162826  -0.160604  3.534379
H    -0.360448  0.365200  1.122400
H    -0.265077  -0.180441  3.980610
C    -1.284622  1.744834  3.755509
C    -1.284103  1.733579  5.259159
O    -0.199491  1.984168  5.910319
N    -2.386840  1.422165  5.896381
H    -2.279857  1.984181  3.365278
H    -0.586186  2.523208  3.426389
H    -3.195321  1.108490  5.350795
H    -2.417717  1.381105  6.914163
N    -2.002860  -1.578978  2.168525
C    -3.120309  -2.494446  1.911459
H    -1.080602  -1.870167  1.859807
H    -3.179459  -3.267858  2.688139
H    -2.973959  -2.967334  0.935809
H    -4.053129  -1.923472  1.907106
Pb    1.973214  1.953040  5.372831
