27
Energy: -608230.433988 eV PBE+vdW (tier 2 basis)
C    -0.047950  3.413160  1.471844
C    0.183523  2.287310  2.419234
O    1.356920  2.165713  2.948892
H    0.190188  4.365734  1.963907
H    -1.074046  3.440984  1.092274
H    0.648755  3.309752  0.627109
N    -0.797373  1.438329  2.667607
C    -0.767707  0.162287  3.374652
C    -1.717676  -0.736959  2.492508
O    -2.551204  -0.145815  1.806263
H    -1.663655  1.469001  2.090287
H    0.256425  -0.238535  3.395295
C    -1.386131  0.247502  4.786050
C    -0.724477  1.177089  5.776808
O    0.542761  1.323321  5.837836
N    -1.489208  1.799977  6.655302
H    -1.358079  -0.755854  5.244037
H    -2.449630  0.507794  4.689469
H    -2.500311  1.692828  6.659208
H    -1.072374  2.361442  7.396494
N    -1.574670  -2.063055  2.600274
C    -2.419810  -3.020503  1.878546
H    -0.805216  -2.436138  3.147162
H    -2.801456  -3.774193  2.576063
H    -1.844023  -3.514712  1.086671
H    -3.255735  -2.476626  1.431301
Pb    2.476157  1.610164  4.740905
