27
Energy: -608230.396491 eV PBE+vdW (tier 2 basis)
C    -1.953081  -2.084987  -1.237739
C    -1.679644  -2.064097  0.227836
O    -1.682009  -3.171068  0.879934
H    -1.908166  -1.096250  -1.705750
H    -2.956221  -2.509973  -1.393646
H    -1.247268  -2.760239  -1.739646
N    -1.465493  -0.891700  0.824049
C    -1.389364  -0.544707  2.254324
C    -0.112644  -1.041209  2.961745
O    0.508191  -2.125679  2.628587
H    -1.481182  -0.086914  0.200839
H    -1.303975  0.550244  2.255529
C    -2.687019  -0.856734  3.041969
C    -2.905796  0.222314  4.125536
O    -2.003724  1.021485  4.415432
N    -4.106354  0.233678  4.718595
H    -2.663544  -1.847741  3.516498
H    -3.535665  -0.859894  2.343796
H    -4.864831  -0.382428  4.450686
H    -4.288004  0.925625  5.441221
N    0.304987  -0.284593  3.942678
C    1.467227  -0.521212  4.792630
H    -0.363804  0.485610  4.189959
H    1.133854  -0.711988  5.820888
H    2.089931  0.381480  4.792859
H    2.046431  -1.368361  4.419671
Pb    -0.041830  -4.168661  2.002521
