17
Energy: -567341.867751 eV PBE+vdW (tier 2 basis)
N    -0.777580  0.734787  0.591527
C    -0.239323  -0.133799  1.660720
C    1.222502  -0.538050  1.339121
O    1.691177  -0.614058  0.197262
H    -1.799232  0.817820  0.624499
H    -0.381902  1.682070  0.616709
H    -0.176797  0.443061  2.598830
C    -1.132066  -1.370019  1.949365
C    -1.392142  -2.381921  0.838533
O    -1.076308  -2.258766  -0.363669
O    -2.021342  -3.486037  1.144159
H    -2.113211  -1.015846  2.310635
H    -0.690798  -1.904572  2.805628
O    1.894719  -0.799946  2.427096
H    2.821175  -1.079902  2.239165
H    -2.250847  -3.591911  2.090321
Hg    -0.101026  -0.427911  -1.321900
