17
Energy: -567341.506315 eV PBE+vdW (tier 2 basis)
N    0.855644  -0.530644  0.210940
C    0.563291  -0.369364  1.651377
C    1.859992  -0.580670  2.492595
O    2.776781  -1.327472  2.130144
H    0.009120  -0.655880  -0.354202
H    1.379891  0.263203  -0.175447
H    0.242118  0.672035  1.826797
C    -0.594315  -1.286756  2.139264
C    -0.484982  -2.803774  1.985629
O    0.394833  -3.425422  1.357595
O    -1.412186  -3.542167  2.536917
H    -1.520124  -0.975134  1.624921
H    -0.776281  -1.070807  3.203924
O    1.975854  0.021422  3.644522
H    1.276376  0.674903  3.852252
H    -2.099424  -3.057987  3.038919
Hg    2.146413  -2.498485  0.227854
