17
Energy: -567341.681634 eV PBE+vdW (tier 2 basis)
N    0.059772  -0.481510  0.130490
C    0.232825  -0.100594  1.578360
C    1.761895  -0.147818  1.922403
O    2.067553  -0.180190  3.144720
H    0.773787  -0.050416  -0.475232
H    0.159211  -1.545045  0.126713
H    -0.036479  0.958866  1.710825
C    -0.623971  -0.997154  2.474730
C    -0.372633  -2.496091  2.229878
O    0.166435  -2.860152  1.187511
O    -0.758361  -3.376869  3.123641
H    -1.691872  -0.808422  2.267633
H    -0.443646  -0.725330  3.523933
O    2.570174  -0.101065  0.960052
H    -0.875037  -0.227789  -0.220789
H    -1.178964  -2.992680  3.918375
Hg    4.327312  -0.071741  2.576757
