17
Energy: -567341.907721 eV PBE+vdW (tier 2 basis)
N    0.388976  -0.891846  -0.221855
C    0.244378  -0.069138  1.039158
C    1.592699  0.007185  1.824970
O    1.803329  0.894326  2.604007
H    0.919294  -0.389375  -0.949004
H    0.885864  -1.778064  -0.037788
H    -0.001763  0.955062  0.731292
C    -0.832105  -0.640076  1.963151
C    -2.237731  -0.716507  1.289508
O    -3.188831  -0.552911  2.130201
O    -2.356718  -0.949129  0.075563
H    -0.897169  -0.022893  2.866940
H    -0.613440  -1.672984  2.282860
O    2.379112  -1.028853  1.508356
H    3.223228  -0.986082  2.011369
H    -0.572941  -1.093560  -0.580877
Hg    -4.948184  -0.824156  0.847147
