17
Energy: -567341.41265 eV PBE+vdW (tier 2 basis)
N    -0.097628  -1.369036  0.503862
C    -0.151586  -0.033887  1.233122
C    0.978442  0.060614  2.283494
O    0.859272  0.655624  3.339128
H    -0.580171  -1.319965  -0.406858
H    0.881250  -1.652631  0.331113
H    0.065227  0.738327  0.478077
C    -1.539542  0.224931  1.839848
C    -1.867130  -0.822230  2.886172
O    -1.927774  -0.621939  4.198187
O    -2.069701  -1.992193  2.580680
H    -2.312090  0.160374  1.058832
H    -1.563642  1.251091  2.218777
O    2.078765  -0.539632  1.849160
H    2.825761  -0.438815  2.480953
H    -0.566413  -2.111911  1.060111
Hg    -1.120042  1.039277  5.204342
