17
Energy: -567341.599857 eV PBE+vdW (tier 2 basis)
N    -0.043721  -1.096113  -0.206918
C    -0.075209  -0.380728  1.130589
C    1.258943  0.369958  1.335588
O    1.154944  1.461550  1.966444
H    0.850359  -1.605628  -0.323966
H    -0.127511  -0.431361  -0.993537
H    -0.919556  0.316857  1.117554
C    -0.176296  -1.411821  2.277243
C    0.253102  -0.971404  3.694007
O    -0.674124  -1.324506  4.561368
O    1.318204  -0.455068  4.030734
H    0.470115  -2.276886  2.051699
H    -1.214313  -1.762430  2.354507
O    2.303988  -0.273940  1.085128
H    -0.819920  -1.772009  -0.295918
H    -0.390862  -1.137164  5.484957
Hg    3.190856  1.073692  2.924522
