17
Energy: -567341.938172 eV PBE+vdW (tier 2 basis)
N    0.494895  0.422122  -0.711005
C    0.539012  -0.307573  0.623720
C    1.227685  0.566176  1.696283
O    1.749631  0.071576  2.661170
H    1.420303  0.465637  -1.166163
H    0.198050  1.400632  -0.550653
H    -0.510105  -0.434722  0.933103
C    1.230700  -1.669513  0.482836
C    1.179371  -2.465194  1.804854
O    2.241751  -3.086125  2.121427
O    0.095035  -2.518451  2.446000
H    2.282811  -1.570636  0.189785
H    0.714653  -2.307395  -0.252150
O    1.109625  1.866682  1.397191
H    1.505851  2.423785  2.102491
H    -0.163633  -0.012927  -1.375088
Hg    1.221367  -3.932074  3.959196
