17
Energy: -567341.630069 eV PBE+vdW (tier 2 basis)
N    -0.057943  -0.289894  0.134496
C    0.348969  -0.353305  1.483766
C    1.567161  -1.259705  1.683510
O    2.025541  -1.542570  2.821441
H    -0.165937  -1.127610  -0.433724
H    -0.468663  0.563929  -0.236015
H    0.669811  0.648102  1.818842
C    -0.915362  -0.776620  2.360264
C    -0.725975  -0.709873  3.907573
O    -1.859569  -0.578892  4.476196
O    0.378684  -0.800426  4.472750
H    -1.238889  -1.800564  2.115512
H    -1.734184  -0.101038  2.092442
O    2.129228  -1.694965  0.605479
H    2.929898  -2.241213  0.791773
H    1.379052  -1.178406  3.633267
Hg    -1.730661  -0.469062  6.675892
