17
Energy: -567341.465052 eV PBE+vdW (tier 2 basis)
N    -0.054874  -0.697348  0.227268
C    0.262065  -0.291526  1.603507
C    1.785882  -0.415681  1.966282
O    2.541411  -1.190542  1.379182
H    -1.061785  -1.096362  0.245810
H    -0.003443  0.091750  -0.431083
H    0.017091  0.782717  1.688046
C    -0.541697  -1.129301  2.623365
C    -2.020123  -1.237376  2.243318
O    -2.388108  -1.250605  1.064712
O    -2.805306  -1.357572  3.282214
H    -0.442482  -0.718951  3.635782
H    -0.163820  -2.165918  2.671677
O    2.247763  0.280407  2.965499
H    1.618052  0.916078  3.365249
H    -3.743437  -1.490089  3.013320
Hg    1.523092  -2.183214  -0.513242
