17
Energy: -567342.015153 eV PBE+vdW (tier 2 basis)
N    -0.444974  -0.473087  0.520743
C    -0.165186  -0.246016  1.985370
C    1.329015  0.178191  2.036278
O    1.923104  0.426618  1.009535
H    -1.377065  -0.154530  0.224768
H    0.303993  0.049936  0.007081
H    -0.738482  0.640200  2.304658
C    -0.580287  -1.397029  2.894439
C    0.111871  -2.754405  2.587950
O    0.345603  -3.477126  3.610449
O    0.354074  -3.073736  1.402816
H    -1.656089  -1.622523  2.800917
H    -0.395601  -1.124207  3.939333
O    1.772931  0.245976  3.279857
H    2.688771  0.602572  3.299321
H    -0.327320  -1.475330  0.283089
Hg    1.134694  -5.230160  2.496383
