17
Energy: -567341.103668 eV PBE+vdW (tier 2 basis)
N    0.286150  0.398217  0.293867
C    -0.128702  0.157168  1.606184
C    1.043431  -0.399365  2.512319
O    1.204514  -0.078700  3.688877
H    0.975738  1.115716  0.080201
H    -0.020473  -0.176472  -0.487360
H    -0.377261  1.135616  2.109909
C    -1.353451  -0.788047  1.628281
C    -2.230414  -0.864524  2.875169
O    -2.126721  -0.189945  3.915465
O    -3.223341  -1.717295  2.857442
H    -1.033118  -1.816908  1.393072
H    -2.019039  -0.470723  0.807100
O    1.805253  -1.239316  1.865875
H    2.538126  -1.590399  2.425345
H    -3.313073  -2.235683  2.031454
Hg    -0.519621  1.337658  4.539798
