17
Energy: -567341.593902 eV PBE+vdW (tier 2 basis)
N    -0.207511  -0.112048  -0.111419
C    0.068452  0.143521  1.353117
C    1.603343  0.458636  1.411741
O    2.251504  0.309908  0.398801
H    0.674518  0.171205  -0.607337
H    -1.019343  0.405241  -0.474010
H    -0.485974  1.046449  1.652640
C    -0.378799  -1.005295  2.258998
C    0.324514  -2.361947  1.961791
O    0.718253  -3.003181  2.987465
O    0.432227  -2.747699  0.776573
H    -1.452738  -1.220946  2.132667
H    -0.228472  -0.747112  3.312890
O    2.139619  0.835275  2.557554
H    1.505857  1.058821  3.266488
H    -0.323710  -1.123555  -0.298636
Hg    1.460260  -4.782271  1.853680
