17
Energy: -567341.431734 eV PBE+vdW (tier 2 basis)
N    0.218375  0.021473  0.149791
C    -0.306797  -0.115526  1.469541
C    0.846227  -0.407321  2.441339
O    1.294385  -1.558781  2.656492
H    1.142472  0.434729  0.027757
H    -0.437995  0.300978  -0.579892
H    -0.763710  0.839235  1.826697
C    -1.518564  -1.086141  1.572651
C    -1.230400  -2.570378  1.233695
O    -2.251717  -3.148214  0.734772
O    -0.132610  -3.126230  1.467761
H    -2.314813  -0.727036  0.909187
H    -1.934566  -1.071359  2.593664
O    1.339881  0.644070  3.008896
H    2.091483  0.436782  3.614699
H    0.709891  -2.350699  2.097456
Hg    -1.854542  -5.281583  0.358494
