29
Energy: -34178.3521872 eV PBE+vdW (tier 2 basis)
C    0.775003  0.032786  0.226283
C    0.425203  0.099276  1.676677
O    1.342886  0.252073  2.538443
H    -0.089080  -0.106725  -0.431007
H    1.483603  -0.792740  0.071345
H    1.298887  0.956324  -0.056792
N    -0.868778  -0.007701  2.017199
C    -1.555118  -0.022519  3.334171
C    -1.310661  1.255733  4.148746
O    -0.180125  1.480907  4.691563
H    -1.497532  -0.136376  1.228745
H    -2.613749  -0.018148  3.052685
C    -1.390886  -1.331566  4.170116
C    -0.010601  -1.638522  4.774330
C    -2.472158  -1.374289  5.259879
H    -1.601534  -2.134698  3.445810
H    -0.019879  -2.642305  5.218524
H    0.213144  -0.968337  5.628711
H    0.791810  -1.662066  4.018827
H    -2.439292  -2.333501  5.790177
H    -3.480246  -1.276861  4.836629
H    -2.334602  -0.583201  6.011845
N    -2.299838  2.115169  4.332600
C    -3.678925  2.072384  3.828283
H    -2.055976  2.908631  4.927340
H    -4.150549  3.029420  4.067812
H    -4.252899  1.274237  4.314685
H    -3.700090  1.949756  2.739564
Ca    1.788272  0.675544  4.561600
