29
Energy: -34177.6221842 eV PBE+vdW (tier 2 basis)
C    -0.492337  0.332408  -0.984230
C    -0.259163  -0.024120  0.440663
O    0.918939  -0.266231  0.868858
H    0.130018  1.184721  -1.287529
H    -1.542597  0.518766  -1.223123
H    -0.147990  -0.523801  -1.587195
N    -1.288150  -0.104387  1.313301
C    -2.300861  0.949978  1.480418
C    -1.527938  2.266256  1.714554
O    -0.347719  2.211386  2.227966
H    -1.045777  -0.565273  2.192863
H    -2.914288  1.028264  0.572892
C    -3.217021  0.541218  2.679757
C    -4.190698  1.636605  3.122364
C    -3.965911  -0.752155  2.331940
H    -2.531120  0.344631  3.526080
H    -4.763011  1.272626  3.983913
H    -4.920445  1.875084  2.337446
H    -3.691217  2.559641  3.443792
H    -4.528998  -1.096798  3.207566
H    -3.302935  -1.571663  2.026394
H    -4.687539  -0.581473  1.520868
N    -2.029443  3.442173  1.389666
C    -3.296399  3.788034  0.738742
H    -1.433576  4.233786  1.639550
H    -3.977628  4.248654  1.463978
H    -3.774835  2.903944  0.312561
H    -3.088461  4.506082  -0.062547
Ca    1.533106  1.191187  2.338272
