29
Energy: -34175.5751565 eV PBE+vdW (tier 2 basis)
C    0.041488  -0.966431  2.548467
C    -0.586353  -0.644193  3.872588
O    0.004585  -1.252738  4.924604
H    1.121714  -0.773174  2.594683
H    -0.380639  -0.390782  1.719527
H    -0.092611  -2.034453  2.325261
N    -1.593441  0.115659  4.116254
C    -2.346249  0.804023  3.067800
C    -2.943087  1.994474  3.819231
O    -3.010770  1.851117  5.114485
H    -2.455209  0.991838  5.248423
H    -1.714261  1.168309  2.242323
C    -3.465123  -0.148316  2.480433
C    -4.440810  -0.651172  3.551507
C    -4.204292  0.446941  1.279240
H    -2.879562  -1.010528  2.117940
H    -5.084627  0.153444  3.936813
H    -3.925695  -1.116998  4.402021
H    -5.103957  -1.408301  3.113977
H    -4.821002  -0.334428  0.816191
H    -3.523056  0.819557  0.501843
H    -4.891734  1.252879  1.571273
N    -3.402331  3.111673  3.306946
C    -3.323136  3.613878  1.929673
H    -3.798537  3.756633  3.998186
H    -2.881271  4.616810  1.958158
H    -4.326506  3.672556  1.492575
H    -2.696979  2.962372  1.317379
Ca    0.828450  -2.156648  6.451199
