29
Energy: -34176.5942225 eV PBE+vdW (tier 2 basis)
C    0.467980  1.193992  0.724108
C    -0.049663  0.264130  1.769070
O    0.745593  -0.048104  2.778078
H    0.734101  2.157900  1.180645
H    -0.269200  1.372287  -0.064912
H    1.376678  0.775317  0.269056
N    -1.246426  -0.224316  1.678508
C    -1.993299  -1.155012  2.525680
C    -3.141619  -1.560548  1.540531
O    -3.280914  -0.869832  0.518038
H    -1.885783  -0.042200  0.841664
H    -1.364770  -2.026075  2.765655
C    -2.488326  -0.475049  3.840812
C    -3.467757  0.672340  3.575121
C    -3.062162  -1.498098  4.828402
H    -1.576788  -0.049215  4.300791
H    -3.730334  1.168611  4.517194
H    -4.401607  0.305545  3.128057
H    -3.054597  1.435615  2.902927
H    -3.207128  -1.027892  5.808966
H    -2.403145  -2.367204  4.972258
H    -4.050100  -1.858958  4.513313
N    -3.903363  -2.611506  1.843591
C    -5.015549  -3.043618  0.991572
H    -3.720313  -3.126817  2.696731
H    -5.843611  -2.325884  1.040797
H    -5.360229  -4.020771  1.339631
H    -4.680319  -3.122256  -0.048278
Ca    2.181281  -0.238496  4.125269
