29
Energy: -34175.8243446 eV PBE+vdW (tier 2 basis)
C    0.579464  0.866913  2.845744
C    0.066745  -0.003795  3.948899
O    0.920296  -0.554856  4.750281
H    0.504754  1.921307  3.156166
H    0.018424  0.746126  1.911052
H    1.638466  0.649497  2.673172
N    -1.228204  -0.284636  4.215506
C    -2.312162  0.089308  3.297367
C    -2.570912  1.581568  3.424080
O    -2.429607  2.136450  4.611835
H    -2.022742  1.467855  5.211912
H    -2.049501  -0.141870  2.252136
C    -3.603476  -0.720728  3.671455
C    -4.848021  -0.285510  2.885719
C    -3.356066  -2.221913  3.473752
H    -3.790672  -0.527489  4.743616
H    -5.119751  0.761809  3.070199
H    -5.710176  -0.887397  3.198668
H    -4.726543  -0.439749  1.804114
H    -3.119222  -2.468358  2.428771
H    -4.247563  -2.794706  3.758722
H    -2.530622  -2.624250  4.091724
N    -2.936454  2.393390  2.465349
C    -3.191319  2.111125  1.046375
H    -3.082553  3.366127  2.761919
H    -4.268092  2.179233  0.848357
H    -2.834228  1.115128  0.776481
H    -2.665198  2.863877  0.448203
Ca    -0.448066  -1.965455  5.578423
