29
Energy: -34177.0731925 eV PBE+vdW (tier 2 basis)
C    0.644054  1.643099  0.645341
C    -0.013985  0.712370  1.607015
O    0.114182  0.894094  2.866517
H    1.720507  1.689252  0.858263
H    0.243487  2.653429  0.812461
H    0.490596  1.365829  -0.402234
N    -0.744586  -0.306536  1.135612
C    -1.600060  -1.204608  1.932687
C    -0.726987  -2.237224  2.692293
O    -0.274077  -1.860201  3.836992
H    -0.828215  -0.395691  0.121398
H    -2.000248  -0.593974  2.756915
C    -2.842522  -1.697453  1.115770
C    -4.042241  -0.793007  1.447973
C    -2.638108  -1.766211  -0.407296
H    -3.078220  -2.705548  1.490499
H    -4.293220  -0.825336  2.517005
H    -4.930787  -1.122461  0.894898
H    -3.849556  0.252153  1.162852
H    -2.648751  -0.764725  -0.864863
H    -3.480205  -2.304662  -0.860181
H    -1.728768  -2.291259  -0.728809
N    -0.417695  -3.455911  2.279889
C    -0.702095  -4.174657  1.027402
H    0.144568  -3.968485  2.964941
H    -0.340612  -3.608790  0.163268
H    -1.770857  -4.390741  0.924662
H    -0.159043  -5.122900  1.068993
Ca    0.324443  -0.030846  4.766738
