29
Energy: -34176.7137988 eV PBE+vdW (tier 2 basis)
C    -0.154608  2.474519  -0.262722
C    -0.068217  1.160753  0.431920
O    1.070076  0.662739  0.738376
H    0.224209  3.284808  0.376729
H    -1.160037  2.714431  -0.618350
H    0.527245  2.425256  -1.125527
N    -1.181940  0.455340  0.741111
C    -2.335228  1.034625  1.438495
C    -1.839101  1.469741  2.850793
O    -0.665352  1.141881  3.259087
H    -0.991854  -0.513207  1.015147
H    -2.667484  1.933748  0.897385
C    -3.509512  0.001609  1.457525
C    -3.207727  -1.226769  2.327924
C    -4.855422  0.639236  1.829593
H    -3.578807  -0.316815  0.403794
H    -2.308856  -1.782357  2.017129
H    -4.035034  -1.943904  2.253224
H    -3.106134  -0.964201  3.391967
H    -5.666035  -0.059575  1.586155
H    -5.054980  1.561124  1.264395
H    -4.950928  0.838634  2.907623
N    -2.653973  2.176616  3.610385
C    -2.378972  2.634904  4.979221
H    -3.565399  2.415361  3.216108
H    -1.614817  1.998568  5.432032
H    -3.304205  2.568708  5.560877
H    -2.038263  3.678574  4.964654
Ca    1.357357  0.494653  2.873950
