29
Energy: -34176.4981374 eV PBE+vdW (tier 2 basis)
C    0.371810  -0.306174  1.100457
C    -0.414895  0.454646  2.108815
O    0.137439  1.394354  2.780098
H    -0.040456  -1.292085  0.868794
H    1.424507  -0.377109  1.393464
H    0.339917  0.283514  0.167368
N    -1.725483  0.194101  2.328644
C    -2.271166  -1.164209  2.553288
C    -1.347365  -1.832152  3.618573
O    -0.619232  -1.097403  4.384132
H    -2.196383  0.930897  2.857373
H    -3.224892  -0.981297  3.077885
C    -2.634526  -1.994032  1.276894
C    -3.778536  -2.986296  1.570483
C    -3.061833  -1.065860  0.129033
H    -1.743000  -2.560773  0.955391
H    -3.972026  -3.596919  0.680147
H    -4.707301  -2.448082  1.809606
H    -3.605266  -3.691668  2.397162
H    -3.358581  -1.673058  -0.735055
H    -2.264319  -0.391629  -0.203076
H    -3.929786  -0.452882  0.411465
N    -1.343761  -3.143937  3.736872
C    -0.597003  -3.918010  4.736848
H    -1.931217  -3.664332  3.082299
H    -1.214443  -4.765576  5.051797
H    -0.374374  -3.285185  5.599372
H    0.335678  -4.296605  4.298317
Ca    0.398493  0.755762  4.825554
