29
Energy: -34175.7467792 eV PBE+vdW (tier 2 basis)
C    0.996013  -0.092012  2.847561
C    0.180671  -0.347270  4.074048
O    0.819667  -0.754039  5.133507
H    1.768268  0.648982  3.097088
H    0.429560  0.254245  1.978822
H    1.530759  -1.015654  2.585559
N    -1.143788  -0.221286  4.231779
C    -2.054953  0.130864  3.163726
C    -2.590949  1.534937  3.349679
O    -2.754010  1.922263  4.602441
H    -3.127943  2.825040  4.697683
H    -1.554726  0.113262  2.183604
C    -3.261661  -0.887060  3.066715
C    -2.779776  -2.162207  2.365020
C    -3.909997  -1.196374  4.423107
H    -4.032589  -0.414929  2.434035
H    -1.959063  -2.641646  2.919690
H    -2.426117  -1.961673  1.345056
H    -3.599222  -2.888806  2.293520
H    -4.154408  -0.305291  5.018037
H    -3.278845  -1.879476  5.022560
H    -4.847134  -1.747757  4.270462
N    -2.911220  2.312053  2.341250
C    -2.758268  2.008603  0.899994
H    -3.311101  3.231448  2.549905
H    -3.131991  2.871783  0.342763
H    -3.348647  1.128346  0.623925
H    -1.700622  1.861582  0.652474
Ca    -0.908906  -1.065930  6.323990
