29
Energy: -34175.7998136 eV PBE+vdW (tier 2 basis)
C    0.725348  1.107362  3.167946
C    0.172837  -0.025038  3.973265
O    1.005217  -0.775998  4.622772
H    1.662308  1.444029  3.626002
H    0.036829  1.953639  3.069379
H    0.972214  0.743106  2.158164
N    -1.123967  -0.385734  4.081510
C    -2.171650  0.216709  3.245360
C    -2.532895  1.589401  3.787621
O    -2.426210  1.796465  5.085299
H    -1.991202  1.004700  5.479841
H    -1.831735  0.325197  2.203924
C    -3.424450  -0.739295  3.231065
C    -4.036439  -0.983622  4.617351
C    -4.499840  -0.312450  2.226466
H    -2.987337  -1.686264  2.862482
H    -4.567488  -0.101092  5.002761
H    -3.298728  -1.275668  5.383943
H    -4.774493  -1.793834  4.559843
H    -5.026153  0.598772  2.544510
H    -5.261261  -1.098922  2.148663
H    -4.094616  -0.160914  1.217439
N    -2.973685  2.608476  3.093506
C    -3.141392  2.757301  1.640607
H    -3.205036  3.436388  3.656045
H    -2.681152  3.706526  1.343075
H    -4.209047  2.780237  1.391816
H    -2.658892  1.936066  1.106907
Ca    -0.379087  -2.327544  5.071438
