29
Energy: -34175.805306 eV PBE+vdW (tier 2 basis)
C    0.602608  0.886522  2.862673
C    0.028720  -0.199930  3.715973
O    0.836605  -1.031086  4.292734
H    1.677178  0.721550  2.738820
H    0.458303  1.863679  3.348614
H    0.123468  0.927559  1.875154
N    -1.283024  -0.418798  3.958435
C    -2.337320  0.307593  3.238517
C    -2.490546  1.698724  3.832734
O    -2.225400  1.860508  5.114522
H    -1.841307  1.015295  5.446740
H    -2.089315  0.406258  2.170289
C    -3.679286  -0.512109  3.332515
C    -4.187890  -0.706696  4.767473
C    -4.787895  0.035060  2.427269
H    -3.376948  -1.494837  2.924920
H    -5.012523  -1.430715  4.775758
H    -4.581428  0.223674  5.202482
H    -3.420374  -1.087158  5.462933
H    -4.459526  0.152433  1.386291
H    -5.183907  0.994147  2.790549
H    -5.632762  -0.665202  2.418155
N    -2.887484  2.776765  3.205380
C    -3.196292  2.981184  1.783250
H    -2.962389  3.610292  3.801294
H    -4.272070  3.154330  1.661042
H    -2.896331  2.114665  1.191031
H    -2.647206  3.866293  1.441409
Ca    -0.654658  -2.430001  4.886046
