29
Energy: -34175.7808513 eV PBE+vdW (tier 2 basis)
C    -0.883672  0.302700  -0.187701
C    -1.057321  0.679300  1.242147
O    -0.618118  1.874709  1.622942
H    0.186229  0.160492  -0.400487
H    -1.241020  1.119648  -0.828520
H    -1.414529  -0.617181  -0.447886
N    -1.605674  -0.071017  2.148681
C    -2.211307  -1.411208  2.089352
C    -3.020023  -1.396921  3.431871
O    -2.760139  -0.486720  4.246894
H    -1.783510  0.251759  3.156033
H    -2.896429  -1.474200  1.229990
C    -1.129570  -2.537363  2.003522
C    -0.231036  -2.582118  3.245126
C    -1.756278  -3.904727  1.696345
H    -0.506120  -2.266616  1.133301
H    0.265081  -1.621307  3.442809
H    0.556557  -3.333567  3.106925
H    -0.795770  -2.860941  4.146297
H    -2.452385  -3.867909  0.845703
H    -2.274597  -4.329529  2.567335
H    -0.963642  -4.616709  1.432372
N    -3.927695  -2.355542  3.625202
C    -4.729368  -2.483980  4.847549
H    -4.075009  -3.039076  2.885971
H    -5.795405  -2.398786  4.604401
H    -4.443899  -1.683938  5.535265
H    -4.539750  -3.457072  5.316873
Ca    -0.010600  3.667820  2.222686
