29
Energy: -34175.7570478 eV PBE+vdW (tier 2 basis)
C    1.013024  0.086450  2.896774
C    0.255908  -0.416661  4.088376
O    0.926691  -0.894440  5.091865
H    0.743668  1.124357  2.656080
H    0.804103  -0.535368  2.013678
H    2.085561  0.038023  3.107719
N    -1.077825  -0.440802  4.231743
C    -1.982625  -0.005992  3.188125
C    -2.377285  1.448167  3.351433
O    -2.431976  1.886440  4.595088
H    -2.718178  2.821701  4.681516
H    -1.516477  -0.093440  2.193645
C    -3.286326  -0.897353  3.147702
C    -2.975529  -2.207405  2.414533
C    -3.892547  -1.147246  4.535665
H    -4.038556  -0.346456  2.558205
H    -2.170848  -2.768411  2.913958
H    -2.668388  -2.032630  1.374906
H    -3.863907  -2.851602  2.392043
H    -3.991870  -0.242833  5.151555
H    -3.318142  -1.910912  5.093613
H    -4.896489  -1.579414  4.430659
N    -2.680499  2.218935  2.331672
C    -2.650808  1.851028  0.898375
H    -2.997611  3.172916  2.527285
H    -2.803573  2.767085  0.321445
H    -3.454553  1.143590  0.664387
H    -1.675983  1.427588  0.632910
Ca    -0.787961  -1.472316  6.222045
