29
Energy: -34175.654929 eV PBE+vdW (tier 2 basis)
C    -1.108836  0.389044  0.330962
C    -1.017365  0.594083  1.813991
O    -0.530097  1.804230  2.168890
H    -0.098968  0.356879  -0.102015
H    -1.638916  1.236402  -0.124005
H    -1.622658  -0.535674  0.054874
N    -1.330396  -0.215296  2.763243
C    -1.854485  -1.561653  2.554917
C    -2.881980  -1.685519  3.683278
O    -2.737579  -0.848909  4.670714
H    -2.002217  -0.229133  4.291654
H    -2.362549  -1.705997  1.585895
C    -0.718878  -2.647036  2.711927
C    -1.259274  -4.080873  2.613985
C    0.387327  -2.418289  1.674336
H    -0.287471  -2.498154  3.716685
H    -0.419014  -4.786511  2.633980
H    -1.793395  -4.255155  1.666555
H    -1.908872  -4.359041  3.453689
H    1.184586  -3.156490  1.829018
H    0.849109  -1.426805  1.763621
H    0.016873  -2.549878  0.646968
N    -3.851816  -2.564996  3.703933
C    -4.825280  -2.743392  4.793896
H    -3.908289  -3.206966  2.912854
H    -4.596348  -3.665305  5.342977
H    -5.828105  -2.815431  4.359445
H    -4.772181  -1.888128  5.471224
Ca    0.260072  3.518991  2.680511
