29
Energy: -34177.4038541 eV PBE+vdW (tier 2 basis)
C    0.375503  0.330566  -0.129696
C    -0.209752  1.065326  1.028502
O    0.105478  2.287075  1.241554
H    0.072095  0.844622  -1.053321
H    0.061407  -0.716506  -0.184364
H    1.471471  0.382116  -0.082605
N    -1.075082  0.438212  1.835204
C    -1.872547  1.068341  2.910969
C    -0.953018  1.303728  4.133303
O    -0.243407  2.370173  4.171438
H    -1.295776  -0.532609  1.610615
H    -2.151583  2.074880  2.555827
C    -3.187401  0.290022  3.168735
C    -4.044260  1.028079  4.211579
C    -3.979643  0.104263  1.862736
H    -2.935709  -0.718579  3.553132
H    -4.376068  2.002959  3.825346
H    -3.532230  1.197973  5.167885
H    -4.946975  0.444053  4.428541
H    -4.227677  1.074226  1.407141
H    -4.925446  -0.406951  2.080325
H    -3.461820  -0.504171  1.109303
N    -0.892697  0.399403  5.092126
C    -0.063929  0.475917  6.302087
H    -1.509990  -0.409450  5.003440
H    0.439030  1.444503  6.334536
H    0.676832  -0.333476  6.290377
H    -0.707329  0.361614  7.182517
Ca    0.569520  3.727691  2.728769
