29
Energy: -34175.5888646 eV PBE+vdW (tier 2 basis)
C    0.445506  -0.425038  2.313731
C    -0.136558  -0.352386  3.692993
O    0.667181  -0.584368  4.689990
H    0.116061  -1.346637  1.811804
H    1.536217  -0.454289  2.398132
H    0.158248  0.426757  1.686135
N    -1.415197  -0.105635  4.025651
C    -2.433871  0.085131  2.983907
C    -2.988808  1.486121  3.154866
O    -3.715662  1.794148  4.218049
H    -4.048747  0.972579  4.644055
H    -1.971753  0.038773  1.989368
C    -3.547696  -1.020240  2.985495
C    -2.922699  -2.338754  2.506870
C    -4.288624  -1.222527  4.318613
H    -4.290248  -0.703882  2.232622
H    -2.164644  -2.713331  3.210832
H    -2.452473  -2.231479  1.520389
H    -3.695232  -3.112096  2.414694
H    -4.999009  -0.422351  4.591120
H    -3.605089  -1.409683  5.164191
H    -4.925982  -2.114732  4.252563
N    -2.776319  2.487291  2.338561
C    -1.980606  2.541802  1.102193
H    -3.220755  3.368453  2.623841
H    -2.456310  3.266578  0.433555
H    -1.963994  1.570008  0.603067
H    -0.961760  2.881449  1.327987
Ca    -0.792178  -0.544661  6.202729
