29
Energy: -34175.7177353 eV PBE+vdW (tier 2 basis)
C    -1.183626  -0.020134  -0.292365
C    -1.001403  0.446204  1.108346
O    -0.481541  1.655514  1.292094
H    -1.716629  -0.971711  -0.353560
H    -0.200340  -0.141950  -0.769266
H    -1.734253  0.742950  -0.859366
N    -1.316071  -0.228247  2.174224
C    -1.968956  -1.530621  2.390108
C    -2.740266  -1.212765  3.716466
O    -2.295333  -0.283034  4.420041
H    -1.293226  0.215597  3.140649
H    -2.654097  -1.762423  1.561258
C    -0.915546  -2.673134  2.583306
C    -1.606082  -4.018189  2.857314
C    0.034051  -2.788433  1.383955
H    -0.323029  -2.399778  3.473712
H    -2.155231  -4.028809  3.806138
H    -0.846834  -4.807551  2.924357
H    -2.289294  -4.299723  2.040948
H    0.609547  -1.870079  1.202479
H    -0.499875  -3.064592  0.462296
H    0.768049  -3.581117  1.577904
N    -3.815193  -1.947611  4.011846
C    -4.583932  -1.795103  5.252149
H    -4.095395  -2.681404  3.364758
H    -4.145917  -0.978677  5.832037
H    -4.541362  -2.723105  5.835699
H    -5.629076  -1.562065  5.015437
Ca    0.254862  3.469991  1.624035
