29
Energy: -34178.4393659 eV PBE+vdW (tier 2 basis)
C    -0.431737  0.021316  -0.227553
C    -0.253497  -0.116399  1.248542
O    0.898836  -0.351695  1.725132
H    -1.464676  0.219734  -0.530602
H    -0.084664  -0.902463  -0.711470
H    0.214251  0.831315  -0.593170
N    -1.334726  0.014992  2.029536
C    -1.512931  -0.125221  3.497406
C    -0.739035  0.942943  4.287152
O    0.532170  0.947408  4.326889
H    -2.198842  0.190713  1.524200
H    -2.579560  0.099621  3.628953
C    -1.362402  -1.571129  4.076609
C    -2.225341  -2.547743  3.265622
C    0.054177  -2.139542  4.270439
H    -1.802542  -1.489798  5.084575
H    -2.271457  -3.519573  3.771185
H    -1.817456  -2.718584  2.260118
H    -3.257700  -2.188646  3.160785
H    -0.011633  -3.134723  4.728904
H    0.647425  -1.548251  4.994216
H    0.570805  -2.298682  3.307904
N    -1.453747  1.831180  4.958845
C    -0.915151  2.892086  5.812141
H    -2.466783  1.782461  4.877504
H    -1.378099  2.827498  6.803636
H    -1.145094  3.870453  5.372320
H    0.166538  2.772892  5.899401
Ca    2.099284  -0.218058  3.457157
