29
Energy: -34175.8975927 eV PBE+vdW (tier 2 basis)
C    0.823827  0.974839  3.459029
C    -0.038457  0.281805  4.462255
O    0.518062  -0.152534  5.545742
H    0.338445  1.173791  2.499210
H    1.740010  0.391091  3.301912
H    1.145309  1.932410  3.898017
N    -1.371669  0.058091  4.382338
C    -2.123719  0.228247  3.137081
C    -2.579359  1.677251  3.018632
O    -2.563396  2.416126  4.103863
H    -2.153911  1.855871  4.813716
H    -1.499863  -0.009809  2.259913
C    -3.363541  -0.734322  3.113391
C    -2.906877  -2.196395  3.188118
C    -4.417444  -0.404468  4.177330
H    -3.833570  -0.604186  2.125158
H    -2.623025  -2.499747  4.217097
H    -2.065067  -2.423361  2.520599
H    -3.735122  -2.867327  2.924526
H    -4.016668  -0.466603  5.203730
H    -5.250465  -1.116156  4.118244
H    -4.847536  0.599577  4.061136
N    -3.012627  2.253105  1.926488
C    -3.126343  1.688406  0.573861
H    -3.311619  3.228973  2.038746
H    -2.754721  2.433168  -0.138684
H    -4.178361  1.471554  0.349829
H    -2.529389  0.777792  0.480554
Ca    -1.105905  -1.408187  6.134166
