29
Energy: -34177.340086 eV PBE+vdW (tier 2 basis)
C    -3.203375  1.867259  1.340928
C    -2.320179  1.056364  2.230700
O    -1.484976  1.644142  2.995664
H    -3.903166  1.268201  0.750103
H    -2.566206  2.451155  0.661181
H    -3.764398  2.590232  1.948368
N    -2.428386  -0.280664  2.197737
C    -1.582551  -1.320886  2.839963
C    -1.775673  -1.335950  4.364211
O    -1.305170  -0.388469  5.086652
H    -3.116013  -0.638526  1.536126
H    -1.977372  -2.263161  2.438341
C    -0.075624  -1.278454  2.450280
C    0.657424  -2.456271  3.110490
C    0.091332  -1.285107  0.926367
H    0.364821  -0.336581  2.832704
H    0.268617  -3.419624  2.748667
H    0.591590  -2.448580  4.207763
H    1.722745  -2.426827  2.850201
H    -0.372858  -0.416820  0.442019
H    -0.333168  -2.198059  0.482935
H    1.158176  -1.268246  0.670027
N    -2.393535  -2.347914  4.951815
C    -2.987621  -3.554792  4.350952
H    -2.422899  -2.282271  5.973190
H    -2.207186  -4.234613  3.987279
H    -3.680612  -3.293972  3.543805
H    -3.556845  -4.066576  5.132324
Ca    -0.506892  1.576011  4.869207
