29
Energy: -34175.5912383 eV PBE+vdW (tier 2 basis)
C    0.435739  -0.618646  2.400052
C    -0.198430  -0.378267  3.732789
O    0.579649  -0.510159  4.771105
H    1.362777  -0.031768  2.349513
H    -0.190208  -0.399605  1.531851
H    0.740939  -1.674397  2.353026
N    -1.475383  -0.069028  4.010476
C    -2.489766  0.038403  2.954143
C    -3.095117  1.425465  3.072491
O    -4.041965  1.691187  3.953058
H    -4.408148  0.852813  4.318535
H    -2.016652  -0.005800  1.963502
C    -3.544643  -1.119924  2.964777
C    -2.849672  -2.410982  2.505050
C    -4.278898  -1.359194  4.296921
H    -4.297475  -0.853501  2.202485
H    -2.097836  -2.753139  3.231590
H    -2.354946  -2.284847  1.532934
H    -3.585914  -3.216328  2.392223
H    -3.588031  -1.492863  5.145454
H    -4.857193  -2.290695  4.230992
H    -5.042753  -0.611326  4.577795
N    -2.700920  2.452202  2.361280
C    -1.626397  2.497785  1.353871
H    -3.202687  3.327885  2.546256
H    -1.851626  1.826798  0.516797
H    -0.662193  2.244515  1.808635
H    -1.576787  3.521229  0.972366
Ca    -0.905463  -0.297815  6.239035
