29
Energy: -34178.44754 eV PBE+vdW (tier 2 basis)
C    0.667366  -0.046980  0.200804
C    0.362394  0.022025  1.660966
O    1.311679  0.097343  2.499351
H    -0.222167  -0.113812  -0.433559
H    1.309920  -0.918880  0.014812
H    1.248668  0.840814  -0.084402
N    -0.924948  0.001122  2.037697
C    -1.570238  0.020016  3.376131
C    -1.208085  1.265469  4.203101
O    -0.055514  1.403477  4.722378
H    -1.585029  -0.066914  1.267315
H    -2.635464  0.113088  3.126888
C    -1.484517  -1.314433  4.182324
C    -0.111889  -1.738960  4.731389
C    -2.525771  -1.294515  5.310491
H    -1.781779  -2.084888  3.452928
H    -0.183247  -2.748463  5.156407
H    0.189511  -1.107320  5.591682
H    0.661952  -1.806358  3.949279
H    -2.563456  -2.270411  5.809079
H    -3.535040  -1.088580  4.930608
H    -2.288668  -0.544805  6.079603
N    -2.162257  2.161220  4.394996
C    -2.038855  3.381254  5.194760
H    -3.063709  1.992919  3.954615
H    -2.874543  3.432629  5.901850
H    -2.070734  4.259726  4.538143
H    -1.093266  3.362880  5.740295
Ca    1.838369  0.441384  4.515974
