29
Energy: -34177.397223 eV PBE+vdW (tier 2 basis)
C    -0.300285  1.201145  -0.737604
C    -0.745810  0.799131  0.627593
O    -0.687035  -0.427701  0.987252
H    -0.447306  2.265137  -0.947864
H    -0.830078  0.601614  -1.489645
H    0.768730  0.961272  -0.834610
N    -1.194654  1.733323  1.475408
C    -1.492712  1.531501  2.911305
C    -2.855670  0.811812  3.037517
O    -2.895513  -0.464896  2.940983
H    -1.211813  2.695591  1.135780
H    -0.746251  0.815260  3.295020
C    -1.327300  2.846133  3.715231
C    -1.516027  2.573669  5.217748
C    0.050438  3.481074  3.457931
H    -2.095984  3.569250  3.377181
H    -1.458722  3.517073  5.774410
H    -0.715342  1.924133  5.600591
H    -2.479261  2.109822  5.468183
H    0.157458  4.380286  4.076984
H    0.208956  3.798005  2.418448
H    0.863528  2.793562  3.733758
N    -3.962086  1.508695  3.211404
C    -5.307597  0.926552  3.333571
H    -3.868149  2.517996  3.327232
H    -5.386734  0.353128  4.265634
H    -5.511314  0.268479  2.481656
H    -6.034105  1.743007  3.345493
Ca    -1.683360  -1.981055  2.032408
