29
Energy: -34175.766417 eV PBE+vdW (tier 2 basis)
C    -1.371228  -0.064411  -0.207171
C    -1.147618  0.322459  1.211635
O    -0.588546  1.506245  1.443088
H    -1.869281  0.762712  -0.731157
H    -1.971837  -0.971301  -0.306939
H    -0.403689  -0.232962  -0.701768
N    -1.464414  -0.390692  2.251294
C    -2.171519  -1.670727  2.417854
C    -2.832794  -1.433719  3.817848
O    -2.434125  -0.457996  4.487330
H    -1.447871  0.025937  3.234904
H    -2.941029  -1.781324  1.639494
C    -1.220193  -2.909470  2.425960
C    -0.587928  -3.171822  1.054369
C    -0.163162  -2.830734  3.534980
H    -1.887855  -3.759841  2.648212
H    -0.039860  -4.122591  1.079852
H    0.144911  -2.396824  0.783710
H    -1.335374  -3.253586  0.252792
H    -0.603627  -2.695513  4.531505
H    0.548376  -2.009364  3.360011
H    0.418943  -3.760327  3.557160
N    -3.761632  -2.305408  4.216262
C    -4.433903  -2.239229  5.519488
H    -4.024968  -3.059873  3.585529
H    -4.259055  -3.168168  6.075396
H    -5.512008  -2.096742  5.376681
H    -4.022584  -1.394326  6.077679
Ca    0.195870  3.284597  1.849005
