29
Energy: -34176.4010936 eV PBE+vdW (tier 2 basis)
C    -0.868423  1.397057  1.581632
C    -1.366797  1.206770  2.972688
O    -0.994307  2.039123  3.874337
H    0.216510  1.228592  1.520067
H    -1.019428  2.463731  1.351694
H    -1.386424  0.793589  0.836600
N    -2.275631  0.256706  3.334408
C    -2.109612  -1.217131  3.234086
C    -1.231465  -1.605014  4.450170
O    -0.323979  -0.788141  4.867392
H    -2.722370  0.516648  4.219171
H    -3.114016  -1.640501  3.383471
C    -1.575381  -1.727622  1.861800
C    -1.141725  -3.201007  1.880010
C    -2.654878  -1.496590  0.791220
H    -0.673298  -1.142747  1.623581
H    -0.336498  -3.407623  2.597971
H    -0.752555  -3.460062  0.887356
H    -1.983623  -3.879404  2.071711
H    -2.235419  -1.664115  -0.209045
H    -3.086549  -0.487719  0.814717
H    -3.483713  -2.207626  0.919604
N    -1.411966  -2.738991  5.106340
C    -2.396675  -3.815165  4.922597
H    -0.742518  -2.885401  5.867790
H    -3.207733  -3.501383  4.262319
H    -2.811327  -4.067942  5.905377
H    -1.904859  -4.700205  4.501044
Ca    0.305661  1.204174  5.371893
