29
Energy: -34176.5807407 eV PBE+vdW (tier 2 basis)
C    0.770659  1.123689  0.724949
C    0.320738  0.727668  2.086268
O    1.150865  0.671715  3.056565
H    1.321874  2.072748  0.747970
H    -0.036582  1.158577  -0.011217
H    1.496397  0.358854  0.401294
N    -0.973073  0.400497  2.327297
C    -2.109124  1.259617  1.950378
C    -1.792850  2.683692  2.462220
O    -1.007892  2.824060  3.476733
H    -1.111053  -0.061691  3.230678
H    -2.225359  1.263593  0.858142
C    -3.411885  0.647629  2.581024
C    -3.400989  0.630805  4.117642
C    -4.691166  1.305346  2.052610
H    -3.395051  -0.394337  2.217328
H    -4.295404  0.106105  4.477425
H    -3.428538  1.644031  4.544710
H    -2.551490  0.083978  4.560594
H    -5.558814  0.730704  2.400392
H    -4.735708  1.313764  0.955823
H    -4.821577  2.329482  2.429759
N    -2.297990  3.766017  1.895556
C    -3.101386  3.925759  0.674412
H    -2.050349  4.636264  2.376209
H    -3.122731  3.001681  0.093692
H    -2.646920  4.719827  0.070504
H    -4.126773  4.214391  0.934089
Ca    0.691172  2.127534  4.599953
