29
Energy: -34177.3570451 eV PBE+vdW (tier 2 basis)
C    0.718675  2.256006  1.169752
C    0.005457  0.965464  1.393010
O    0.546959  0.045669  2.098162
H    0.883095  2.732718  2.147057
H    0.173031  2.949010  0.521943
H    1.710642  2.057781  0.742297
N    -1.209193  0.785627  0.858579
C    -2.123564  -0.346120  1.129150
C    -1.637713  -1.604260  0.369975
O    -0.734949  -2.333409  0.916478
H    -1.591639  1.555618  0.308162
H    -1.995750  -0.605799  2.192500
C    -3.603434  0.108412  0.973561
C    -4.027352  0.626676  -0.414905
C    -4.558464  -0.976787  1.492838
H    -3.670356  0.962391  1.670014
H    -4.309433  -0.177064  -1.113637
H    -3.290057  1.272599  -0.915233
H    -4.937155  1.230930  -0.305954
H    -4.321457  -1.274159  2.523492
H    -4.552206  -1.878869  0.863868
H    -5.586797  -0.594687  1.495628
N    -2.138677  -1.904773  -0.811770
C    -1.771674  -3.065569  -1.632251
H    -2.856031  -1.276179  -1.178090
H    -2.687883  -3.538880  -2.002394
H    -1.207125  -3.776350  -1.024974
H    -1.166062  -2.738618  -2.487694
Ca    0.852116  -2.042380  2.318435
