29
Energy: -34176.1414892 eV PBE+vdW (tier 2 basis)
C    0.177592  0.592806  2.148195
C    -1.051666  1.074044  2.843685
O    -1.039144  2.179302  3.487486
H    -0.047512  -0.004665  1.259881
H    0.790293  -0.017989  2.831457
H    0.781161  1.465472  1.871439
N    -2.188101  0.341061  2.851027
C    -2.213791  -1.118591  3.123592
C    -1.318913  -1.314518  4.393029
O    -1.265979  -0.318337  5.220127
H    -3.003703  0.854158  3.189592
H    -3.231835  -1.285979  3.519579
C    -2.100875  -2.042933  1.870792
C    -2.907601  -3.333572  2.111769
C    -2.646969  -1.337814  0.618404
H    -1.040231  -2.277932  1.687634
H    -2.666565  -4.083945  1.348562
H    -3.983818  -3.121671  2.033200
H    -2.740935  -3.796578  3.091930
H    -2.628921  -2.043264  -0.221743
H    -2.063380  -0.458615  0.320027
H    -3.691224  -1.022417  0.755407
N    -0.638689  -2.397113  4.733758
C    -0.345877  -3.693784  4.099700
H    -0.231580  -2.297654  5.668943
H    0.683905  -3.955524  4.367346
H    -0.428983  -3.641387  3.016110
H    -1.019217  -4.463848  4.496669
Ca    -1.164442  1.798288  5.617403
