29
Energy: -34176.6192283 eV PBE+vdW (tier 2 basis)
C    -0.632936  -0.449075  -1.247807
C    -0.197996  0.302194  -0.048666
O    0.810367  1.031862  -0.021743
H    -1.683626  -0.221669  -1.485140
H    -0.598286  -1.532203  -1.041192
H    0.012219  -0.223056  -2.101845
N    -0.891306  0.158825  1.205935
C    -1.969563  1.183204  1.542011
C    -1.309581  2.519462  1.863753
O    -0.207462  2.509220  2.520218
H    -1.379136  -0.746507  1.234520
H    -2.650076  1.277529  0.681468
C    -2.773934  0.642688  2.770843
C    -3.807086  1.665179  3.268163
C    -3.454359  -0.693416  2.436431
H    -2.036235  0.480906  3.577637
H    -4.335441  1.247183  4.133788
H    -4.566793  1.884413  2.504633
H    -3.350517  2.605599  3.602597
H    -4.030009  -1.034123  3.306669
H    -2.759594  -1.518842  2.214556
H    -4.159801  -0.593391  1.598654
N    -1.847727  3.677780  1.520696
C    -3.087852  3.984157  0.796224
H    -1.322833  4.486827  1.868996
H    -3.854286  4.331452  1.500514
H    -3.459874  3.107680  0.260886
H    -2.875885  4.780504  0.073955
Ca    1.331609  1.090616  2.203245
