29
Energy: -34176.1607338 eV PBE+vdW (tier 2 basis)
C    -0.022970  0.707520  1.752087
C    -1.099948  1.150113  2.679188
O    -1.026353  2.287685  3.260234
H    -0.009499  -0.371108  1.572130
H    0.957147  1.064943  2.086209
H    -0.223588  1.196531  0.782716
N    -2.179534  0.373070  2.924735
C    -2.099219  -1.071848  3.247967
C    -0.982133  -1.195087  4.338836
O    -0.765342  -0.147771  5.069914
H    -2.944767  0.872685  3.380894
H    -3.023355  -1.255476  3.824871
C    -2.175789  -2.045074  2.024762
C    -2.965033  -3.306655  2.424172
C    -2.863211  -1.377125  0.822706
H    -1.153963  -2.316174  1.713595
H    -2.849890  -4.088205  1.662699
H    -4.037388  -3.071773  2.490719
H    -2.667705  -3.739498  3.387157
H    -2.977745  -2.121562  0.024619
H    -2.295878  -0.537604  0.404688
H    -3.870154  -1.018683  1.079020
N    -0.266252  -2.270033  4.626432
C    -0.133187  -3.623347  4.060055
H    0.317507  -2.113585  5.453689
H    -0.751107  -4.328746  4.629973
H    0.918414  -3.912105  4.163823
H    -0.405351  -3.649574  3.006813
Ca    -0.679709  1.984484  5.374296
