29
Energy: -34177.6148242 eV PBE+vdW (tier 2 basis)
C    0.778815  1.196512  0.831989
C    0.305117  0.746202  2.167589
O    1.113274  0.652694  3.150354
H    1.328130  2.144201  0.903141
H    -0.015715  1.265921  0.084350
H    1.510029  0.447089  0.486008
N    -0.991414  0.417194  2.370377
C    -2.122607  1.264699  1.971875
C    -1.850071  2.678853  2.531985
O    -1.090744  2.802434  3.563806
H    -1.155492  -0.081306  3.247092
H    -2.195950  1.299157  0.877492
C    -3.434460  0.614243  2.532359
C    -3.496200  0.594165  4.065526
C    -4.706347  1.229686  1.945328
H    -3.368334  -0.424856  2.168840
H    -4.376368  0.023631  4.385564
H    -3.594727  1.604086  4.488137
H    -2.637246  0.097516  4.547542
H    -5.570099  0.625992  2.249017
H    -4.696936  1.243617  0.848066
H    -4.888545  2.246960  2.317157
N    -2.368970  3.763113  1.988290
C    -3.149920  3.936209  0.759339
H    -2.151910  4.624451  2.493630
H    -3.149956  3.023623  0.160579
H    -2.698808  4.748080  0.177348
H    -4.184224  4.205122  1.003002
Ca    0.566360  2.058915  4.697126
