29
Energy: -34178.0136578 eV PBE+vdW (tier 2 basis)
C    0.128352  -0.332478  0.102291
C    -0.038498  -0.092524  1.561922
O    0.938622  0.326805  2.270446
H    0.417479  0.611969  -0.381012
H    -0.777463  -0.716699  -0.377618
H    0.954606  -1.037648  -0.061094
N    -1.224599  -0.310991  2.140664
C    -1.487797  0.037176  3.542086
C    -0.674242  -0.870472  4.492538
O    0.291232  -0.298815  5.122366
H    -2.004079  -0.599427  1.552865
H    -1.006682  1.014703  3.697298
C    -2.985961  0.320756  3.858034
C    -3.404935  1.592658  3.100522
C    -3.989649  -0.812074  3.623102
H    -2.988831  0.557035  4.934742
H    -4.399343  1.909772  3.435126
H    -3.471996  1.429137  2.015216
H    -2.716674  2.430383  3.278625
H    -5.002342  -0.418344  3.772267
H    -3.871818  -1.644147  4.323417
H    -3.969115  -1.206752  2.595076
N    -0.859226  -2.165453  4.674895
C    -1.724586  -3.135179  4.001532
H    -0.231485  -2.562037  5.377401
H    -1.107538  -3.990043  3.699797
H    -2.188607  -2.700782  3.116612
H    -2.503515  -3.490385  4.686489
Ca    1.886106  0.717185  4.136228
