29
Energy: -34176.69149 eV PBE+vdW (tier 2 basis)
C    0.841512  -0.593506  1.554072
C    0.270944  -0.633862  2.928983
O    1.034630  -0.793495  3.943443
H    1.463311  0.303108  1.414416
H    0.083873  -0.648908  0.767756
H    1.522014  -1.452887  1.459727
N    -1.059367  -0.506055  3.140005
C    -1.865454  0.569731  2.550780
C    -1.275748  1.913149  3.052985
O    -0.431210  1.920900  4.026285
H    -1.350443  -0.745431  4.092557
H    -1.776181  0.529498  1.454637
C    -3.368535  0.389641  2.937189
C    -3.928758  -0.879963  2.283039
C    -3.600577  0.421552  4.456221
H    -3.893322  1.255172  2.504285
H    -3.441098  -1.789663  2.661427
H    -3.816645  -0.861882  1.190516
H    -5.000028  -0.967968  2.503287
H    -3.202316  -0.468698  4.970243
H    -4.679165  0.412824  4.658792
H    -3.195411  1.324773  4.935958
N    -1.630156  3.059360  2.499142
C    -2.519651  3.313704  1.356044
H    -1.220809  3.886950  2.941909
H    -2.068541  4.101647  0.742818
H    -3.501085  3.655019  1.709186
H    -2.638766  2.417098  0.742535
Ca    1.063979  0.941191  5.234764
