29
Energy: -34177.3070503 eV PBE+vdW (tier 2 basis)
C    0.042764  -1.561633  -0.459253
C    -0.390773  -0.504140  0.503470
O    0.405469  -0.125884  1.418981
H    -0.723282  -1.837742  -1.190220
H    0.342143  -2.453170  0.108705
H    0.938577  -1.208418  -0.989107
N    -1.623530  0.017174  0.362061
C    -2.357833  1.061493  1.130422
C    -1.606062  2.402396  1.156166
O    -0.592911  2.561229  1.920727
H    -2.161899  -0.383656  -0.404898
H    -3.260853  1.210900  0.528693
C    -2.910247  0.627691  2.527421
C    -1.903231  0.287019  3.641743
C    -3.914514  1.683034  3.018329
H    -3.462024  -0.302627  2.313210
H    -2.437469  -0.155526  4.493312
H    -1.450396  1.205554  4.066549
H    -1.162190  -0.469796  3.339002
H    -3.425785  2.640716  3.252831
H    -4.409227  1.338026  3.934788
H    -4.705159  1.871626  2.279895
N    -2.014119  3.430835  0.425871
C    -3.118171  3.580083  -0.529739
H    -1.446641  4.272685  0.570602
H    -3.823467  4.331094  -0.152594
H    -3.647166  2.638017  -0.686171
H    -2.711330  3.920212  -1.489906
Ca    0.786327  1.296808  2.954109
