29
Energy: -34176.7529379 eV PBE+vdW (tier 2 basis)
C    -1.891145  0.302460  -0.245404
C    -0.888313  0.368367  0.853366
O    -0.272751  1.462621  1.105367
H    -1.434883  0.777111  -1.126865
H    -2.782022  0.900833  -0.004324
H    -2.186484  -0.718696  -0.501432
N    -0.590163  -0.721914  1.596845
C    -1.609897  -1.563256  2.229522
C    -2.227332  -0.721418  3.391632
O    -1.854254  0.490112  3.595780
H    0.258632  -0.619622  2.160734
H    -2.413399  -1.748949  1.499333
C    -1.015312  -2.928999  2.678231
C    -0.574404  -3.738559  1.452247
C    0.108769  -2.768243  3.712915
H    -1.842895  -3.481197  3.156730
H    -0.207477  -4.722941  1.768184
H    0.243523  -3.242489  0.910735
H    -1.402175  -3.904986  0.749599
H    0.406881  -3.753844  4.091787
H    -0.192211  -2.169713  4.586066
H    1.020771  -2.330593  3.277243
N    -3.154641  -1.278340  4.146374
C    -3.841229  -0.624308  5.270645
H    -3.394575  -2.251578  3.954284
H    -3.191473  -0.607490  6.155058
H    -4.745370  -1.195455  5.498362
H    -4.117657  0.398002  4.993686
Ca    -0.734515  2.259085  3.057298
