29
Energy: -34175.7179321 eV PBE+vdW (tier 2 basis)
C    0.682005  1.042105  3.016248
C    0.136434  -0.113883  3.794448
O    0.992807  -0.874494  4.412522
H    1.595981  0.721799  2.501014
H    0.983461  1.830089  3.723099
H    -0.019343  1.462841  2.288380
N    -1.148464  -0.457887  3.949090
C    -2.248466  0.238680  3.295295
C    -2.493860  1.602201  3.916246
O    -2.356912  1.632443  5.229793
H    -2.542072  2.505286  5.638412
H    -2.027258  0.391467  2.228123
C    -3.547507  -0.652106  3.345989
C    -4.036219  -0.979731  4.762121
C    -4.685377  -0.093901  2.483765
H    -3.193761  -1.584131  2.869930
H    -4.526742  -0.124508  5.247918
H    -3.229889  -1.302220  5.442135
H    -4.774159  -1.790819  4.722066
H    -4.371388  0.090164  1.447797
H    -5.109425  0.832102  2.900432
H    -5.508044  -0.818938  2.442577
N    -2.833981  2.678412  3.244041
C    -3.002763  2.863113  1.789172
H    -3.021304  3.527487  3.788039
H    -4.071236  2.928539  1.551724
H    -2.555659  2.034787  1.236867
H    -2.506923  3.799244  1.509237
Ca    -0.444936  -2.217140  5.208519
