29
Energy: -34178.4250145 eV PBE+vdW (tier 2 basis)
C    -0.521088  1.716929  -0.781399
C    -0.926169  1.070407  0.498974
O    -0.958234  -0.202127  0.597281
H    0.512436  1.417757  -1.010044
H    -0.576831  2.809861  -0.751989
H    -1.148341  1.341509  -1.600609
N    -1.243099  1.837929  1.545355
C    -1.491609  1.365780  2.920964
C    -2.906992  0.748859  2.989231
O    -3.058693  -0.473685  2.647949
H    -1.186369  2.845493  1.412462
H    -0.800381  0.526363  3.101721
C    -1.169469  2.463277  3.962324
C    -1.308374  1.899651  5.384719
C    0.242415  3.031834  3.750474
H    -1.886242  3.297543  3.831164
H    -1.135463  2.695530  6.118231
H    -0.555623  1.120281  5.569647
H    -2.297211  1.473011  5.597594
H    0.459436  3.768603  4.532680
H    0.376271  3.547556  2.790341
H    1.003255  2.241795  3.822590
N    -3.922751  1.495916  3.367794
C    -5.318994  1.069157  3.473827
H    -3.709236  2.451300  3.649873
H    -5.686653  1.291597  4.482332
H    -5.386459  -0.004330  3.287106
H    -5.929075  1.614890  2.743406
Ca    -2.025702  -1.842055  1.384676
