29
Energy: -34176.7430051 eV PBE+vdW (tier 2 basis)
C    0.023691  1.884298  -1.018886
C    -0.001994  1.323918  0.351427
O    0.918274  1.474797  1.175151
H    0.924318  2.485955  -1.172530
H    -0.879754  2.484474  -1.207479
H    0.003269  1.065159  -1.757633
N    -1.086912  0.477258  0.782290
C    -2.227992  1.105509  1.572775
C    -1.762311  1.492788  2.976729
O    -0.881168  0.785078  3.572913
H    -1.532499  0.041156  -0.035068
H    -2.575573  2.004507  1.037381
C    -3.407189  0.074676  1.608216
C    -3.061093  -1.238975  2.322507
C    -4.688052  0.708994  2.168905
H    -3.600178  -0.147697  0.542349
H    -2.186537  -1.747447  1.883427
H    -3.895791  -1.943976  2.216885
H    -2.896906  -1.096592  3.400067
H    -5.531634  0.027305  2.002804
H    -4.941019  1.652715  1.664966
H    -4.629273  0.883148  3.252271
N    -2.339810  2.525471  3.566067
C    -2.098632  2.958768  4.949781
H    -3.030619  3.051763  3.029690
H    -1.445110  2.236558  5.443618
H    -3.057647  3.016182  5.477812
H    -1.628454  3.949870  4.945169
Ca    0.630596  -0.311661  2.570395
