29
Energy: -34176.6089933 eV PBE+vdW (tier 2 basis)
C    -0.141177  -1.239962  2.307473
C    -0.614735  -0.845200  3.661840
O    -0.055532  -1.436063  4.708073
H    0.953967  -1.170177  2.264555
H    -0.571235  -0.622107  1.514741
H    -0.410623  -2.288860  2.115812
N    -1.533758  0.038860  3.892757
C    -2.352178  0.862617  2.991604
C    -2.830506  1.960818  3.992640
O    -2.798424  1.656234  5.202323
H    -1.839470  0.331355  4.869416
H    -1.726182  1.278475  2.191326
C    -3.515856  0.011437  2.376410
C    -4.475990  -0.537032  3.436678
C    -4.268248  0.759080  1.273311
H    -3.004415  -0.843282  1.900552
H    -5.036941  0.265936  3.933010
H    -3.965756  -1.118253  4.216867
H    -5.206318  -1.201562  2.959656
H    -4.949348  0.062727  0.768734
H    -3.598490  1.170879  0.506809
H    -4.885484  1.571323  1.676584
N    -3.263651  3.149060  3.563716
C    -3.196957  3.763616  2.240327
H    -3.592482  3.745248  4.322652
H    -2.724873  4.749275  2.328565
H    -4.198728  3.889333  1.812196
H    -2.597675  3.157806  1.556404
Ca    0.773439  -2.287787  6.285666
