29
Energy: -34177.1889202 eV PBE+vdW (tier 2 basis)
C    0.036738  0.729499  2.161229
C    -1.202092  1.102837  2.896021
O    -1.270698  2.213033  3.524627
H    -0.000146  1.251766  1.189502
H    0.120238  -0.339979  1.948006
H    0.928501  1.096281  2.680452
N    -2.275372  0.285582  2.920486
C    -2.200608  -1.170953  3.160571
C    -1.284810  -1.341537  4.418187
O    -1.207107  -0.332143  5.221488
H    -3.124362  0.735869  3.258952
H    -3.202497  -1.417218  3.553239
C    -2.027433  -2.065022  1.889030
C    -2.855208  -3.352453  2.049694
C    -2.482892  -1.333160  0.618230
H    -0.961597  -2.311951  1.766139
H    -2.583524  -4.082608  1.278304
H    -3.923722  -3.126811  1.925034
H    -2.739872  -3.843404  3.023234
H    -2.432785  -2.030517  -0.226817
H    -1.860391  -0.468766  0.361545
H    -3.524782  -0.994401  0.698189
N    -0.621185  -2.427295  4.771576
C    -0.396539  -3.751355  4.175905
H    -0.184333  -2.312994  5.688143
H    0.598947  -4.081495  4.490349
H    -0.429578  -3.716894  3.088725
H    -1.138260  -4.466632  4.552531
Ca    -1.254042  1.770750  5.630498
