29
Energy: -34178.3778423 eV PBE+vdW (tier 2 basis)
C    0.928501  2.282656  0.946663
C    0.236563  0.982943  1.178787
O    0.842557  0.026421  1.767893
H    1.193844  2.714861  1.922752
H    0.320705  3.004540  0.391774
H    1.870491  2.109377  0.409951
N    -1.028676  0.836800  0.774729
C    -1.913208  -0.302299  1.084835
C    -1.539745  -1.515885  0.204187
O    -0.582915  -2.271830  0.591974
H    -1.462060  1.633144  0.311184
H    -1.658886  -0.626357  2.106152
C    -3.393461  0.163754  1.138488
C    -3.976942  0.762668  -0.154220
C    -4.289108  -0.945146  1.705601
H    -3.367203  0.976170  1.884113
H    -4.859086  1.363723  0.097871
H    -4.350276  0.001772  -0.858370
H    -3.296723  1.431188  -0.703416
H    -5.304970  -0.561186  1.856269
H    -3.930879  -1.305118  2.679356
H    -4.368262  -1.807256  1.028408
N    -2.191251  -1.747518  -0.914884
C    -1.948941  -2.857471  -1.838008
H    -2.943062  -1.099357  -1.147299
H    -2.909610  -3.307937  -2.110674
H    -1.317012  -3.604866  -1.353840
H    -1.458234  -2.487446  -2.747313
Ca    1.144045  -2.061168  1.814293
