29
Energy: -34177.0704257 eV PBE+vdW (tier 2 basis)
C    0.261869  0.101648  0.225569
C    0.010062  0.346654  1.675531
O    0.799352  1.099006  2.343238
H    1.283052  -0.277945  0.087711
H    0.208077  1.066084  -0.300320
H    -0.451012  -0.593284  -0.229192
N    -1.053409  -0.222586  2.257922
C    -1.588422  0.061299  3.604618
C    -0.751555  -0.693954  4.672238
O    0.383351  -0.158448  4.964835
H    -1.646829  -0.808339  1.667739
H    -1.336848  1.112105  3.820940
C    -3.145411  -0.019499  3.601514
C    -3.713491  1.349348  3.186888
C    -3.732525  -1.132039  2.714276
H    -3.443228  -0.189799  4.647948
H    -4.810076  1.314445  3.175344
H    -3.387303  1.634439  2.175430
H    -3.418803  2.143163  3.886578
H    -4.787766  -1.288477  2.971553
H    -3.236442  -2.106781  2.810314
H    -3.731895  -0.844604  1.651201
N    -1.082315  -1.798680  5.321281
C    -2.240565  -2.705462  5.256691
H    -0.353378  -2.079834  5.983492
H    -2.189883  -3.334983  4.360524
H    -3.183352  -2.155093  5.284344
H    -2.190772  -3.351422  6.137885
Ca    1.799517  1.247036  4.207908
