29
Energy: -34177.2325708 eV PBE+vdW (tier 2 basis)
C    1.385026  0.616410  1.644116
C    0.870633  -0.484442  2.507609
O    1.620236  -1.006698  3.402858
H    0.665535  0.949581  0.889707
H    2.310104  0.290566  1.149926
H    1.650933  1.467471  2.287726
N    -0.387081  -0.920323  2.346595
C    -1.056546  -1.893762  3.234263
C    -0.465563  -3.301571  2.981757
O    0.462325  -3.698186  3.778567
H    -0.959792  -0.452668  1.643050
H    -0.735732  -1.653708  4.261856
C    -2.598267  -1.740644  3.221710
C    -3.237193  -2.828123  4.099964
C    -2.988210  -0.337560  3.714391
H    -2.964278  -1.857244  2.188666
H    -2.923800  -2.728696  5.149823
H    -3.003029  -3.850196  3.771990
H    -4.329082  -2.725839  4.080349
H    -4.080271  -0.233696  3.696287
H    -2.583009  0.474370  3.095144
H    -2.659895  -0.172622  4.751290
N    -0.826146  -4.094569  1.985899
C    -1.815448  -3.901715  0.914867
H    -0.341192  -4.996492  1.990318
H    -1.544268  -4.570902  0.092481
H    -1.793867  -2.874632  0.540551
H    -2.823534  -4.161147  1.261954
Ca    2.168412  -2.690962  4.587285
