29
Energy: -34176.7126943 eV PBE+vdW (tier 2 basis)
C    0.221982  2.284595  1.407226
C    -0.260324  1.138471  2.209487
O    -0.291965  1.131388  3.453235
H    0.460039  3.135807  2.051966
H    -0.520678  2.567789  0.646123
H    1.127318  1.988050  0.850091
N    -0.660224  -0.095546  1.575750
C    -2.136103  -0.247721  1.232543
C    -2.928304  -0.479311  2.519100
O    -2.406230  -1.175799  3.456250
H    -0.172430  -0.199124  0.675483
H    -2.487517  0.671654  0.732106
C    -2.290438  -1.446023  0.238992
C    -3.762901  -1.655443  -0.147070
C    -1.432520  -1.234391  -1.018956
H    -1.936982  -2.349037  0.768389
H    -3.832294  -2.474864  -0.872907
H    -4.188635  -0.763911  -0.632290
H    -4.394641  -1.936020  0.704639
H    -1.605543  -2.062871  -1.717657
H    -0.345997  -1.241980  -0.837691
H    -1.698753  -0.306090  -1.545806
N    -4.151082  0.011713  2.613278
C    -5.078712  -0.221828  3.728939
H    -4.502056  0.557725  1.825352
H    -6.019687  -0.620937  3.332227
H    -5.277483  0.725920  4.244403
H    -4.634532  -0.940372  4.421213
Ca    -0.340311  -1.102842  3.941587
