29
Energy: -34176.5933099 eV PBE+vdW (tier 2 basis)
C    -0.519998  0.312643  -1.046295
C    -0.250603  -0.012868  0.380269
O    0.944200  -0.218140  0.787354
H    0.059021  1.188308  -1.369448
H    -1.581242  0.444791  -1.272031
H    -0.141878  -0.535674  -1.640028
N    -1.261448  -0.110360  1.277226
C    -2.277394  0.943653  1.468164
C    -1.505788  2.267489  1.664996
O    -0.311805  2.228859  2.155219
H    -0.980285  -0.549954  2.159100
H    -2.922101  1.005631  0.579760
C    -3.148461  0.543334  2.706916
C    -4.114074  1.642164  3.166213
C    -3.896437  -0.762760  2.401737
H    -2.432196  0.366188  3.533216
H    -4.658996  1.285439  4.049136
H    -4.869357  1.869988  2.401409
H    -3.606472  2.569244  3.463993
H    -4.419381  -1.105181  3.303464
H    -3.236040  -1.577524  2.076809
H    -4.653178  -0.608812  1.618850
N    -2.020728  3.438383  1.332496
C    -3.305160  3.772512  0.700861
H    -1.421104  4.236430  1.563083
H    -3.971552  4.239694  1.436085
H    -3.786894  2.881771  0.292481
H    -3.111836  4.482435  -0.111713
Ca    1.608189  1.252317  2.237681
