29
Energy: -34178.3441016 eV PBE+vdW (tier 2 basis)
C    -2.287201  -0.385637  0.395979
C    -1.466822  0.167349  1.514718
O    -0.276758  -0.238708  1.682413
H    -3.299032  0.028602  0.343411
H    -2.349554  -1.476769  0.512367
H    -1.770248  -0.198680  -0.555218
N    -2.029863  1.085648  2.313300
C    -1.542342  1.771256  3.535629
C    -0.352797  2.697091  3.258753
O    0.760543  2.233211  2.847265
H    -2.991617  1.310926  2.074745
H    -2.390608  2.411730  3.800842
C    -1.334702  0.877555  4.804750
C    -2.586600  0.024586  5.050202
C    -0.065570  0.012167  4.887832
H    -1.261774  1.612142  5.624723
H    -2.522981  -0.465401  6.029039
H    -2.700213  -0.763972  4.294051
H    -3.500386  0.633311  5.051017
H    -0.033010  -0.496752  5.859830
H    0.859464  0.619741  4.868416
H    -0.069902  -0.796364  4.136603
N    -0.467776  3.993430  3.499893
C    -1.635311  4.749210  3.974668
H    0.386111  4.527110  3.331198
H    -1.351852  5.804131  4.021862
H    -1.933023  4.431018  4.981112
H    -2.477724  4.655772  3.278966
Ca    1.603088  0.307936  2.475135
