29
Energy: -34175.8178138 eV PBE+vdW (tier 2 basis)
C    0.653636  0.969916  3.217915
C    0.011303  0.113512  4.262868
O    0.764595  -0.415401  5.172727
H    1.592027  1.371474  3.615923
H    0.014676  1.793278  2.878926
H    0.908148  0.349715  2.343897
N    -1.297819  -0.210402  4.346699
C    -2.244247  0.111698  3.268293
C    -2.661452  1.566924  3.405121
O    -2.726628  2.078682  4.617446
H    -2.320473  1.424557  5.235762
H    -1.790662  -0.038852  2.275367
C    -3.490521  -0.836190  3.398278
C    -4.676339  -0.444714  2.506828
C    -3.072085  -2.284212  3.109934
H    -3.817508  -0.756411  4.451707
H    -5.070521  0.553216  2.738330
H    -5.502661  -1.148495  2.666877
H    -4.421566  -0.492514  1.438786
H    -3.905489  -2.969901  3.306892
H    -2.220786  -2.633436  3.724066
H    -2.768873  -2.420236  2.061673
N    -2.979534  2.380661  2.430826
C    -3.016529  2.134445  0.983013
H    -3.256839  3.322393  2.733655
H    -2.519568  1.194287  0.734710
H    -2.501496  2.962796  0.483060
H    -4.059084  2.100151  0.643969
Ca    -0.656706  -1.864941  5.819454
