29
Energy: -34176.6868915 eV PBE+vdW (tier 2 basis)
C    0.866413  0.467710  1.945105
C    0.154092  1.718959  2.321357
O    0.794129  2.820623  2.443809
H    1.697193  0.347607  2.658034
H    1.330633  0.559370  0.953011
H    0.234511  -0.423245  1.988342
N    -1.178843  1.722395  2.557524
C    -2.169904  1.151947  1.632347
C    -2.000104  1.907083  0.282344
O    -1.363014  3.023635  0.240556
H    -1.509642  2.574851  3.019961
H    -1.950414  0.084445  1.469825
C    -3.589440  1.277164  2.276943
C    -4.719001  0.788921  1.359399
C    -3.604940  0.517084  3.612988
H    -3.754292  2.354214  2.472716
H    -5.666909  0.827847  1.910690
H    -4.579657  -0.262322  1.061244
H    -4.857817  1.410976  0.466041
H    -4.566380  0.680209  4.115571
H    -2.816272  0.839739  4.304837
H    -3.494246  -0.565397  3.453042
N    -2.513973  1.368821  -0.807285
C    -2.511565  1.954441  -2.154307
H    -2.996330  0.475014  -0.698122
H    -1.823250  1.394843  -2.800573
H    -2.205500  3.001065  -2.095734
H    -3.524081  1.889966  -2.568656
Ca    0.176602  4.323038  1.014993
