29
Energy: -34175.6157347 eV PBE+vdW (tier 2 basis)
C    0.346278  -0.532895  1.981290
C    -0.102720  -0.194909  3.366931
O    0.802872  -0.233888  4.303362
H    1.065344  0.233070  1.654849
H    -0.451130  -0.624025  1.239224
H    0.908225  -1.475680  2.019250
N    -1.333253  0.134849  3.787751
C    -2.511670  0.070112  2.925953
C    -3.226396  1.421901  2.972214
O    -4.444730  1.559777  3.456760
H    -4.841267  0.691326  3.678493
H    -2.226533  -0.056572  1.866147
C    -3.432739  -1.135320  3.291371
C    -2.862890  -2.426966  2.686018
C    -3.673744  -1.306966  4.805186
H    -4.406810  -0.972302  2.791037
H    -1.858515  -2.648076  3.077385
H    -2.801975  -2.371007  1.591460
H    -3.506131  -3.280528  2.934238
H    -3.897199  -0.375600  5.351043
H    -2.810552  -1.804864  5.283278
H    -4.516222  -1.988494  4.982716
N    -2.691964  2.537710  2.538104
C    -1.381017  2.736070  1.903105
H    -3.289704  3.366526  2.630890
H    -1.415168  3.688409  1.366288
H    -1.176992  1.937937  1.182689
H    -0.588385  2.777238  2.659816
Ca    -0.542014  -0.153832  5.929152
