29
Energy: -34178.2552184 eV PBE+vdW (tier 2 basis)
C    0.185929  0.254587  0.013088
C    0.018242  0.168053  1.490823
O    0.980172  0.475037  2.271221
H    0.414826  1.296824  -0.253306
H    -0.699749  -0.069352  -0.542897
H    1.050404  -0.348646  -0.294932
N    -1.155475  -0.225704  1.996968
C    -1.496750  -0.202614  3.429530
C    -0.741544  -1.339016  4.156549
O    0.357646  -1.026342  4.739768
H    -1.905676  -0.428852  1.339586
H    -1.046013  0.713373  3.844586
C    -3.020345  -0.073949  3.663905
C    -3.329030  -0.137117  5.165449
C    -3.534676  1.238862  3.055002
H    -3.531197  -0.909478  3.160371
H    -4.409454  -0.046403  5.326380
H    -2.852070  0.693748  5.705078
H    -3.009670  -1.075397  5.638881
H    -4.615790  1.320495  3.218195
H    -3.371443  1.314435  1.971509
H    -3.063768  2.110503  3.531851
N    -1.136560  -2.598642  4.178355
C    -2.311354  -3.240062  3.578947
H    -0.524320  -3.209320  4.721677
H    -3.192676  -3.126222  4.222224
H    -2.090370  -4.306426  3.473828
H    -2.517520  -2.834290  2.584750
Ca    1.970497  0.219211  4.125444
