29
Energy: -34177.0723855 eV PBE+vdW (tier 2 basis)
C    1.351301  0.709726  2.206488
C    0.960169  -0.645446  2.689905
O    1.829674  -1.409754  3.234503
H    0.530636  1.253614  1.728384
H    2.189499  0.618984  1.502676
H    1.717347  1.292053  3.064345
N    -0.309726  -1.051331  2.557329
C    -0.871868  -2.282601  3.140763
C    -0.377872  -3.520475  2.351992
O    0.690369  -4.093883  2.782783
H    -0.977255  -0.395291  2.148097
H    -0.374771  -2.406932  4.114869
C    -2.413597  -2.178303  3.443655
C    -2.616065  -2.150609  4.968229
C    -3.126041  -0.986916  2.784647
H    -2.874645  -3.104195  3.068821
H    -2.155923  -1.257843  5.417428
H    -2.196270  -3.044244  5.450348
H    -3.685969  -2.124298  5.210641
H    -3.009997  -0.928334  1.691897
H    -2.821727  -0.026397  3.227790
H    -4.205155  -1.073451  2.964203
N    -0.968239  -4.022085  1.280015
C    -2.139742  -3.568107  0.519408
H    -0.514336  -4.871674  0.931507
H    -1.984107  -3.847927  -0.527841
H    -2.245056  -2.483095  0.574291
H    -3.052754  -4.056584  0.883093
Ca    2.533123  -3.381602  3.601735
