29
Energy: -34177.2023259 eV PBE+vdW (tier 2 basis)
C    0.534142  -1.119874  0.165440
C    0.228408  -0.554374  1.515297
O    1.089472  0.151690  2.141597
H    0.571395  -2.218254  0.210199
H    1.503042  -0.748263  -0.178175
H    -0.239627  -0.842935  -0.563471
N    -0.968038  -0.801963  2.071399
C    -1.453275  -0.188233  3.324476
C    -0.703654  -0.817271  4.523472
O    0.317692  -0.179084  4.974599
H    -1.638168  -1.342516  1.522610
H    -1.104643  0.858285  3.316527
C    -2.999477  -0.120790  3.390734
C    -3.436723  0.467200  4.741702
C    -3.537287  0.723319  2.224091
H    -3.410056  -1.139209  3.296438
H    -3.089771  -0.115637  5.606067
H    -4.531751  0.500549  4.794423
H    -3.077098  1.499833  4.862728
H    -3.165757  1.757587  2.273863
H    -4.632310  0.765427  2.276994
H    -3.284374  0.317432  1.235002
N    -1.021576  -1.974517  5.080311
C    -2.094524  -2.930054  4.766559
H    -0.423400  -2.219021  5.874761
H    -3.036191  -2.631906  5.244465
H    -1.793023  -3.904485  5.163104
H    -2.229862  -3.027799  3.685960
Ca    1.920433  0.832864  3.984830
