29
Energy: -34177.3741204 eV PBE+vdW (tier 2 basis)
C    0.002997  1.000075  -0.391629
C    -0.371554  1.503810  0.961599
O    0.029867  2.655121  1.349654
H    1.093938  1.036980  -0.510737
H    -0.421416  1.683816  -1.141447
H    -0.353033  -0.015079  -0.592887
N    -1.135972  0.742387  1.752527
C    -1.773901  1.132819  3.026647
C    -0.740272  1.098211  4.178884
O    0.150451  2.019264  4.226486
H    -1.410071  -0.171263  1.388012
H    -2.039112  2.199860  2.937106
C    -3.100315  0.342854  3.224109
C    -4.202951  0.950715  2.340951
C    -2.989683  -1.176626  2.983172
H    -3.393604  0.517723  4.273265
H    -5.148232  0.416723  2.498744
H    -3.961965  0.872517  1.270524
H    -4.379929  2.008103  2.579448
H    -3.896951  -1.670386  3.353162
H    -2.134679  -1.671434  3.468431
H    -2.942056  -1.424852  1.911046
N    -0.803975  0.159453  5.102687
C    0.086809  0.024827  6.261553
H    -1.547376  -0.533445  5.005919
H    -0.514735  0.032432  7.178401
H    0.793945  0.856225  6.273642
H    0.628275  -0.926909  6.193894
Ca    0.908497  3.614077  3.019836
