29
Energy: -34175.7200946 eV PBE+vdW (tier 2 basis)
C    0.521135  1.009881  2.748489
C    0.032359  -0.107928  3.620606
O    0.912134  -0.859533  4.210538
H    0.109152  1.978922  3.062437
H    0.230639  0.837914  1.701501
H    1.613010  1.056828  2.802104
N    -1.248114  -0.432604  3.852009
C    -2.353534  0.265801  3.211350
C    -2.645042  1.586474  3.900060
O    -2.582659  1.539137  5.218599
H    -2.793420  2.386634  5.666515
H    -2.112702  0.487981  2.160762
C    -3.633470  -0.651231  3.175228
C    -4.128136  -1.107309  4.552359
C    -4.773118  -0.037603  2.353132
H    -3.260061  -1.533745  2.626062
H    -4.617122  -0.301766  5.117333
H    -3.325558  -1.501581  5.198593
H    -4.866552  -1.910180  4.432727
H    -4.450932  0.240072  1.340668
H    -5.215331  0.842986  2.843196
H    -5.583705  -0.768294  2.239182
N    -2.956944  2.698094  3.273173
C    -3.042669  2.959365  1.822543
H    -3.194134  3.510639  3.852269
H    -2.629054  3.956677  1.638350
H    -4.091525  2.933281  1.504310
H    -2.465751  2.221525  1.261500
Ca    -0.504896  -2.175439  5.101404
