29
Energy: -34175.7995902 eV PBE+vdW (tier 2 basis)
C    0.577240  1.301456  2.878522
C    0.184601  0.043957  3.582630
O    1.130803  -0.686540  4.085560
H    0.941273  2.015498  3.633692
H    -0.227501  1.770425  2.304918
H    1.430624  1.092856  2.220519
N    -1.063301  -0.434262  3.772745
C    -2.239723  0.149409  3.113427
C    -2.648563  1.422089  3.836553
O    -2.422731  1.503759  5.133146
H    -1.887986  0.717656  5.393190
H    -2.021611  0.393522  2.062618
C    -3.402797  -0.912895  3.108230
C    -3.845454  -1.359263  4.508158
C    -4.608039  -0.485356  2.263596
H    -2.928597  -1.769949  2.594299
H    -4.401901  -0.575103  5.042095
H    -3.010845  -1.662907  5.163023
H    -4.518107  -2.222667  4.427997
H    -5.308121  -1.325304  2.171294
H    -4.322984  -0.194843  1.243953
H    -5.169354  0.337489  2.728985
N    -3.234034  2.465634  3.305673
C    -3.571158  2.745293  1.902724
H    -3.460813  3.210922  3.975367
H    -4.659509  2.717429  1.771952
H    -3.105112  2.016409  1.236792
H    -3.204380  3.749511  1.660509
Ca    -0.073919  -2.385224  4.501833
