29
Energy: -34178.4442297 eV PBE+vdW (tier 2 basis)
C    0.480071  0.138305  0.165584
C    -0.339541  -0.037385  1.399896
O    -1.464737  -0.630468  1.334727
H    1.442699  0.627878  0.344324
H    -0.097934  0.736350  -0.554031
H    0.651089  -0.840428  -0.302146
N    0.134090  0.443046  2.555040
C    -0.529114  0.545402  3.876840
C    -0.716694  -0.835243  4.526387
O    -1.590060  -1.650384  4.080867
H    1.036064  0.907615  2.490739
H    0.190213  1.106944  4.489831
C    -1.845448  1.371940  3.884570
C    -2.361412  1.504337  5.323599
C    -1.639594  2.741044  3.229349
H    -2.607131  0.827661  3.292244
H    -3.293769  2.080939  5.335946
H    -1.640606  2.046166  5.952493
H    -2.569517  0.536582  5.800470
H    -2.574201  3.313595  3.261996
H    -1.336352  2.672364  2.177444
H    -0.881710  3.327122  3.768818
N    0.025226  -1.125646  5.579190
C    -0.043386  -2.358656  6.365523
H    0.698739  -0.426344  5.884264
H    -0.162245  -2.102555  7.424618
H    0.884074  -2.930590  6.237808
H    -0.894534  -2.955296  6.031731
Ca    -2.821605  -1.863224  2.362229
