24
Energy: -18614.6198164 eV PBE+vdW (tier 2 basis)
C    0.736367  -1.319007  0.686794
C    0.109713  -0.043987  1.226661
O    0.016441  0.965343  0.482153
H    0.256625  -1.569462  -0.268135
H    0.634621  -2.161537  1.380341
H    1.801822  -1.141998  0.483090
N    -0.287323  -0.110148  2.503659
C    -1.145168  0.894742  3.139976
C    -0.350672  2.169305  3.552826
O    -0.202151  2.527784  4.723655
H    -0.531444  -1.084434  2.967239
H    -1.898457  1.224192  2.400042
C    -1.845688  0.258091  4.353844
C    -2.277744  -1.234641  4.222255
O    -1.406277  -2.025128  3.688750
O    -3.385014  -1.559494  4.684108
H    -1.159885  0.322306  5.212720
H    -2.727466  0.852900  4.615619
N    0.137058  2.855325  2.482424
C    0.999989  4.002479  2.637426
H    0.072964  2.362325  1.572082
H    2.050859  3.763299  2.401359
H    0.946762  4.333262  3.681723
H    0.681066  4.826480  1.981389
