24
Energy: -18614.4030982 eV PBE+vdW (tier 2 basis)
C    -0.258655  0.803313  0.398989
C    -0.232750  0.410051  1.874898
O    0.812300  0.510137  2.528367
H    0.754099  1.096801  0.107930
H    -0.946801  1.639774  0.211876
H    -0.594608  -0.030720  -0.234197
N    -1.400644  -0.027805  2.431736
C    -2.618647  -0.321717  1.683284
C    -3.355036  0.932940  1.189526
O    -4.101762  0.926054  0.207679
H    -1.353478  -0.678551  3.286193
H    -2.416479  -0.928414  0.783993
C    -3.598250  -1.110655  2.592285
C    -2.968797  -2.282205  3.423604
O    -1.886261  -1.993049  4.039527
O    -3.603520  -3.354245  3.446675
H    -4.412676  -1.499594  1.972597
H    -4.038647  -0.411680  3.323572
N    -3.147573  2.034186  1.971035
C    -3.803853  3.297292  1.745757
H    -2.470790  1.915843  2.721274
H    -4.442722  3.583604  2.596278
H    -4.434292  3.183843  0.855145
H    -3.078711  4.106778  1.567453
