24
Energy: -18614.7392242 eV PBE+vdW (tier 2 basis)
C    -0.497339  1.024438  -0.101041
C    0.186148  0.787533  1.238241
O    1.408396  0.601937  1.313153
H    0.251558  0.908311  -0.889563
H    -0.914286  2.041431  -0.149584
H    -1.331683  0.332544  -0.277043
N    -0.607045  0.799418  2.341427
C    -2.027320  1.093789  2.425193
C    -2.286407  1.582610  3.872738
O    -1.385321  1.578381  4.731218
H    -0.143317  0.784207  3.253258
H    -2.276604  1.928113  1.749352
C    -2.939886  -0.110157  2.056136
C    -4.319091  0.273013  1.431469
O    -4.688377  -0.388232  0.442411
O    -4.954595  1.235407  1.995979
H    -3.116800  -0.721930  2.956390
H    -2.415933  -0.752729  1.339433
N    -3.554302  1.965891  4.075302
C    -4.019258  2.340723  5.390351
H    -4.238015  1.742749  3.259590
H    -3.881296  1.531253  6.126841
H    -5.087465  2.580790  5.326790
H    -3.480761  3.221510  5.773959
