24
Energy: -18613.9299558 eV PBE+vdW (tier 2 basis)
C    -0.249709  -0.252665  -0.152164
C    0.258144  -0.364774  1.272822
O    1.349250  -0.883343  1.543149
H    -0.483852  0.789603  -0.406365
H    0.523294  -0.647634  -0.817377
H    -1.173718  -0.834108  -0.285090
N    -0.551438  0.118098  2.259852
C    -1.857715  0.785629  2.155838
C    -1.601905  2.307493  1.983473
O    -1.434430  2.752523  0.840185
H    -0.163541  0.015091  3.194159
H    -2.317446  0.507049  1.200980
C    -2.793121  0.291579  3.260345
C    -4.208567  0.980529  3.211025
O    -4.520349  1.670265  4.224319
O    -4.859415  0.761332  2.160988
H    -2.338239  0.406534  4.254016
H    -2.938133  -0.785375  3.085420
N    -1.457903  3.134804  3.056962
C    -1.667664  2.907821  4.483560
H    -1.259449  4.084781  2.760279
H    -1.540425  3.872086  4.990594
H    -0.917678  2.215681  4.899098
H    -2.686951  2.527942  4.684181
