24
Energy: -18614.1510851 eV PBE+vdW (tier 2 basis)
C    1.730315  -0.345532  -0.229074
C    0.979238  0.428499  0.847337
O    1.174426  1.642105  1.014422
H    1.648715  0.194152  -1.181086
H    2.793526  -0.379707  0.044737
H    1.363764  -1.372045  -0.353760
N    0.121436  -0.316861  1.570115
C    -0.718971  0.205238  2.625299
C    -0.081238  -0.164348  3.996873
O    1.103936  -0.486003  4.075192
H    -0.127662  -1.304124  1.361195
H    -0.675143  1.306761  2.565974
C    -2.152598  -0.300490  2.354574
C    -2.273061  -1.855168  2.484041
O    -1.443841  -2.518263  1.783571
O    -3.158081  -2.290523  3.261936
H    -2.387926  -0.020779  1.315913
H    -2.890791  0.191652  2.993415
N    -0.813741  -0.045423  5.153714
C    -2.244006  0.118784  5.390227
H    -0.255899  -0.341422  5.947981
H    -2.608634  1.082885  5.005953
H    -2.396758  0.123101  6.477029
H    -2.837006  -0.698490  4.947422
