24
Energy: -18614.6089355 eV PBE+vdW (tier 2 basis)
C    0.444860  -0.609632  0.577816
C    -0.055107  0.477240  1.513735
O    0.560194  1.539406  1.661504
H    1.441843  -0.325718  0.229227
H    0.490958  -1.591101  1.069401
H    -0.230889  -0.701290  -0.283925
N    -1.202219  0.215166  2.202385
C    -2.112169  -0.908750  2.034163
C    -2.941712  -0.784068  0.721483
O    -2.921173  0.237165  0.021088
H    -1.557219  1.020493  2.710184
H    -1.518877  -1.832310  1.959006
C    -3.006661  -1.046644  3.285957
C    -3.563835  -2.474611  3.625163
O    -3.952539  -2.624396  4.799048
O    -3.573538  -3.339766  2.682746
H    -3.869164  -0.363825  3.212224
H    -2.427576  -0.727133  4.163453
N    -3.647865  -1.904745  0.465077
C    -4.583767  -1.981841  -0.630809
H    -3.653013  -2.618783  1.262514
H    -4.392457  -2.870343  -1.252657
H    -4.478811  -1.082790  -1.251343
H    -5.623264  -2.041723  -0.268439
