24
Energy: -18614.6256103 eV PBE+vdW (tier 2 basis)
C    -0.185213  -0.148076  -0.172516
C    -0.000309  -0.518621  1.295266
O    1.020374  -1.095652  1.683375
H    0.731724  0.333903  -0.533161
H    -1.041971  0.515385  -0.344594
H    -0.327643  -1.069764  -0.753404
N    -1.053619  -0.179410  2.083850
C    -1.012749  -0.265950  3.540694
C    -1.968524  -1.383993  4.038271
O    -1.692213  -2.571375  3.834904
H    -1.695853  0.563458  1.760282
H    -0.005862  -0.624338  3.802729
C    -1.261798  1.144242  4.117843
C    -2.591820  1.763592  3.580385
O    -3.569815  1.778274  4.386255
O    -2.584748  2.124079  2.368569
H    -0.422739  1.781892  3.804596
H    -1.277780  1.101007  5.214941
N    -3.076163  -0.971155  4.709973
C    -4.066801  -1.916118  5.171392
H    -3.314530  0.041840  4.741861
H    -3.649028  -2.926012  5.081976
H    -4.988957  -1.861696  4.569474
H    -4.332964  -1.720511  6.221037
