24
Energy: -18614.6980344 eV PBE+vdW (tier 2 basis)
C    1.532505  -0.358990  1.356384
C    0.369125  -0.462919  2.339598
O    0.415475  0.097553  3.438969
H    2.446330  -0.707754  1.854268
H    1.381673  -0.933741  0.433378
H    1.681358  0.697624  1.097378
N    -0.684801  -1.185340  1.890853
C    -1.857934  -1.531306  2.678224
C    -2.351917  -2.877782  2.092114
O    -1.816610  -3.364315  1.072786
H    -0.594584  -1.787021  1.068011
H    -1.553252  -1.680284  3.725640
C    -2.934749  -0.418385  2.642459
C    -4.076679  -0.445348  3.712367
O    -4.678690  0.630901  3.877539
O    -4.308844  -1.556071  4.314824
H    -3.409330  -0.402296  1.647407
H    -2.423398  0.545216  2.759638
N    -3.373741  -3.409184  2.773339
C    -4.055435  -4.597495  2.318504
H    -3.812048  -2.733103  3.512514
H    -4.193233  -5.306038  3.149246
H    -3.464496  -5.079368  1.529250
H    -5.052726  -4.358556  1.912308
