24
Energy: -18614.1953716 eV PBE+vdW (tier 2 basis)
C    -0.929150  1.047841  0.299269
C    -0.468311  0.670399  1.705770
O    0.340294  1.390180  2.310025
H    -0.250207  1.816704  -0.081600
H    -1.949405  1.458443  0.320539
H    -0.947101  0.190942  -0.388238
N    -0.995932  -0.450087  2.256530
C    -1.911134  -1.383090  1.618049
C    -3.259654  -0.784046  1.194879
O    -3.784503  -1.084572  0.117029
H    -0.576877  -0.875934  3.134803
H    -1.484880  -1.778688  0.680762
C    -2.195356  -2.594433  2.552563
C    -0.986165  -3.127689  3.402360
O    -0.337200  -2.233293  4.041005
O    -0.820063  -4.363074  3.413695
H    -2.977149  -2.324098  3.281108
H    -2.595721  -3.407881  1.938075
N    -3.906114  0.070270  2.053437
C    -3.518874  0.558235  3.369774
H    -4.787787  0.394796  1.670933
H    -4.429379  0.869712  3.899579
H    -2.828089  1.412983  3.319597
H    -3.032243  -0.223622  3.962058
