24
Energy: -18614.2224523 eV PBE+vdW (tier 2 basis)
C    -1.330618  0.282574  3.513188
C    -0.834792  -0.149275  2.151706
O    0.227001  -0.758384  1.990508
H    -2.335019  -0.110559  3.726671
H    -1.388094  1.384311  3.529886
H    -0.626639  -0.083586  4.265785
N    -1.626327  0.166271  1.071804
C    -2.822103  1.011883  1.050970
C    -4.091081  0.229438  0.684785
O    -5.194325  0.770305  0.585741
H    -1.126533  0.074891  0.189015
H    -2.969153  1.416417  2.065526
C    -2.602547  2.253242  0.190276
C    -1.694205  3.318686  0.917108
O    -1.114806  4.127558  0.155465
O    -1.681986  3.249558  2.181238
H    -3.577566  2.720217  -0.009393
H    -2.160250  1.993757  -0.784872
N    -3.909178  -1.115988  0.498360
C    -4.994978  -2.015641  0.194921
H    -2.967129  -1.461758  0.653781
H    -4.817877  -2.564057  -0.743209
H    -5.900162  -1.405454  0.084801
H    -5.159633  -2.748408  1.000938
