24
Energy: -18614.301444 eV PBE+vdW (tier 2 basis)
C    -0.298244  2.171500  0.435280
C    -0.190363  0.932159  1.321023
O    0.895554  0.613717  1.826653
H    0.711962  2.555220  0.265605
H    -0.903600  2.951938  0.919359
H    -0.777072  1.953065  -0.529749
N    -1.324957  0.218504  1.517584
C    -2.661905  0.570884  1.069701
C    -3.305760  1.814438  1.728560
O    -4.037203  2.542069  1.043257
H    -1.355892  -0.586466  2.192210
H    -2.636566  0.868463  0.010177
C    -3.593664  -0.661983  1.179315
C    -3.583724  -1.466317  2.523071
O    -2.443862  -1.590866  3.092888
O    -4.675659  -1.942936  2.889826
H    -3.292595  -1.370538  0.389987
H    -4.621251  -0.349816  0.960106
N    -3.066392  2.125870  3.034201
C    -2.306191  1.438046  4.073760
H    -3.543396  2.982869  3.296910
H    -2.746981  1.701312  5.044147
H    -1.246651  1.738019  4.075942
H    -2.363590  0.347851  3.960189
