24
Energy: -18614.6119512 eV PBE+vdW (tier 2 basis)
C    -0.127551  -0.061471  0.019021
C    0.035579  -0.070282  1.531824
O    1.138658  0.117602  2.059305
H    -0.955691  0.586374  -0.296672
H    -0.344720  -1.077010  -0.347785
H    0.818539  0.272755  -0.416727
N    -1.078564  -0.307511  2.279850
C    -2.435851  -0.614796  1.818775
C    -3.240453  0.683571  1.522049
O    -3.090826  1.270643  0.435307
H    -0.925396  -0.425418  3.286774
H    -2.365181  -1.107658  0.837990
C    -3.092423  -1.594666  2.813356
C    -2.999642  -1.118342  4.301621
O    -1.974604  -1.469669  4.930036
O    -3.952550  -0.376230  4.712799
H    -4.142845  -1.739109  2.523480
H    -2.567332  -2.556100  2.732799
N    -4.073602  1.107752  2.488990
C    -4.823264  2.333382  2.332627
H    -4.141719  0.563510  3.398121
H    -5.395558  2.507903  3.251434
H    -5.520212  2.280142  1.480779
H    -4.159314  3.193665  2.153790
