24
Energy: -18614.1132739 eV PBE+vdW (tier 2 basis)
C    0.023124  1.135948  0.054981
C    0.108161  0.837127  1.546919
O    1.133325  1.108828  2.178082
H    0.680793  1.987373  -0.146689
H    0.394980  0.274067  -0.517835
H    -0.990653  1.359090  -0.296757
N    -0.950634  0.200121  2.146324
C    -2.329586  0.088148  1.637054
C    -2.433734  -0.726167  0.342067
O    -3.300189  -0.545049  -0.513438
H    -0.990629  0.325166  3.166099
H    -2.819231  -0.541371  2.402689
C    -3.090847  1.407034  1.698403
C    -3.229053  1.901760  3.188484
O    -2.756332  1.121559  4.076236
O    -3.796062  3.006743  3.335445
H    -4.095880  1.278646  1.273994
H    -2.601637  2.196177  1.108658
N    -1.520695  -1.748028  0.263265
C    -1.430808  -2.630544  -0.874078
H    -0.808012  -1.763994  0.986435
H    -0.493672  -2.484983  -1.436410
H    -1.495394  -3.687404  -0.573385
H    -2.275037  -2.397454  -1.534241
