24
Energy: -18614.3399997 eV PBE+vdW (tier 2 basis)
C    -0.098242  -0.534813  0.666556
C    -0.345287  0.233069  1.962018
O    0.602869  0.619166  2.665151
H    -1.022580  -0.756075  0.119125
H    0.418874  -1.475893  0.900365
H    0.571570  0.056166  0.028551
N    -1.646139  0.402766  2.263909
C    -2.119003  1.235207  3.357507
C    -1.527023  0.952322  4.744733
O    -1.268825  1.881175  5.514178
H    -2.454886  0.238203  1.578324
H    -1.843662  2.286899  3.174514
C    -3.666947  1.130270  3.428405
C    -4.450104  1.159164  2.066663
O    -3.932360  0.493387  1.100132
O    -5.530936  1.776284  2.066661
H    -3.946154  0.181179  3.916646
H    -4.043203  1.938036  4.064987
N    -1.399522  -0.344290  5.184093
C    -1.533606  -1.596030  4.461706
H    -0.954872  -0.379884  6.095540
H    -0.644219  -1.835253  3.855991
H    -2.400912  -1.575988  3.794536
H    -1.686834  -2.402067  5.192708
