24
Energy: -18614.390476 eV PBE+vdW (tier 2 basis)
C    -3.252546  1.440936  0.339798
C    -1.976174  0.794261  0.871714
O    -0.869062  1.159965  0.485223
H    -3.400048  2.391460  0.871283
H    -3.121385  1.662376  -0.725207
H    -4.149913  0.822254  0.475930
N    -2.191211  -0.207765  1.778281
C    -1.156676  -0.741483  2.669662
C    -0.733466  0.364527  3.687658
O    -1.455675  1.354585  3.893967
H    -3.130942  -0.238570  2.155729
H    -1.676240  -1.508050  3.270132
C    -0.020157  -1.455751  1.901489
C    0.669588  -2.621362  2.679844
O    0.625678  -3.755230  2.162298
O    1.239607  -2.307372  3.787432
H    0.734815  -0.717218  1.598454
H    -0.449646  -1.884101  0.988967
N    0.415708  0.099746  4.324749
C    0.897585  0.971510  5.369138
H    0.872283  -0.872452  4.141037
H    1.147506  1.972757  4.982170
H    1.801336  0.527068  5.804376
H    0.149036  1.112908  6.166876
