24
Energy: -18614.6300897 eV PBE+vdW (tier 2 basis)
C    -0.190542  -0.060892  -0.177270
C    -0.024109  -0.470177  1.282413
O    0.977814  -1.084301  1.662169
H    0.743169  0.398644  -0.523777
H    -1.024468  0.633944  -0.337407
H    -0.360799  -0.964150  -0.779261
N    -1.072249  -0.120545  2.073474
C    -1.044028  -0.244326  3.528093
C    -2.032141  -1.347583  3.993632
O    -1.789072  -2.541244  3.781508
H    -1.692612  0.645212  1.762743
H    -0.047866  -0.632829  3.787819
C    -1.265014  1.156401  4.139712
C    -2.574628  1.820649  3.606214
O    -3.565007  1.826520  4.398130
O    -2.543138  2.223276  2.408647
H    -0.408644  1.782509  3.851188
H    -1.293229  1.083893  5.235029
N    -3.142953  -0.927078  4.648166
C    -4.148002  -1.878060  5.067290
H    -3.368955  0.088668  4.701995
H    -4.974184  -1.326806  5.531660
H    -3.742078  -2.598297  5.794392
H    -4.537267  -2.461429  4.217442
