24
Energy: -18614.0497051 eV PBE+vdW (tier 2 basis)
C    -0.296467  0.335554  0.064226
C    -0.121779  -0.213905  1.467640
O    0.772909  -1.030795  1.724120
H    -1.344269  0.518784  -0.191033
H    0.132886  -0.393457  -0.630370
H    0.262116  1.277392  -0.031984
N    -0.940171  0.244050  2.460693
C    -2.091654  1.140029  2.443544
C    -3.310000  0.494049  1.762943
O    -3.229971  -0.473218  0.997837
H    -0.720573  -0.180807  3.355816
H    -2.335270  1.307328  3.511268
C    -1.801471  2.579037  1.957739
C    -1.875623  3.664499  3.105207
O    -1.607219  4.827222  2.727133
O    -2.204350  3.248690  4.255957
H    -0.792934  2.640005  1.532816
H    -2.488409  2.892564  1.158247
N    -4.535733  1.040947  2.037100
C    -4.892901  2.158464  2.896622
H    -5.273979  0.600351  1.496188
H    -4.058023  2.431614  3.559262
H    -5.151428  3.055088  2.311001
H    -5.757466  1.886780  3.520415
