24
Energy: -18614.7329012 eV PBE+vdW (tier 2 basis)
C    -0.967552  0.755885  -0.545748
C    -0.672081  0.693518  0.949978
O    0.086955  1.512949  1.481351
H    -1.681120  -0.007176  -0.881457
H    -1.363479  1.751193  -0.785593
H    -0.025280  0.634629  -1.096509
N    -1.300880  -0.314436  1.597348
C    -1.241994  -0.547813  3.034710
C    -0.385602  -1.784299  3.405294
O    0.543738  -1.705719  4.217773
H    -1.986350  -0.924767  1.133466
H    -0.719530  0.306024  3.482093
C    -2.680824  -0.660884  3.588764
C    -3.691001  -1.575620  2.811618
O    -4.853107  -1.590007  3.250697
O    -3.237682  -2.215564  1.789159
H    -3.127247  0.344267  3.618758
H    -2.648716  -1.013059  4.630401
N    -0.774341  -2.926588  2.783933
C    -0.172488  -4.204413  3.076979
H    -1.681747  -2.862114  2.270517
H    0.684732  -4.036971  3.740946
H    0.177283  -4.701903  2.158605
H    -0.883687  -4.879134  3.580918
