24
Energy: -18614.5818679 eV PBE+vdW (tier 2 basis)
C    -1.046541  0.088517  -0.617760
C    -0.587549  -0.141010  0.813382
O    0.619667  0.045988  1.121262
H    -0.836112  1.130461  -0.895345
H    -0.462979  -0.553122  -1.291816
H    -2.115414  -0.114477  -0.752440
N    -1.539383  -0.547226  1.651973
C    -1.378171  -0.711889  3.092594
C    -0.656332  -2.039980  3.465459
O    -1.113194  -2.871600  4.250588
H    -2.599967  -0.763899  1.407862
H    -0.702547  0.085139  3.454407
C    -2.757305  -0.576090  3.770867
C    -4.055323  -0.992859  2.992814
O    -5.075231  -1.136149  3.685131
O    -3.978780  -1.098579  1.709742
H    -2.912855  0.478826  4.044232
H    -2.751268  -1.152851  4.701958
N    0.561307  -2.153980  2.862638
C    1.401375  -3.314704  3.031331
H    0.838324  -1.384714  2.230448
H    0.906881  -3.989902  3.740291
H    2.390986  -3.041968  3.431668
H    1.552410  -3.849929  2.079715
