24
Energy: -18613.9570972 eV PBE+vdW (tier 2 basis)
C    0.212610  1.537726  2.402872
C    0.037675  0.029975  2.285196
O    0.917795  -0.736333  2.693696
H    1.078630  1.718874  3.046245
H    -0.672836  2.034019  2.819985
H    0.401139  1.987557  1.417726
N    -1.087664  -0.451350  1.674873
C    -2.352789  0.245113  1.385077
C    -2.198259  1.570431  0.630269
O    -2.647152  2.644224  1.033463
H    -1.337370  -1.430311  1.900698
H    -2.851825  -0.438674  0.673145
C    -3.265914  0.279324  2.606735
C    -3.643847  -1.174225  3.079361
O    -3.099476  -2.130946  2.436170
O    -4.447008  -1.235679  4.034966
H    -4.192500  0.823549  2.377383
H    -2.793163  0.814430  3.443418
N    -1.551404  1.515459  -0.585194
C    -1.173451  0.332287  -1.338620
H    -1.578970  2.404361  -1.075789
H    -0.384269  0.598755  -2.053806
H    -0.774296  -0.428916  -0.658970
H    -2.018073  -0.102887  -1.900379
