24
Energy: -18613.8903456 eV PBE+vdW (tier 2 basis)
C    -0.007619  -0.211710  -0.010696
C    -0.024544  -0.161039  1.516524
O    1.017223  -0.246794  2.162455
H    0.668243  -1.013872  -0.329134
H    0.398977  0.739242  -0.381152
H    -0.995767  -0.370430  -0.463820
N    -1.270167  -0.028960  2.056590
C    -1.579364  0.213010  3.459245
C    -1.212810  1.656791  3.841567
O    -0.638016  2.433571  3.073437
H    -2.031580  0.102930  1.403804
H    -2.682161  0.107370  3.547872
C    -1.080461  -0.896307  4.407229
C    -2.251209  -1.736199  5.045852
O    -1.877755  -2.669318  5.793454
O    -3.433474  -1.374223  4.753652
H    -0.460003  -0.494864  5.220114
H    -0.425433  -1.583551  3.861096
N    -1.595294  2.088211  5.085969
C    -2.398565  1.421250  6.099154
H    -1.287795  3.038253  5.267393
H    -3.117020  2.137852  6.523570
H    -1.783315  1.016856  6.918736
H    -2.966736  0.585922  5.664551
