24
Energy: -18614.6930543 eV PBE+vdW (tier 2 basis)
C    -0.058645  -0.187037  0.290435
C    -0.147747  -0.047451  1.805763
O    0.873791  0.038908  2.499108
H    -0.595634  0.620400  -0.225624
H    -0.497890  -1.136760  -0.048827
H    1.000004  -0.165618  0.016149
N    -1.392159  -0.045421  2.353926
C    -2.675213  0.006482  1.651582
C    -3.060633  1.452015  1.240082
O    -3.135198  1.780335  0.043915
H    -1.461852  0.153995  3.356436
H    -2.568115  -0.519884  0.695006
C    -3.756322  -0.714828  2.481540
C    -3.902037  -0.350427  3.999586
O    -3.243668  0.669249  4.419441
O    -4.646139  -1.096328  4.659231
H    -4.737420  -0.550460  2.010101
H    -3.571417  -1.798069  2.436011
N    -3.280880  2.281609  2.277054
C    -3.649797  3.663517  2.084819
H    -3.257420  1.826293  3.230215
H    -2.897811  4.199375  1.485068
H    -3.729823  4.144693  3.066680
H    -4.614975  3.764414  1.561302
