24
Energy: -18613.8484073 eV PBE+vdW (tier 2 basis)
C    0.164246  -0.458062  0.436168
C    -0.236192  0.509869  1.537194
O    0.316701  1.610990  1.657367
H    0.799067  0.080577  -0.273168
H    -0.705031  -0.877984  -0.085184
H    0.734414  -1.295745  0.862248
N    -1.218715  0.112592  2.390238
C    -1.967455  -1.152408  2.433335
C    -0.980839  -2.316272  2.700419
O    -0.145451  -2.183014  3.603433
H    -1.370683  0.763344  3.153659
H    -2.550325  -1.120162  3.372650
C    -3.068380  -1.267083  1.375501
C    -4.269481  -2.156792  1.883954
O    -4.618540  -1.934703  3.071489
O    -4.745726  -2.970428  1.045572
H    -2.723646  -1.600334  0.389986
H    -3.478185  -0.254025  1.244791
N    -1.025928  -3.502101  2.019365
C    -1.710162  -3.947103  0.808927
H    -0.314424  -4.126517  2.388017
H    -2.791878  -3.741715  0.827190
H    -1.273563  -3.497641  -0.098932
H    -1.576318  -5.034164  0.741527
