24
Energy: -18614.2124462 eV PBE+vdW (tier 2 basis)
C    0.645711  0.215383  -0.600540
C    0.061223  0.640422  0.740362
O    0.080794  1.832300  1.097911
H    0.480918  -0.847279  -0.816487
H    0.201906  0.827677  -1.396505
H    1.725736  0.415459  -0.592009
N    -0.458900  -0.363386  1.466469
C    -1.039578  -0.152191  2.766850
C    0.039433  -0.104421  3.868498
O    1.148087  -0.618277  3.771845
H    -0.509514  -1.393609  1.201426
H    -1.532421  0.833532  2.760364
C    -2.087833  -1.264573  3.049579
C    -1.770276  -2.736346  2.581153
O    -2.320832  -3.631030  3.253307
O    -1.048992  -2.872283  1.536813
H    -3.022864  -0.984581  2.537608
H    -2.314655  -1.314266  4.121713
N    -0.327795  0.542776  5.030721
C    -1.491444  1.383046  5.245324
H    0.426198  0.588839  5.707512
H    -1.497148  1.708303  6.293098
H    -2.426186  0.833162  5.067197
H    -1.490567  2.282345  4.606792
