24
Energy: -18614.1219091 eV PBE+vdW (tier 2 basis)
C    0.081468  0.550536  -0.231577
C    0.090668  0.091960  1.224833
O    1.146057  -0.216809  1.784933
H    0.572938  -0.215401  -0.844707
H    0.676004  1.470126  -0.313587
H    -0.923592  0.741563  -0.630098
N    -1.128175  0.078870  1.817143
C    -1.402394  -0.338007  3.190901
C    -2.660510  -1.216521  3.087938
O    -3.555506  -0.923566  2.276935
H    -1.966193  0.250640  1.267466
H    -0.531778  -0.891287  3.563136
C    -1.643281  0.873671  4.115596
C    -1.595946  0.597045  5.661206
O    -2.286718  1.373081  6.361593
O    -0.831241  -0.343590  6.033441
H    -2.594067  1.361712  3.860587
H    -0.837068  1.594149  3.904573
N    -2.780651  -2.303964  3.887837
C    -1.810709  -2.876336  4.813383
H    -3.653947  -2.799347  3.733684
H    -2.357189  -3.410936  5.600737
H    -1.234626  -2.065559  5.297551
H    -1.138662  -3.589415  4.306645
