24
Energy: -18614.6952709 eV PBE+vdW (tier 2 basis)
C    0.429583  -0.591125  2.844476
C    0.436541  0.301768  1.608985
O    1.500001  0.696440  1.113964
H    -0.091894  -1.539985  2.659105
H    -0.079760  -0.101163  3.687401
H    1.470038  -0.785216  3.120555
N    -0.771853  0.657734  1.097173
C    -2.088171  0.152340  1.488518
C    -2.416077  -1.212253  0.825641
O    -2.552984  -2.235699  1.516346
H    -0.774343  1.167907  0.208265
H    -2.067262  -0.075866  2.561328
C    -3.158728  1.235421  1.246068
C    -3.191997  1.955568  -0.146211
O    -3.950651  2.937487  -0.222003
O    -2.437651  1.474791  -1.067405
H    -3.039976  2.023756  2.003889
H    -4.154745  0.797278  1.412166
N    -2.514608  -1.159018  -0.518540
C    -2.814591  -2.317904  -1.322464
H    -2.448017  -0.189612  -0.930907
H    -2.917088  -3.186224  -0.659597
H    -2.012420  -2.517945  -2.050710
H    -3.754347  -2.182481  -1.881043
