24
Energy: -18614.6090749 eV PBE+vdW (tier 2 basis)
C    0.459562  -0.627133  0.605749
C    -0.077899  0.460162  1.520041
O    0.524441  1.527627  1.682088
H    -0.184831  -0.722320  -0.279289
H    1.467414  -0.340357  0.292582
H    0.491368  -1.607443  1.100837
N    -1.244064  0.192773  2.174140
C    -2.141742  -0.937426  1.982960
C    -2.926420  -0.825485  0.641475
O    -2.871115  0.178937  -0.081882
H    -1.619708  0.997954  2.667185
H    -1.540112  -1.857490  1.933109
C    -3.075802  -1.070501  3.206826
C    -3.642811  -2.495783  3.540407
O    -4.025954  -2.650485  4.715317
O    -3.668421  -3.355955  2.593069
H    -3.936519  -0.389483  3.099641
H    -2.525877  -0.743739  4.100007
N    -3.642533  -1.934525  0.378051
C    -4.525403  -2.002050  -0.762677
H    -3.696991  -2.639688  1.184922
H    -4.952637  -3.010731  -0.816845
H    -3.983809  -1.792671  -1.697650
H    -5.351651  -1.273369  -0.697564
