24
Energy: -18613.7324319 eV PBE+vdW (tier 2 basis)
C    0.814590  -0.352305  0.122866
C    0.513456  0.017516  1.573447
O    1.422814  0.234380  2.372476
H    1.390007  0.462835  -0.334879
H    1.447457  -1.248711  0.115260
H    -0.079309  -0.543290  -0.486215
N    -0.814398  0.082629  1.874681
C    -1.376177  0.491707  3.169035
C    -2.119493  -0.728939  3.771013
O    -1.596109  -1.378220  4.677708
H    -1.471181  -0.045827  1.113561
H    -0.520866  0.628561  3.839674
C    -2.131999  1.825035  3.029802
C    -2.974832  2.230698  4.298722
O    -4.216382  1.982560  4.222744
O    -2.325497  2.751469  5.233489
H    -2.790546  1.794677  2.149181
H    -1.367549  2.595561  2.853798
N    -3.296789  -1.160214  3.213504
C    -4.238547  -0.435486  2.364032
H    -3.669567  -1.947118  3.735158
H    -5.133281  -1.060701  2.252683
H    -3.832034  -0.274313  1.351589
H    -4.513129  0.534444  2.824974
