24
Energy: -18614.7030555 eV PBE+vdW (tier 2 basis)
C    0.589651  0.520822  0.383328
C    0.001875  -0.153636  1.620458
O    0.645616  -0.222604  2.671942
H    -0.065592  0.474825  -0.496175
H    0.794387  1.573405  0.619706
H    1.549130  0.044263  0.145050
N    -1.256183  -0.628762  1.459006
C    -1.985339  -1.415387  2.441537
C    -2.937967  -2.309768  1.609360
O    -3.016920  -2.184830  0.367799
H    -1.661475  -0.729141  0.524320
H    -1.272574  -2.053127  2.987379
C    -2.724037  -0.524604  3.471520
C    -3.244784  -1.176691  4.795680
O    -3.454961  -0.386928  5.733390
O    -3.427439  -2.449068  4.810022
H    -3.582349  -0.037208  2.979969
H    -2.038924  0.277825  3.771642
N    -3.643129  -3.171938  2.346353
C    -4.665592  -4.000817  1.751782
H    -3.577541  -2.997839  3.427260
H    -5.185315  -4.540310  2.552819
H    -4.237777  -4.736478  1.051663
H    -5.402761  -3.407004  1.186190
