24
Energy: -18614.2919098 eV PBE+vdW (tier 2 basis)
C    -0.101786  -1.361065  1.722448
C    -0.115167  -0.474844  2.953189
O    0.693171  -0.636810  3.879110
H    0.889241  -1.818201  1.641613
H    -0.364362  -0.836468  0.794910
H    -0.847668  -2.160975  1.838057
N    -1.069024  0.493869  3.016206
C    -2.079153  0.852459  2.032412
C    -2.569253  2.249149  2.413102
O    -2.382229  2.728337  3.541047
H    -1.081778  1.069522  3.858613
H    -1.635095  0.883863  1.021927
C    -3.256341  -0.156212  1.915348
C    -3.315992  -0.927030  0.541665
O    -4.003347  -1.972601  0.557782
O    -2.690537  -0.393503  -0.424564
H    -4.226122  0.353209  2.028510
H    -3.196987  -0.882665  2.735279
N    -3.254704  2.957082  1.470270
C    -3.561570  2.605078  0.092543
H    -3.593554  3.845191  1.827938
H    -4.650435  2.564102  -0.064708
H    -3.154469  1.612329  -0.166113
H    -3.136839  3.349187  -0.599581
