24
Energy: -18614.4471651 eV PBE+vdW (tier 2 basis)
C    0.151335  -0.234689  0.024264
C    0.150025  -0.056569  1.526344
O    1.202243  -0.021085  2.177800
H    -0.261248  -1.218756  -0.240484
H    1.191174  -0.181163  -0.310758
H    -0.449076  0.529610  -0.487151
N    -1.048737  0.043391  2.179263
C    -2.444480  0.060762  1.719114
C    -2.746095  -1.085039  0.713428
O    -2.674044  -2.266962  1.087477
H    -0.911778  0.160407  3.178208
H    -3.008659  -0.278849  2.602483
C    -2.975096  1.481010  1.405727
C    -2.350101  2.312460  0.240256
O    -2.407950  1.777976  -0.928763
O    -1.885342  3.429505  0.526300
H    -2.863443  2.080676  2.319503
H    -4.056444  1.388368  1.206664
N    -3.120565  -0.688096  -0.514763
C    -3.384302  -1.668481  -1.541827
H    -2.908175  0.345964  -0.778814
H    -2.487520  -2.263387  -1.789235
H    -3.720469  -1.146848  -2.446375
H    -4.162254  -2.379204  -1.224661
