24
Energy: -18614.1930445 eV PBE+vdW (tier 2 basis)
C    -0.095866  0.319711  -0.039896
C    -0.013990  -0.058302  1.437051
O    1.087778  -0.223722  1.978416
H    -0.833368  -0.281357  -0.589820
H    0.897087  0.180492  -0.477769
H    -0.391753  1.372016  -0.158414
N    -1.181483  -0.175237  2.123294
C    -2.522575  -0.118579  1.556430
C    -2.913119  1.210004  0.892611
O    -3.526382  1.223989  -0.180237
H    -1.207900  -0.704450  3.049426
H    -2.643943  -0.861265  0.749328
C    -3.575917  -0.441706  2.651252
C    -3.239449  -1.639402  3.612375
O    -2.052887  -1.647456  4.082020
O    -4.175769  -2.423237  3.862019
H    -4.533733  -0.636930  2.156916
H    -3.716608  0.435505  3.303718
N    -2.588803  2.399618  1.501991
C    -2.109923  2.649578  2.852030
H    -2.985441  3.187437  0.997479
H    -2.935485  2.774405  3.573024
H    -1.501236  3.564338  2.856513
H    -1.481084  1.818642  3.183525
