24
Energy: -18614.7356033 eV PBE+vdW (tier 2 basis)
C    -0.451465  1.202484  -0.051980
C    0.217005  0.879503  1.276834
O    1.433419  0.657160  1.348161
H    -1.295267  0.534832  -0.271408
H    0.301612  1.116765  -0.840392
H    -0.851895  2.227175  -0.047740
N    -0.582560  0.856170  2.374976
C    -1.995885  1.181059  2.466323
C    -2.253888  1.604202  3.934692
O    -1.361122  1.516323  4.796852
H    -0.126128  0.775530  3.286750
H    -2.220816  2.053650  1.831841
C    -2.935225  0.020885  2.031479
C    -4.295711  0.469558  1.409194
O    -4.691720  -0.166633  0.413878
O    -4.888055  1.452991  1.983168
H    -3.142041  -0.626671  2.899741
H    -2.418813  -0.603862  1.293623
N    -3.511297  2.029060  4.135602
C    -4.005158  2.352022  5.452903
H    -4.177986  1.883590  3.292143
H    -4.867424  1.717921  5.712633
H    -4.331110  3.403125  5.512646
H    -3.207469  2.190161  6.189081
