19
Energy: -605151.9400452  eV PBE+vdW (tier 2 basis)
N    0.20733  -0.27037  -0.18139
C    0.02353  -0.22070  1.31230
C    1.36365  -0.09719  2.03885
O    1.49132  -0.19183  3.22921
H    0.45553  0.66734  -0.51035
H    -0.69658  -0.49788  -0.60835
H    -0.50049  0.72100  1.55078
C    -0.87713  -1.35350  1.85894
C    -0.26996  -2.77836  2.00907
C    0.63261  -2.99777  0.83604
O    0.16118  -3.20628  -0.33423
O    1.88394  -2.71641  0.98439
H    -1.76718  -1.40047  1.21519
H    -1.22500  -1.03491  2.84874
H    -1.08353  -3.51199  2.02889
H    0.31391  -2.85127  2.93233
O    2.39045  0.21279  1.17798
H    3.18960  0.32528  1.73235
Pb    1.92298  -1.87004  -1.12865
