19
Energy: -605151.9777773  eV PBE+vdW (tier 2 basis)
N    0.66612  -0.21895  -0.19082
C    0.24389  -0.13476  1.23148
C    1.51781  -0.27799  2.08728
O    2.61471  -0.52181  1.59606
H    -0.12388  -0.49675  -0.77801
H    0.99223  0.69407  -0.51604
H    -0.13169  0.88351  1.43596
C    -0.94269  -1.09036  1.56827
C    -0.70478  -2.62458  1.68381
C    0.42264  -3.00606  0.75816
O    0.27754  -2.96910  -0.50294
O    1.59028  -3.11342  1.29119
H    -1.70014  -0.89653  0.79576
H    -1.39885  -0.74474  2.50635
H    -1.63271  -3.14163  1.41377
H    -0.42813  -2.90128  2.70633
O    1.42459  -0.07449  3.39507
H    0.51802  0.15340  3.67398
Pb    2.51904  -1.98653  -0.48266
