19
Energy: -605151.8119099  eV PBE+vdW (tier 2 basis)
N    0.00135  -1.93730  2.02487
C    -0.36682  -0.66058  1.44879
C    0.72596  0.38033  1.71730
O    1.42360  0.50995  2.74068
H    -0.40089  -2.11632  2.94207
H    -0.20992  -2.71031  1.40113
H    -0.34399  -0.76553  0.35583
C    -1.78041  -0.05824  1.77718
C    -2.32641  -0.25903  3.21699
C    -1.26416  0.04516  4.22897
O    -0.86829  1.24446  4.43202
O    -0.62891  -0.93793  4.77367
H    -2.49692  -0.53358  1.09531
H    -1.77865  1.01297  1.53252
H    -2.66534  -1.29047  3.36536
H    -3.18215  0.41295  3.35780
O    0.90453  1.19350  0.68939
H    1.59113  1.85856  0.90684
Pb    1.20829  0.40241  5.08830
