19
Energy: -605150.9511145  eV PBE+vdW (tier 2 basis)
N    -0.35851  0.42712  -0.04144
C    -0.09746  0.09512  1.36214
C    1.36299  -0.33669  1.54637
O    1.77837  -1.47236  1.38712
H    0.07397  -0.23324  -0.68759
H    -0.01886  1.35819  -0.27734
H    -0.24827  1.01032  1.94831
C    -1.07841  -0.96490  1.88784
C    -1.07845  -2.25312  1.06039
C    -1.83965  -3.38699  1.62534
O    -2.13150  -4.41079  0.88045
O    -2.20521  -3.42051  2.86626
H    -2.08027  -0.51506  1.87664
H    -0.83316  -1.19331  2.93403
H    -0.03205  -2.61563  0.96488
H    -1.42860  -2.09611  0.02910
O    2.16093  0.70967  1.84038
H    3.08239  0.38082  1.87127
Pb    -3.12900  -5.47371  2.59517
