19
Energy: -605151.6438547  eV PBE+vdW (tier 2 basis)
N    0.85766  -1.39098  0.81642
C    0.20707  -0.20641  1.30812
C    1.11784  0.78583  2.04367
O    2.21333  0.52850  2.58182
H    1.00507  -2.11953  1.50901
H    1.66976  -1.23186  0.22758
H    -0.13592  0.37233  0.43489
C    -1.09202  -0.55905  2.11264
C    -1.04587  -0.68721  3.66228
C    0.28782  -1.14521  4.17204
O    0.93973  -0.41892  5.00360
O    0.85790  -2.17962  3.65469
H    -1.42649  -1.50385  1.66796
H    -1.85738  0.19037  1.88187
H    -1.81589  -1.40844  3.97189
H    -1.27673  0.26574  4.15051
O    0.66086  2.02626  2.00988
H    1.27765  2.62235  2.48456
Pb    2.91264  -1.19931  4.07458
