19
Energy: -605152.0042431  eV PBE+vdW (tier 2 basis)
N    -0.03040  -0.04611  -0.20368
C    -0.11742  -0.11473  1.29471
C    1.32083  0.01470  1.82606
O    2.25317  0.31233  1.10799
H    0.11966  -1.00230  -0.54796
H    0.86283  0.43843  -0.39878
H    -0.64249  0.79027  1.64329
C    -0.87517  -1.35907  1.79872
C    -2.42827  -1.23283  1.79259
C    -2.79729  -0.53867  0.51972
O    -2.90714  0.74568  0.52842
O    -2.75593  -1.16870  -0.59669
H    -0.56004  -1.56237  2.82811
H    -0.57420  -2.22897  1.19573
H    -2.76754  -0.63433  2.64520
H    -2.87566  -2.23167  1.84380
O    1.39113  -0.17957  3.14883
H    2.31674  -0.03135  3.43125
Pb    -1.97427  0.79029  -1.56568
