19
Energy: -605152.1559502  eV PBE+vdW (tier 2 basis)
N    0.31554  -0.38781  0.20748
C    0.00226  -0.26700  1.64394
C    1.36345  -0.47856  2.36652
O    1.57418  -0.34710  3.59059
H    0.21488  0.49117  -0.29727
H    -0.24482  -1.09646  -0.26330
H    -0.32676  0.75536  1.88306
C    -1.08282  -1.28129  2.10938
C    -2.11842  -0.72588  3.11935
C    -1.37689  -0.24056  4.32707
O    -1.03678  0.99620  4.40077
O    -0.92586  -1.08833  5.17672
H    -0.61495  -2.18213  2.52897
H    -1.64306  -1.60133  1.22076
H    -2.80554  -1.53321  3.39983
H    -2.68805  0.10055  2.67790
O    2.32136  -0.82024  1.56586
H    1.82385  -0.78727  0.64391
Pb    0.80143  0.36287  5.66946
