19
Energy: -605151.8266162  eV PBE+vdW (tier 2 basis)
N    -0.47821  -0.11377  0.39269
C    0.01795  -0.15607  1.74700
C    1.54882  -0.05610  1.89518
O    2.43270  -0.62254  1.21828
H    -0.32258  0.78145  -0.06416
H    -0.15297  -0.87355  -0.20274
H    -0.34143  0.74783  2.25778
C    -0.55663  -1.35073  2.56930
C    -0.69049  -2.71443  1.84235
C    0.60951  -3.09067  1.20842
O    1.61678  -3.42432  1.92998
O    0.76763  -2.91787  -0.06051
H    -1.56860  -1.05715  2.87470
H    0.03178  -1.47785  3.48849
H    -1.46606  -2.66532  1.07042
H    -0.97352  -3.47125  2.58496
O    1.89942  0.79681  2.84561
H    2.87695  0.84035  2.91099
Pb    3.03295  -2.70583  0.25326
