19
Energy: -605151.7504238  eV PBE+vdW (tier 2 basis)
N    0.34775  -0.07179  -0.09618
C    -0.15018  0.24276  1.23039
C    0.96973  0.79855  2.10065
O    0.80735  1.47023  3.14329
H    0.65358  0.75665  -0.60655
H    -0.37907  -0.52219  -0.65050
H    -0.94225  1.01702  1.26392
C    -0.71427  -1.06561  1.88816
C    -2.08553  -0.91374  2.59172
C    -1.95902  0.16794  3.61714
O    -1.30799  -0.04977  4.70255
O    -2.33368  1.36428  3.32495
H    0.01210  -1.49271  2.59177
H    -0.81822  -1.80000  1.07989
H    -2.34428  -1.86395  3.07467
H    -2.86834  -0.64484  1.87281
O    2.18709  0.52029  1.68300
H    2.83613  0.89943  2.31249
Pb    -0.75889  2.18545  4.78883
