19
Energy: -605152.2372372  eV PBE+vdW (tier 2 basis)
N    0.67916  -1.52200  2.68270
C    -0.02533  -0.69541  1.66364
C    0.59905  0.70165  1.71016
O    1.49496  1.01920  2.49111
H    1.54669  -1.89711  2.29185
H    0.09304  -2.31587  2.95223
H    0.21198  -1.07541  0.65566
C    -1.57588  -0.77367  1.77475
C    -2.31020  -0.04636  2.94139
C    -1.37763  0.01946  4.12046
O    -0.67844  1.09695  4.24040
O    -1.10051  -1.01482  4.80485
H    -1.81562  -1.84579  1.80721
H    -1.98480  -0.40029  0.82833
H    -3.22062  -0.60480  3.18598
H    -2.58253  0.97248  2.64823
O    0.11352  1.50751  0.77771
H    0.55384  2.38014  0.84734
Pb    1.17332  -0.15084  4.78400
