19
Energy: -605151.7170058  eV PBE+vdW (tier 2 basis)
N    -0.58627  0.33972  0.43592
C    -0.01349  -0.05861  1.69523
C    1.52998  -0.11703  1.75180
O    2.26788  -0.34331  0.77825
H    -0.36073  1.29985  0.18485
H    -0.33697  -0.27407  -0.33858
H    -0.29682  0.70687  2.43826
C    -0.62527  -1.39816  2.22162
C    -0.77121  -2.54897  1.19376
C    0.52455  -2.78485  0.47790
O    0.65128  -2.40714  -0.74475
O    1.54995  -3.21141  1.12278
H    -1.63409  -1.15674  2.57849
H    -0.04894  -1.75541  3.08666
H    -1.54994  -2.31849  0.45893
H    -1.06116  -3.45726  1.73804
O    2.12913  0.10625  2.91349
H    1.48498  0.33173  3.61248
Pb    2.94014  -2.23099  -0.45015
