19
Energy: -605152.1231062  eV PBE+vdW (tier 2 basis)
N    0.18018  0.17365  0.28165
C    -0.63889  -0.25491  1.47532
C    -0.01518  0.63527  2.61865
O    0.97023  1.31057  2.26557
H    0.86931  0.86006  0.82882
H    -0.36004  0.66987  -0.43154
H    -1.67929  0.05472  1.31172
C    -0.55500  -1.78348  1.70935
C    -1.89126  -2.44490  2.12996
C    -2.37205  -1.75500  3.37484
O    -1.83603  -2.04424  4.49926
O    -3.16837  -0.75546  3.26120
H    0.21363  -2.00697  2.46144
H    -0.23751  -2.27170  0.77645
H    -1.71128  -3.50741  2.33091
H    -2.64229  -2.34591  1.33698
O    -0.51346  0.62599  3.79136
H    0.68770  -0.59752  -0.16111
Pb    -2.21539  0.14037  5.20517
