19
Energy: -605152.1622158  eV PBE+vdW (tier 2 basis)
N    0.38952  0.12702  0.33963
C    0.14560  -0.10979  1.81621
C    1.52875  -0.62063  2.31388
O    1.51161  -1.47848  3.26616
H    1.26789  0.66476  0.25334
H    0.60066  -0.82219  -0.06265
H    -0.06717  0.86499  2.27682
C    -1.03202  -1.06870  2.06316
C    -1.07732  -2.39686  1.24654
C    0.28322  -3.04960  1.23973
O    1.17311  -2.52133  0.45687
O    0.60932  -3.93861  2.07431
H    -1.97568  -0.53418  1.88616
H    -0.99974  -1.30531  3.13379
H    -1.39157  -2.20991  0.21003
H    -1.81781  -3.05932  1.70684
O    2.54219  -0.28365  1.66504
H    -0.38775  0.58767  -0.14410
Pb    2.83419  -3.03588  2.15124
