19
Energy: -605151.6721889  eV PBE+vdW (tier 2 basis)
N    0.03982  0.15335  0.13639
C    -0.07937  0.01071  1.57181
C    1.31236  -0.12117  2.20671
O    2.28848  -0.68085  1.68670
H    0.12273  -0.73545  -0.35530
H    -0.73927  0.67771  -0.25395
H    -0.47539  0.96637  1.95118
C    -1.03744  -1.10244  2.14302
C    -1.05268  -2.45992  1.39470
C    0.34619  -2.95495  1.17236
O    1.06588  -3.33284  2.16228
O    0.87192  -2.84242  0.00258
H    -2.05737  -0.69881  2.09917
H    -0.81228  -1.27767  3.20551
H    -1.55266  -2.36666  0.42426
H    -1.60949  -3.18259  2.00475
O    1.50084  0.38828  3.41577
H    0.71477  0.87450  3.72956
Pb    2.97998  -2.78913  0.95348
