19
Energy: -605151.9769664  eV PBE+vdW (tier 2 basis)
N    0.83895  -0.36958  0.15500
C    0.21759  -0.20195  1.49437
C    1.34472  -0.35444  2.53464
O    2.48865  -0.66728  2.22237
H    0.13177  -0.64593  -0.53024
H    1.24863  0.51407  -0.15647
H    -0.13730  0.83860  1.59914
C    -1.04746  -1.09411  1.69068
C    -0.89877  -2.62940  1.90136
C    0.33270  -3.09772  1.16784
O    1.40378  -3.22946  1.87087
O    0.37455  -3.11084  -0.10133
H    -1.67468  -0.90686  0.80780
H    -1.61912  -0.68797  2.53663
H    -1.79997  -3.12155  1.51792
H    -0.78721  -2.86925  2.96375
O    1.07178  -0.08274  3.80435
H    0.14641  0.19634  3.93619
Pb    2.63275  -2.22022  0.21251
