19
Energy: -605151.8835710  eV PBE+vdW (tier 2 basis)
N    0.61075  -1.82080  0.15192
C    -0.05618  -0.78936  1.02516
C    0.87820  0.39635  1.33929
O    0.68882  1.17551  2.23664
H    1.25662  -1.32225  -0.47149
H    1.21139  -2.39996  0.75007
H    -0.87436  -0.34915  0.43068
C    -0.63337  -1.38139  2.32478
C    -2.04814  -2.01329  2.20166
C    -2.02552  -2.84082  0.95832
O    -2.41762  -2.30995  -0.14931
O    -1.39463  -3.95929  0.93996
H    -0.68398  -0.56630  3.05630
H    0.06897  -2.12844  2.72431
H    -2.81388  -1.23469  2.11324
H    -2.24979  -2.62940  3.08502
O    1.89621  0.48143  0.44268
H    2.41680  1.28119  0.65880
Pb    -0.76359  -3.47013  -1.22412
