19
Energy: -605150.9552361  eV PBE+vdW (tier 2 basis)
N    -0.64659  0.74630  0.72136
C    -0.10608  0.11001  1.90796
C    1.42254  0.13995  2.09231
O    1.96638  -0.02645  3.16048
H    -0.58607  1.76188  0.76026
H    -0.18121  0.43588  -0.13196
H    -0.50601  0.62830  2.79047
C    -0.55676  -1.36673  1.96060
C    -2.08693  -1.49980  1.86086
C    -2.82489  -1.37996  3.13872
O    -3.92784  -2.03520  3.32360
O    -2.41154  -0.61126  4.09700
H    -0.16246  -1.84148  2.86747
H    -0.12253  -1.90289  1.10397
H    -2.40478  -2.42953  1.37458
H    -2.43016  -0.66645  1.20681
O    2.07925  0.33684  0.92464
H    3.03646  0.31143  1.12478
Pb    -4.18893  -1.16089  5.39120
