19
Energy: -10950.7710612 eV PBE+vdW (tier 2 basis)
N    0.041436  0.119121  0.120266
C    -0.367437  -0.218014  1.479204
C    0.489787  0.334868  2.624120
O    0.143450  0.372541  3.786763
H    -0.064361  1.118504  -0.047415
H    1.028500  -0.092307  -0.023495
H    -1.363340  0.220191  1.647329
C    -0.526361  -1.756363  1.674678
C    -1.669325  -2.290855  0.807664
C    0.780867  -2.514117  1.412079
H    -0.796348  -1.892292  2.733484
H    -2.622788  -1.806531  1.061045
H    -1.792775  -3.372303  0.956401
H    -1.471173  -2.109168  -0.256596
H    1.609651  -2.142670  2.031051
H    1.082340  -2.442335  0.356951
H    0.653698  -3.580942  1.638893
O    1.716274  0.776331  2.215000
H    2.167903  1.077341  3.027576
