19
Energy: -10950.7982746 eV PBE+vdW (tier 2 basis)
N    1.575542  -2.098177  1.675629
C    0.603245  -1.007575  1.745280
C    1.203755  0.264276  2.348322
O    2.044753  0.294343  3.224281
H    2.280322  -1.887797  0.968233
H    2.082556  -2.155801  2.561508
H    0.285256  -0.767887  0.720610
C    -0.671095  -1.464713  2.518554
C    -0.389446  -1.838934  3.977659
C    -1.821656  -0.458639  2.411163
H    -0.963848  -2.384020  1.986194
H    0.384550  -2.612922  4.060773
H    -1.299973  -2.238413  4.444565
H    -0.065831  -0.970401  4.568415
H    -2.018874  -0.174145  1.368382
H    -1.616738  0.463747  2.972441
H    -2.742886  -0.893990  2.821137
O    0.690304  1.397921  1.789763
H    1.118065  2.144127  2.255091
