19
Energy: -10950.7898792 eV PBE+vdW (tier 2 basis)
N    -0.257777  0.519850  0.176399
C    -0.179741  0.290496  1.624715
C    1.262446  0.265962  2.129045
O    1.753712  1.050935  2.913441
H    0.148276  1.423826  -0.065334
H    0.278811  -0.191728  -0.322376
H    -0.643228  1.153800  2.124778
C    -0.956558  -0.986206  2.025881
C    -0.778152  -1.309257  3.513762
C    -2.437931  -0.845208  1.662716
H    -0.529792  -1.818292  1.438912
H    0.270918  -1.497431  3.779477
H    -1.351599  -2.206339  3.782160
H    -1.138933  -0.483075  4.144166
H    -2.564819  -0.572183  0.608963
H    -2.916930  -0.066299  2.275399
H    -2.971803  -1.787345  1.846972
O    1.988924  -0.744101  1.556655
H    2.893180  -0.655407  1.914269
