19
Energy: -10950.6760276 eV PBE+vdW (tier 2 basis)
N    0.384247  -2.606249  1.084829
C    0.128497  -1.156240  1.176414
C    1.503212  -0.484886  1.136507
O    2.052453  0.122293  2.027293
H    0.928310  -2.804771  0.244812
H    -0.499490  -3.104906  0.984483
H    -0.432235  -0.764608  0.299819
C    -0.655301  -0.784670  2.448787
C    -1.045055  0.698908  2.435861
C    -1.903312  -1.661071  2.613392
H    0.014746  -0.967219  3.303304
H    -1.572259  0.964512  3.361881
H    -1.721788  0.921479  1.596350
H    -0.168326  1.352253  2.355138
H    -2.570890  -1.580762  1.740498
H    -2.478587  -1.338019  3.491242
H    -1.652763  -2.718992  2.765280
O    2.088611  -0.677981  -0.085118
H    2.972931  -0.267071  -0.025772
