19
Energy: -10950.82152 eV PBE+vdW (tier 2 basis)
N    0.557318  -1.371212  0.271042
C    0.292423  -0.409577  1.344231
C    1.530880  -0.188734  2.212821
O    2.215902  -1.073942  2.685372
H    1.003163  -2.201194  0.669038
H    1.219765  -0.980936  -0.399659
H    0.019953  0.552411  0.885251
C    -0.893974  -0.891005  2.221041
C    -1.104435  -0.004009  3.453217
C    -2.169967  -0.985087  1.379912
H    -0.625544  -1.903965  2.569142
H    -0.238328  -0.012742  4.128634
H    -1.971832  -0.353083  4.028925
H    -1.295753  1.040231  3.164622
H    -2.980478  -1.447966  1.959182
H    -2.003313  -1.580011  0.474855
H    -2.510254  0.016035  1.073606
O    1.810978  1.133071  2.397250
H    2.606496  1.163717  2.965518
