19
Energy: -10950.8029331 eV PBE+vdW (tier 2 basis)
N    -0.100021  -0.014155  -0.031901
C    -0.095844  -0.032951  1.449846
C    1.382295  0.105548  1.920515
O    2.246971  0.225647  0.898113
H    -0.803579  0.619069  -0.404867
H    -0.294445  -0.940789  -0.411417
H    -0.599347  0.880380  1.807328
C    -0.834427  -1.257257  2.056260
C    -0.881565  -1.240896  3.589390
C    -2.263835  -1.359055  1.501714
H    -0.273930  -2.156771  1.739790
H    -1.413495  -2.130693  3.953337
H    -1.427214  -0.356313  3.951073
H    0.116924  -1.216778  4.033861
H    -2.775679  -2.227368  1.936887
H    -2.303787  -1.472323  0.410163
H    -2.848394  -0.464892  1.767406
O    1.728980  0.133373  3.081394
H    1.641363  0.224245  0.096153
