19
Energy: -10950.6701923 eV PBE+vdW (tier 2 basis)
N    -0.234251  0.592346  0.217383
C    -0.152369  0.286246  1.652612
C    1.313793  0.160360  2.058159
O    1.841837  0.807846  2.939648
H    -1.202456  0.793592  -0.032518
H    0.295534  1.438977  0.006158
H    -0.546318  1.090881  2.302737
C    -0.928045  -1.015011  1.981105
C    -0.746294  -1.417172  3.449044
C    -2.415908  -0.860655  1.643416
H    -0.503793  -1.801568  1.337402
H    0.305560  -1.606078  3.701788
H    -1.307697  -2.335386  3.666644
H    -1.113798  -0.632592  4.126880
H    -2.964584  -1.772651  1.914904
H    -2.589059  -0.694031  0.571842
H    -2.866700  -0.026005  2.202238
O    1.983989  -0.776718  1.335930
H    2.895558  -0.774381  1.687630
