19
Energy: -10950.6964623 eV PBE+vdW (tier 2 basis)
N    -0.505527  0.101724  0.867927
C    -0.275156  -0.245178  2.271109
C    1.015505  0.357386  2.807917
O    1.337728  0.349178  3.978897
H    -0.323911  1.088168  0.690023
H    -1.477323  -0.083527  0.622025
H    -1.053771  0.138205  2.959690
C    -0.266200  -1.800247  2.419934
C    0.976213  -2.430492  1.783776
C    -0.474528  -2.259931  3.864709
H    -1.144453  -2.122111  1.832809
H    1.875598  -2.225522  2.383674
H    1.138144  -2.041119  0.770967
H    0.867494  -3.521496  1.721330
H    0.361325  -1.956091  4.507826
H    -0.555810  -3.354760  3.905847
H    -1.394088  -1.837424  4.294058
O    1.796763  0.920127  1.843977
H    2.580000  1.263110  2.317506
