19
Energy: -10950.8726252 eV PBE+vdW (tier 2 basis)
N    0.171625  -0.315555  0.057071
C    -0.229431  0.004867  1.443183
C    1.013731  0.514320  2.207964
O    2.173286  0.245568  1.576987
H    -0.360117  -1.104407  -0.310385
H    1.875050  -0.177415  0.721336
H    -0.974365  0.814838  1.483301
C    -0.844222  -1.239295  2.142539
C    0.178158  -2.361531  2.369158
C    -1.561969  -0.866619  3.443319
H    -1.609539  -1.608778  1.434790
H    -0.323510  -3.258865  2.754568
H    0.935402  -2.062119  3.107464
H    0.704479  -2.645105  1.447723
H    -2.039515  -1.754649  3.879054
H    -2.342455  -0.113128  3.270031
H    -0.861113  -0.454496  4.180012
O    0.957602  1.077956  3.278973
H    0.013512  0.474759  -0.566676
