19
Energy: -10950.7713857 eV PBE+vdW (tier 2 basis)
N    0.127273  -2.465293  2.599514
C    0.183106  -1.323595  1.691989
C    1.446633  -0.543090  2.018454
O    1.972296  -0.495063  3.111871
H    -0.833586  -2.782301  2.722806
H    0.494711  -2.195725  3.513487
H    0.283960  -1.687089  0.656166
C    -1.083561  -0.396008  1.718585
C    -1.238839  0.375090  3.032187
C    -1.171900  0.530154  0.501846
H    -1.920701  -1.113504  1.644834
H    -0.474152  1.158988  3.131374
H    -1.154068  -0.282890  3.907294
H    -2.221018  0.864476  3.076092
H    -1.057008  -0.027122  -0.438284
H    -0.395865  1.306735  0.523132
H    -2.147283  1.034865  0.476721
O    1.929973  0.136334  0.943091
H    2.711028  0.626036  1.267840
