19
Energy: -10950.7914001 eV PBE+vdW (tier 2 basis)
N    -0.137085  0.068194  0.010052
C    0.260335  -0.131340  1.397002
C    1.717379  -0.558298  1.411722
O    2.307624  -1.078878  0.487789
H    -1.147907  0.012232  -0.099838
H    0.296709  -0.642152  -0.580857
H    0.205639  0.833014  1.930124
C    -0.584135  -1.146800  2.245386
C    -2.023289  -0.642243  2.396519
C    -0.545452  -2.571799  1.685803
H    -0.124860  -1.151545  3.247153
H    -2.593487  -1.298673  3.067592
H    -2.557516  -0.631531  1.433997
H    -2.055001  0.374600  2.811904
H    -1.133188  -3.248202  2.320692
H    0.476816  -2.969180  1.630984
H    -0.973058  -2.616823  0.673787
O    2.301079  -0.326679  2.620256
H    3.212426  -0.670500  2.546648
