19
Energy: -10950.7390615 eV PBE+vdW (tier 2 basis)
N    0.424810  1.304293  1.351137
C    0.121341  0.197863  2.253389
C    1.385959  -0.448870  2.798924
O    1.424923  -1.131383  3.801736
H    -0.434909  1.701515  0.973907
H    0.996676  0.997178  0.565072
H    -0.377798  0.619848  3.139901
C    -0.821369  -0.938870  1.722079
C    -2.214237  -0.379436  1.418947
C    -0.239083  -1.677940  0.513761
H    -0.913622  -1.652369  2.556563
H    -2.194625  0.330268  0.577608
H    -2.641612  0.137750  2.289601
H    -2.902878  -1.187610  1.138256
H    -0.922236  -2.471505  0.182884
H    0.727143  -2.147758  0.741833
H    -0.090863  -0.999837  -0.339917
O    2.480292  -0.236886  2.015765
H    3.210090  -0.721255  2.448554
