19
Energy: -10950.6433594 eV PBE+vdW (tier 2 basis)
N    0.182200  -1.802941  0.505964
C    0.595893  -0.639193  1.281828
C    1.519105  -1.022167  2.453833
O    1.673639  -2.152550  2.851175
H    0.895299  -2.032307  -0.184798
H    0.138153  -2.611303  1.131457
H    1.163355  0.033443  0.616040
C    -0.634371  0.171102  1.803550
C    -1.415712  0.760178  0.626211
C    -1.531725  -0.675707  2.712088
H    -0.241505  1.011051  2.404998
H    -1.778904  -0.041863  -0.029001
H    -0.790389  1.433572  0.022278
H    -2.280959  1.335052  0.982968
H    -2.361505  -0.070936  3.100854
H    -0.984351  -1.085282  3.571963
H    -1.967350  -1.515575  2.153591
O    2.170413  0.007536  3.074305
H    1.933716  0.847886  2.643698
