19
Energy: -10950.806077 eV PBE+vdW (tier 2 basis)
N    0.058813  0.109996  0.116422
C    0.041188  -0.100003  1.580436
C    1.519728  -0.265297  2.040806
O    2.401741  0.130616  1.103464
H    -0.038854  -0.776359  -0.381356
H    1.815880  0.376671  0.329038
H    -0.291893  0.852143  2.029640
C    -0.898222  -1.222877  2.097810
C    -1.097969  -1.144250  3.618039
C    -2.263367  -1.180510  1.396487
H    -0.415414  -2.188200  1.862825
H    -1.593288  -0.199589  3.892164
H    -0.146007  -1.200199  4.153581
H    -1.744030  -1.965128  3.958198
H    -2.202925  -1.355058  0.314006
H    -2.759120  -0.209915  1.554648
H    -2.922066  -1.954213  1.812535
O    1.864298  -0.674710  3.127264
H    -0.704493  0.710881  -0.188005
