19
Energy: -10950.8298102 eV PBE+vdW (tier 2 basis)
N    0.100304  0.085327  0.072795
C    -0.056434  0.097047  1.540957
C    1.358544  0.106568  2.161495
O    2.300377  -0.393947  1.335081
H    -0.702001  -0.342105  -0.386815
H    1.807810  -0.523727  0.476321
H    -0.566486  1.000815  1.914986
C    -0.866801  -1.145500  2.002972
C    -0.867367  -1.324855  3.525262
C    -2.312391  -1.077319  1.487001
H    -0.376001  -2.026276  1.551795
H    -1.307421  -0.451563  4.027389
H    0.140624  -1.460283  3.931167
H    -1.466825  -2.204978  3.793711
H    -2.391302  -1.025590  0.391624
H    -2.832421  -0.200728  1.900714
H    -2.867625  -1.971519  1.799356
O    1.603735  0.503086  3.278786
H    0.191680  1.030546  -0.298596
