30
Energy: -251649.7466222  eV PBE+vdW (tier 2 basis)
C    -0.601716  0.150765  -0.250563
C    -0.541573  0.082924  1.240863
O    0.559874  0.235656  1.853480
H    0.124901  -0.548382  -0.683404
H    -0.299743  1.160558  -0.564402
H    -1.595815  -0.063128  -0.656612
N    -1.679221  -0.126406  1.917464
C    -1.844818  -0.046390  3.378537
C    -1.369120  -1.359104  4.039875
O    -0.123214  -1.542846  4.213877
H    -2.529868  -0.236424  1.370049
H    -1.140122  0.721797  3.735532
C    -3.272575  0.400254  3.729578
C    -3.576306  1.853255  3.326662
S    -5.193844  2.439201  3.905713
C    -6.308349  1.695916  2.683132
H    -3.408797  0.314223  4.816857
H    -4.010181  -0.273910  3.259361
H    -3.501576  2.006020  2.239108
H    -2.846843  2.528801  3.797564
H    -6.323353  0.600054  2.730483
H    -6.070027  2.039938  1.669017
H    -7.309647  2.058685  2.943536
N    -2.273797  -2.249078  4.407537
C    -2.002085  -3.535421  5.048465
H    -3.250604  -2.003093  4.260669
H    -2.546323  -3.590552  5.998606
H    -0.930040  -3.627026  5.233619
H    -2.336898  -4.352039  4.397169
Ba    2.047744  -0.632316  3.552668
