30
Energy: -251649.1853969  eV PBE+vdW (tier 2 basis)
C    -0.419565  0.666554  0.010138
C    -0.762781  0.843039  1.454126
O    -0.529761  1.940759  2.049089
H    -1.244110  1.023636  -0.627103
H    -0.208713  -0.375346  -0.252963
H    0.455346  1.286692  -0.215317
N    -1.341537  -0.162743  2.146560
C    -2.399472  -1.005782  1.601621
C    -3.686430  -0.127037  1.492394
O    -3.647618  1.115842  1.767524
H    -1.402679  0.001332  3.152048
H    -2.120804  -1.292966  0.576737
C    -2.598180  -2.285399  2.438728
C    -3.018574  -2.038462  3.893839
S    -3.704961  -3.499608  4.727881
C    -2.223531  -4.515516  4.980934
H    -1.660972  -2.856425  2.393992
H    -3.351275  -2.923288  1.952664
H    -3.839089  -1.303864  3.945680
H    -2.183692  -1.645411  4.498189
H    -2.566708  -5.386024  5.552260
H    -1.475051  -3.981606  5.578986
H    -1.791546  -4.871179  4.038866
N    -4.792200  -0.723325  1.084714
C    -6.095243  -0.083147  0.899217
H    -4.747519  -1.727268  0.922372
H    -5.957064  0.987925  0.734047
H    -6.727175  -0.242048  1.782713
H    -6.585474  -0.526283  0.026394
Ba    -2.578727  3.208217  2.550773
