30
Energy: -251649.3423105  eV PBE+vdW (tier 2 basis)
C    0.549724  0.115337  0.378412
C    -0.157365  1.033434  1.324130
O    -0.208521  2.280547  1.094301
H    -0.011134  0.008283  -0.561851
H    0.745655  -0.876883  0.794956
H    1.506326  0.588266  0.117548
N    -0.739966  0.541925  2.443044
C    -1.601649  -0.649235  2.402873
C    -3.025823  -0.119880  2.058126
O    -3.120163  0.879406  1.257035
H    -1.032747  1.266385  3.099823
H    -1.307389  -1.211444  1.502715
C    -1.400976  -1.596746  3.596102
C    -2.006812  -1.191609  4.953487
S    -3.486392  -2.229272  5.229067
C    -4.276865  -1.409379  6.637345
H    -0.314399  -1.718092  3.696524
H    -1.771158  -2.592825  3.308071
H    -2.293579  -0.128088  4.989703
H    -1.292728  -1.364429  5.766945
H    -5.178495  -1.990136  6.862736
H    -4.557603  -0.376118  6.402432
H    -3.612086  -1.439640  7.507892
N    -4.083311  -0.721414  2.547839
C    -5.456688  -0.359862  2.202265
H    -3.970739  -1.397335  3.353124
H    -6.125359  -1.086296  2.672677
H    -5.597655  -0.391504  1.116067
H    -5.706778  0.644195  2.570103
Ba    -2.433982  3.029618  0.323487
