30
Energy: -251650.2224870  eV PBE+vdW (tier 2 basis)
C    1.641625  -1.470262  1.018766
C    0.888579  -0.892761  2.170326
O    1.412471  -0.791021  3.315139
H    1.074192  -1.467555  0.082414
H    1.931996  -2.501684  1.261054
H    2.571902  -0.902942  0.880780
N    -0.381071  -0.466581  1.966038
C    -1.127943  0.143242  3.054781
C    -1.815206  -0.909825  3.951340
O    -1.255147  -1.206738  5.046163
H    -0.780040  -0.544626  1.034431
H    -0.344265  0.559991  3.701136
C    -1.955376  1.385835  2.742186
C    -2.244552  2.145109  4.055301
S    -0.815504  2.495708  5.154921
C    0.132346  3.713110  4.193469
H    -2.915015  1.167942  2.249224
H    -1.384182  2.019763  2.049466
H    -2.938301  1.585582  4.698612
H    -2.721767  3.109853  3.842627
H    0.544510  3.293243  3.269805
H    0.950662  4.052988  4.838565
H    -0.511576  4.571513  3.970713
N    -2.950531  -1.463348  3.548693
C    -3.693347  -2.493479  4.278381
H    -3.337561  -1.158815  2.658979
H    -4.727096  -2.162080  4.429249
H    -3.214611  -2.657596  5.246246
H    -3.695763  -3.428409  3.704876
Ba    1.001569  -0.382155  5.762321
