30
Energy: -251649.9144462  eV PBE+vdW (tier 2 basis)
C    -0.405747  -0.030249  -0.004083
C    -0.292871  -0.220894  1.471937
O    0.773898  -0.695265  1.989472
H    -0.334066  -1.006201  -0.504100
H    0.442470  0.572213  -0.355325
H    -1.342692  0.454302  -0.296250
N    -1.330205  0.114777  2.240464
C    -1.258508  0.129317  3.706019
C    -1.117424  -1.298906  4.272856
O    0.005852  -1.633703  4.772228
H    -2.104504  0.700088  1.836803
H    -0.308518  0.613653  3.986028
C    -2.398646  0.954195  4.335257
C    -2.521053  2.382480  3.782786
S    -3.223032  2.521568  2.094468
C    -4.980526  2.186783  2.395054
H    -2.191918  1.005924  5.415135
H    -3.363813  0.443301  4.237742
H    -1.542457  2.880800  3.728378
H    -3.140772  2.986985  4.457595
H    -5.472212  2.261735  1.418459
H    -5.397023  2.951406  3.060463
H    -5.157366  1.185269  2.804426
N    -2.107655  -2.181594  4.242467
C    -3.453948  -2.082847  3.672749
H    -1.880403  -3.066019  4.697732
H    -3.733568  -3.070308  3.290565
H    -3.474352  -1.376274  2.839597
H    -4.182754  -1.786802  4.437870
Ba    2.207228  -1.624586  3.690941
