30
Energy: -251649.1306387  eV PBE+vdW (tier 2 basis)
C    -0.539858  0.234970  -0.295625
C    -0.147925  -0.275915  1.052616
O    1.044941  -0.633897  1.296609
H    -0.384314  1.324462  -0.351343
H    -1.587457  0.026343  -0.537483
H    0.111928  -0.224478  -1.046768
N    -1.063075  -0.339217  2.045954
C    -2.055046  0.703172  2.301102
C    -1.279619  2.011101  2.619382
O    -0.032413  1.979187  2.875960
H    -0.747930  -0.839432  2.877911
H    -2.659437  0.861169  1.395154
C    -2.974686  0.238952  3.454437
C    -4.251516  1.051148  3.671162
S    -5.225141  0.186402  4.948046
C    -6.645636  1.301137  5.088851
H    -2.396757  0.203017  4.392624
H    -3.261252  -0.796456  3.214211
H    -4.037018  2.070529  4.029849
H    -4.834961  1.116094  2.738036
H    -7.194576  1.369404  4.142373
H    -7.300257  0.847381  5.841882
H    -6.344696  2.295641  5.439366
N    -1.954302  3.146769  2.617797
C    -1.386417  4.456035  2.951396
H    -2.948729  3.104237  2.407547
H    -0.604872  4.728694  2.232273
H    -0.963951  4.443198  3.962828
H    -2.185660  5.200014  2.905852
Ba    2.205595  0.911112  2.830693
