30
Energy: -251649.5658953  eV PBE+vdW (tier 2 basis)
C    -2.827608  0.462194  -1.032559
C    -1.801703  -0.081622  -0.091703
O    -0.703583  -0.551148  -0.519804
H    -3.848732  0.355555  -0.651042
H    -2.733543  -0.058884  -1.991504
H    -2.643008  1.531945  -1.221815
N    -2.025024  -0.055262  1.242245
C    -2.617097  1.090421  1.926213
C    -1.641456  2.293531  1.763422
O    -0.460656  2.109476  1.303822
H    -1.332707  -0.568283  1.789266
H    -3.556279  1.360483  1.421287
C    -2.945631  0.685937  3.383890
C    -3.540977  1.771335  4.285853
S    -4.867455  2.692682  3.426362
C    -5.424311  3.804308  4.746988
H    -2.032938  0.301436  3.867712
H    -3.647400  -0.156132  3.307327
H    -2.770681  2.478275  4.626698
H    -3.963710  1.290522  5.177335
H    -6.201968  4.436549  4.304446
H    -4.605769  4.433653  5.113351
H    -5.859923  3.221064  5.565542
N    -2.098993  3.481497  2.087743
C    -1.327787  4.719929  2.009326
H    -3.089938  3.515664  2.438293
H    -0.409883  4.643475  2.604466
H    -1.943788  5.532885  2.402791
H    -1.064661  4.948576  0.968826
Ba    1.235275  0.885433  0.024570
