30
Energy: -251649.2084736  eV PBE+vdW (tier 2 basis)
C    -0.817464  -0.783976  -0.253951
C    -0.509209  -0.347321  1.128299
O    0.665288  0.015119  1.467007
H    -1.232112  -1.801236  -0.293814
H    0.075407  -0.726106  -0.881362
H    -1.619343  -0.110338  -0.628694
N    -1.490699  -0.280559  2.063146
C    -2.509472  -1.313987  2.290165
C    -1.770785  -2.674275  2.471626
O    -0.517977  -2.704789  2.687093
H    -1.199585  0.215382  2.903475
H    -2.912931  -1.079764  3.289345
C    -3.722781  -1.330238  1.336258
C    -4.414453  0.038612  1.191874
S    -3.723044  1.164523  -0.061249
C    -4.563875  0.574061  -1.557638
H    -4.463377  -2.023066  1.769991
H    -3.457087  -1.735285  0.350896
H    -4.391129  0.591228  2.141898
H    -5.474035  -0.114996  0.950315
H    -4.320311  -0.469363  -1.792356
H    -4.206977  1.211098  -2.375167
H    -5.648428  0.700273  -1.461404
N    -2.486745  -3.784888  2.442952
C    -1.948735  -5.125967  2.686274
H    -3.481494  -3.701711  2.251584
H    -2.773808  -5.841363  2.643529
H    -1.481486  -5.175618  3.676686
H    -1.208856  -5.386934  1.920249
Ba    1.761762  -1.708194  2.795308
