30
Energy: -251650.0525591  eV PBE+vdW (tier 2 basis)
C    1.292247  0.224315  0.838649
C    0.716258  -0.350111  2.092618
O    1.467512  -0.594963  3.094411
H    2.014496  -0.484033  0.410197
H    1.848504  1.138103  1.086571
H    0.528216  0.451219  0.088149
N    -0.593484  -0.593419  2.125015
C    -1.357033  -0.982613  3.321114
C    -1.084224  -2.459532  3.691129
O    -0.119993  -2.736695  4.469708
H    -1.180935  -0.213370  1.340020
H    -0.960079  -0.404440  4.171706
C    -2.850219  -0.635750  3.153195
C    -3.121827  0.778600  2.618382
S    -3.021619  0.742666  0.787038
C    -2.967281  2.509071  0.386827
H    -3.325078  -0.757601  4.136268
H    -3.358090  -1.347350  2.480975
H    -2.402861  1.509541  3.018211
H    -4.127449  1.102505  2.912414
H    -2.912449  2.573030  -0.705718
H    -2.090409  2.996912  0.827152
H    -3.889335  2.995647  0.723801
N    -1.856597  -3.403461  3.181301
C    -1.710592  -4.837570  3.432857
H    -2.608941  -3.112783  2.562366
H    -1.063864  -5.297818  2.674353
H    -2.699142  -5.304365  3.388065
H    -1.278832  -4.992006  4.425382
Ba    2.124101  -1.912731  4.983846
