30
Energy: -251649.9214655  eV PBE+vdW (tier 2 basis)
C    0.563205  1.622293  -0.045277
C    0.460784  1.029293  1.320808
O    1.407431  1.108899  2.151698
H    0.341118  2.699996  -0.001185
H    -0.110754  1.152205  -0.768782
H    1.599722  1.526721  -0.389214
N    -0.679599  0.395986  1.708973
C    -2.033122  0.855690  1.411349
C    -2.174304  2.334051  1.848606
O    -1.383054  2.802769  2.722295
H    -0.605990  -0.042455  2.631980
H    -2.225212  0.763948  0.333845
C    -3.044206  -0.036841  2.172800
C    -3.204214  0.212060  3.678855
S    -1.762150  -0.017926  4.795215
C    -1.547275  -1.822370  4.861191
H    -2.777468  -1.083665  1.969349
H    -4.038597  0.105800  1.725520
H    -3.989990  -0.446118  4.072844
H    -3.531811  1.239963  3.887666
H    -2.462012  -2.270011  5.265110
H    -0.722287  -2.013547  5.556584
H    -1.306068  -2.248759  3.881916
N    -3.137366  3.088452  1.335606
C    -4.156352  2.745076  0.340406
H    -3.180813  4.032807  1.720368
H    -5.100685  2.472774  0.829143
H    -3.825139  1.919091  -0.295329
H    -4.329919  3.618508  -0.296529
Ba    0.549779  2.243050  4.237569
