30
Energy: -251649.1543406  eV PBE+vdW (tier 2 basis)
C    -0.905647  0.991852  -1.723473
C    -0.691497  1.151010  -0.256703
O    0.403868  1.670103  0.180881
H    -1.777463  0.380016  -1.972460
H    -0.008819  0.577166  -2.199004
H    -1.053360  1.994526  -2.153687
N    -1.599583  0.797151  0.636298
C    -2.727418  -0.118906  0.580439
C    -3.429333  0.133234  1.945297
O    -2.721433  0.497574  2.897822
H    -1.435332  1.018759  1.635022
H    -3.388992  0.128004  -0.258962
C    -2.285588  -1.625790  0.507697
C    -0.790950  -1.958869  0.471074
S    0.290395  -1.541063  1.902025
C    -0.592580  -2.149937  3.364619
H    -2.705954  -2.069799  -0.406440
H    -2.756569  -2.170839  1.336566
H    -0.277590  -1.500524  -0.385015
H    -0.686052  -3.044591  0.343431
H    0.117390  -2.108084  4.198573
H    -0.869555  -3.197511  3.200885
H    -1.463636  -1.522985  3.580168
N    -4.740082  -0.119803  2.002690
C    -5.540454  -0.007454  3.222032
H    -5.222069  -0.369942  1.144386
H    -6.335023  0.734642  3.081211
H    -4.887521  0.312141  4.038017
H    -5.992044  -0.975678  3.469148
Ba    1.979035  1.116610  1.866699
