30
Energy: -251649.8235020  eV PBE+vdW (tier 2 basis)
C    -0.994496  -0.984295  0.550953
C    -0.719236  -0.142008  1.756979
O    0.171083  -0.494427  2.588871
H    -0.063367  -1.141194  -0.008493
H    -1.749546  -0.560003  -0.118801
H    -1.334017  -1.974027  0.888273
N    -1.443981  0.974448  1.917101
C    -1.534003  1.896047  3.065662
C    -0.299256  2.771659  3.256133
O    0.846911  2.265460  3.486978
H    -2.131542  1.148899  1.188866
H    -2.388195  2.542226  2.811193
C    -1.950419  1.224795  4.389794
C    -3.396996  0.700988  4.334067
S    -4.639815  1.942725  3.864303
C    -4.841342  2.865161  5.415792
H    -1.859264  1.977344  5.187450
H    -1.268388  0.400236  4.650794
H    -3.669379  0.261969  5.302919
H    -3.493124  -0.100641  3.588363
H    -5.610048  3.620350  5.215322
H    -3.923482  3.374984  5.732526
H    -5.201874  2.201250  6.209888
N    -0.444370  4.089821  3.247959
C    -1.648672  4.889548  2.987456
H    0.415985  4.607457  3.428761
H    -2.524439  4.471161  3.495971
H    -1.845957  4.961757  1.910402
H    -1.472441  5.896410  3.376648
Ba    2.090360  0.218016  3.858023
