30
Energy: -251649.1142956  eV PBE+vdW (tier 2 basis)
C    0.088687  0.851688  0.006498
C    -0.046877  0.103966  1.293240
O    0.939783  -0.517818  1.794960
H    0.424547  1.883756  0.196689
H    -0.849336  0.895903  -0.557121
H    0.861069  0.365537  -0.599563
N    -1.225238  0.100649  1.955577
C    -2.069534  1.284071  2.102300
C    -1.263550  2.327022  2.923283
O    -0.168836  2.003332  3.490633
H    -1.265555  -0.553568  2.737798
H    -2.268131  1.706918  1.105251
C    -3.420968  0.875469  2.745059
C    -4.554962  1.902139  2.622445
S    -6.190517  1.198104  2.990593
C    -6.179788  1.172806  4.803684
H    -3.260317  0.608550  3.801625
H    -3.739875  -0.040117  2.226137
H    -4.639318  2.256725  1.583240
H    -4.405201  2.779298  3.271049
H    -7.174397  0.813537  5.093202
H    -6.044278  2.180994  5.214525
H    -5.435015  0.479932  5.213034
N    -1.746864  3.553736  3.012143
C    -1.130807  4.641690  3.776208
H    -2.625918  3.749893  2.538110
H    -0.153818  4.903559  3.352321
H    -1.007178  4.349950  4.825487
H    -1.786145  5.514678  3.721832
Ba    1.813165  0.556024  3.833282
