30
Energy: -251650.1767908  eV PBE+vdW (tier 2 basis)
C    1.462239  -2.062875  1.023535
C    0.803200  -1.272876  2.103762
O    1.354782  -1.101534  3.226656
H    2.442499  -1.617536  0.805752
H    0.875021  -2.112123  0.100804
H    1.649764  -3.082270  1.387154
N    -0.411952  -0.724455  1.857911
C    -1.045641  0.104856  2.870892
C    -1.828214  -0.739090  3.902916
O    -1.282386  -0.962418  5.020784
H    -0.828967  -0.841425  0.938341
H    -0.189343  0.483501  3.439906
C    -1.734854  1.388762  2.406922
C    -1.897780  2.333547  3.608304
S    -0.287828  2.636072  4.462207
C    -0.787074  3.869354  5.698841
H    -2.722259  1.214378  1.953554
H    -1.107098  1.861223  1.638158
H    -2.616421  1.942084  4.341969
H    -2.257836  3.311774  3.267351
H    -1.551298  3.471943  6.374939
H    -1.152540  4.765681  5.185786
H    0.113905  4.131686  6.264445
N    -3.026315  -1.204111  3.576821
C    -3.864601  -2.048873  4.430223
H    -3.394942  -0.966178  2.659473
H    -3.369906  -2.179554  5.395112
H    -4.011885  -3.026601  3.955796
H    -4.839981  -1.570705  4.577177
Ba    1.068708  -0.303239  5.599508
