30
Energy: -251649.7543772  eV PBE+vdW (tier 2 basis)
C    0.317946  -0.786486  0.281831
C    0.130710  -0.556875  1.744020
O    1.133241  -0.372440  2.512857
H    0.989985  -1.640602  0.126008
H    0.812035  0.093013  -0.154598
H    -0.625583  -0.962193  -0.244271
N    -1.107772  -0.535507  2.241215
C    -1.375895  -0.225072  3.646624
C    -0.890652  -1.372311  4.562197
O    0.092424  -1.109845  5.332933
H    -1.935033  -0.720275  1.642761
H    -0.684371  0.586396  3.915740
C    -2.775619  0.381882  3.905681
C    -4.055851  -0.356430  3.509308
S    -4.163838  -0.553288  1.691726
C    -5.543839  -1.716976  1.534045
H    -2.767521  1.363319  3.406975
H    -2.823454  0.599068  4.983499
H    -4.911225  0.245635  3.843876
H    -4.141888  -1.334532  3.998138
H    -5.687972  -1.876723  0.459770
H    -6.453307  -1.270971  1.951758
H    -5.326951  -2.675865  2.018630
N    -1.391143  -2.600145  4.547378
C    -2.391423  -3.224375  3.681645
H    -0.953144  -3.219895  5.230555
H    -1.955693  -4.129489  3.241034
H    -2.695085  -2.551083  2.874016
H    -3.270285  -3.513543  4.270606
Ba    2.307675  -0.298080  4.632864
