30
Energy: -251649.5059253  eV PBE+vdW (tier 2 basis)
C    0.203710  0.523789  0.469403
C    -0.204266  -0.585418  1.384513
O    0.680281  -1.432562  1.794976
H    0.996706  1.120379  0.939711
H    -0.630500  1.182390  0.208714
H    0.618979  0.094899  -0.453110
N    -1.463403  -0.674259  1.752257
C    -2.145151  -1.724810  2.504607
C    -3.600691  -1.647251  1.927847
O    -3.923931  -0.617408  1.330622
H    -2.192296  -0.055484  1.334344
H    -1.683530  -2.699142  2.284765
C    -2.179342  -1.455322  4.023910
C    -0.833066  -1.438547  4.745257
S    0.016964  -3.078558  4.715232
C    0.280829  -3.457639  6.475424
H    -2.834318  -2.203409  4.491905
H    -2.658020  -0.477219  4.189259
H    -0.979754  -1.202019  5.806519
H    -0.157230  -0.679276  4.334224
H    0.778234  -4.433262  6.517986
H    -0.694044  -3.537559  6.968258
H    0.900617  -2.696649  6.959478
N    -4.400127  -2.697900  2.159151
C    -5.799760  -2.749894  1.734135
H    -4.018100  -3.510902  2.630747
H    -6.453055  -2.899749  2.601754
H    -5.949824  -3.568840  1.020592
H    -6.047896  -1.800594  1.252485
Ba    2.353192  -2.773737  2.718403
