30
Energy: -251649.0423385  eV PBE+vdW (tier 2 basis)
C    0.430502  0.435359  0.306500
C    0.018631  -0.016525  1.669114
O    0.875614  -0.407702  2.517490
H    0.789999  1.476001  0.342987
H    -0.377764  0.368043  -0.428327
H    1.277441  -0.180211  -0.019877
N    -1.286219  0.012631  2.027994
C    -2.192265  1.125513  1.724353
C    -1.515446  2.419277  2.232643
O    -0.681021  2.341420  3.198764
H    -1.488342  -0.459962  2.909721
H    -2.361714  1.180683  0.641012
C    -3.524875  0.833713  2.454531
C    -4.678162  1.806655  2.225199
S    -6.079108  1.196928  3.220084
C    -7.374322  2.357949  2.715125
H    -3.316780  0.776007  3.537241
H    -3.839168  -0.171696  2.135276
H    -4.423509  2.827529  2.548858
H    -4.964098  1.832718  1.162781
H    -7.586734  2.276077  1.642769
H    -8.269251  2.061024  3.273928
H    -7.117728  3.389086  2.985596
N    -1.775959  3.595239  1.683488
C    -2.638641  3.941349  0.551220
H    -1.306934  4.380126  2.137882
H    -3.533239  4.467889  0.904875
H    -2.948213  3.048743  0.003679
H    -2.081954  4.599540  -0.125441
Ba    1.082472  1.139200  4.444421
