30
Energy: -251649.7925441  eV PBE+vdW (tier 2 basis)
C    0.048576  0.053021  -0.007130
C    -0.100363  0.199321  1.470442
O    0.876272  0.600795  2.190442
H    0.292923  1.033054  -0.440311
H    -0.855199  -0.335808  -0.486532
H    0.893792  -0.612439  -0.226841
N    -1.274042  -0.086966  2.032781
C    -1.522949  0.113927  3.459634
C    -0.693569  -0.869276  4.319629
O    0.215850  -0.353607  5.052289
H    -2.096641  -0.426991  1.481137
H    -1.067826  1.079608  3.726357
C    -3.023531  0.294049  3.788527
C    -4.057931  -0.758224  3.378035
S    -4.171515  -1.147363  1.588959
C    -5.092272  0.284872  0.955769
H    -3.304483  1.260508  3.344306
H    -3.093070  0.442766  4.877606
H    -5.048860  -0.415431  3.705202
H    -3.896226  -1.718949  3.878733
H    -5.215108  0.111488  -0.119343
H    -4.557102  1.228927  1.107235
H    -6.082647  0.323940  1.422865
N    -0.834532  -2.188364  4.305280
C    -1.658979  -3.070311  3.478475
H    -0.215989  -2.661236  4.965701
H    -2.061888  -2.538536  2.614131
H    -2.478940  -3.498646  4.067375
H    -1.028094  -3.890494  3.116347
Ba    2.118215  0.973962  4.236085
