30
Energy: -251650.3247201  eV PBE+vdW (tier 2 basis)
C    -0.618030  0.732549  -0.042528
C    -0.318179  0.377174  1.383352
O    0.784320  -0.152041  1.685396
H    -1.600065  1.193622  -0.189959
H    -0.557799  -0.180595  -0.650417
H    0.156824  1.415125  -0.415153
N    -1.278248  0.647038  2.290146
C    -1.384027  0.372078  3.737067
C    -0.351765  1.121371  4.594610
O    0.875109  1.164033  4.301066
H    -2.110210  1.076431  1.896608
H    -2.352705  0.818287  3.993695
C    -1.562990  -1.123199  4.121988
C    -0.523138  -2.186701  3.763697
S    1.008156  -2.137238  4.780355
C    1.601786  -3.845942  4.593437
H    -2.499800  -1.440438  3.639552
H    -1.759639  -1.157920  5.204174
H    -0.263395  -2.175509  2.699811
H    -0.974282  -3.163096  3.986566
H    2.545062  -3.916278  5.146944
H    1.763491  -4.108350  3.542417
H    0.876458  -4.529109  5.049307
N    -0.789836  1.720454  5.700391
C    -2.156180  1.827560  6.223773
H    -0.053871  2.168373  6.245044
H    -2.817242  2.340729  5.513979
H    -2.117900  2.427078  7.137384
H    -2.570055  0.845032  6.481039
Ba    2.720944  -0.037364  3.189713
