30
Energy: -251650.3289730  eV PBE+vdW (tier 2 basis)
C    -1.377173  0.699511  -0.758907
C    -0.817261  0.256036  0.556516
O    0.347407  -0.219268  0.634914
H    -2.383150  1.126147  -0.689712
H    -1.401984  -0.163347  -1.438944
H    -0.701938  1.440063  -1.206953
N    -1.610115  0.376139  1.642588
C    -1.324869  -0.083206  3.015398
C    -0.236709  0.799209  3.659214
O    0.987455  0.626518  3.403430
H    -2.536766  0.758133  1.478686
H    -2.253258  0.105145  3.565590
C    -1.060832  -1.612491  3.067356
C    -0.301370  -2.129884  4.303207
S    1.419852  -2.681640  4.007720
C    1.163549  -4.316118  3.252577
H    -0.542591  -1.924065  2.153758
H    -2.047153  -2.092676  3.018263
H    -0.815364  -2.989693  4.749879
H    -0.218625  -1.379767  5.100862
H    2.157698  -4.720540  3.029577
H    0.570608  -4.263492  2.332604
H    0.677162  -4.973231  3.982200
N    -0.611443  1.758866  4.501762
C    -1.960976  2.150771  4.925512
H    0.163526  2.305672  4.876844
H    -2.482325  1.323943  5.422926
H    -2.555494  2.520193  4.081012
H    -1.860350  2.965107  5.648312
Ba    2.475113  -0.589000  1.850982
