30
Energy: -251650.0352745  eV PBE+vdW (tier 2 basis)
C    1.656921  0.468719  1.179711
C    0.942606  -0.116079  2.356407
O    1.597412  -0.477989  3.390564
H    2.417465  -0.235977  0.819083
H    2.188970  1.373320  1.505846
H    0.981066  0.722835  0.356940
N    -0.380992  -0.233403  2.284326
C    -1.293598  -0.598076  3.376174
C    -1.325805  -2.131438  3.581786
O    -0.308344  -2.699223  4.087179
H    -0.870882  0.137513  1.430252
H    -0.852612  -0.225793  4.316244
C    -2.644733  0.127300  3.188762
C    -3.387113  0.021902  1.841109
S    -2.585128  0.775757  0.373837
C    -2.751995  2.547620  0.729457
H    -2.462277  1.190128  3.401566
H    -3.319787  -0.205612  3.993001
H    -4.378733  0.480620  1.953798
H    -3.572596  -1.012315  1.513713
H    -2.200301  2.853569  1.625456
H    -3.811627  2.812702  0.818391
H    -2.332022  3.065449  -0.140550
N    -2.413778  -2.813005  3.265548
C    -2.593442  -4.255222  3.432171
H    -3.190915  -2.293340  2.867327
H    -2.505784  -4.761721  2.462388
H    -3.588957  -4.446311  3.846871
H    -1.831257  -4.638771  4.113836
Ba    1.979243  -2.313159  4.873806
