30
Energy: -251649.3879123  eV PBE+vdW (tier 2 basis)
C    -0.247503  1.245292  -0.500033
C    -0.332930  0.392841  0.722790
O    0.631222  -0.355101  1.073026
H    0.344710  2.150642  -0.294067
H    -1.229451  1.545670  -0.880073
H    0.293828  0.683643  -1.271268
N    -1.445729  0.420486  1.491221
C    -2.138262  1.657478  1.842232
C    -1.211967  2.473701  2.757508
O    -0.154358  1.937357  3.242012
H    -1.469252  -0.300256  2.213621
H    -2.341811  2.229639  0.913187
C    -3.522190  1.343823  2.433381
C    -4.471509  0.810644  1.344243
S    -4.634192  1.894871  -0.106005
C    -5.838361  3.122052  0.480000
H    -3.942189  2.250551  2.886149
H    -3.429119  0.612040  3.253497
H    -5.464348  0.622573  1.772724
H    -4.109933  -0.148093  0.948073
H    -5.981246  3.823405  -0.349978
H    -5.488964  3.679463  1.356992
H    -6.795779  2.635745  0.698635
N    -1.488540  3.741384  3.026860
C    -2.578165  4.575222  2.512161
H    -0.846178  4.188021  3.681006
H    -2.179053  5.572569  2.298278
H    -3.378029  4.669306  3.257883
H    -2.983257  4.157575  1.585772
Ba    1.706093  0.325390  3.193500
