30
Energy: -251649.1698098  eV PBE+vdW (tier 2 basis)
C    -0.098806  0.441500  -0.241650
C    -0.021423  0.071428  1.203868
O    1.092807  -0.167479  1.761242
H    0.006088  1.531846  -0.361582
H    -1.042486  0.134948  -0.705262
H    0.741036  -0.024692  -0.768396
N    -1.148577  0.012411  1.948793
C    -2.223111  1.002351  1.868280
C    -1.628067  2.375283  2.244334
O    -0.489371  2.436274  2.825201
H    -1.011389  -0.378636  2.881623
H    -2.607303  1.037888  0.838056
C    -3.363900  0.591118  2.829098
C    -4.075481  -0.700700  2.395526
S    -5.189784  -1.360637  3.661122
C    -6.615480  -0.248239  3.523530
H    -4.089197  1.411545  2.898559
H    -2.949123  0.466960  3.842828
H    -4.621344  -0.546525  1.451922
H    -3.349602  -1.507000  2.217845
H    -6.384126  0.777020  3.835911
H    -7.028896  -0.264286  2.507831
H    -7.367694  -0.652590  4.210913
N    -2.296715  3.489636  1.983177
C    -3.592669  3.656956  1.321309
H    -1.852798  4.341601  2.325979
H    -3.547151  4.548948  0.687632
H    -4.391015  3.790998  2.062515
H    -3.825932  2.796209  0.688777
Ba    1.746222  1.568038  3.398917
