30
Energy: -251650.0255639  eV PBE+vdW (tier 2 basis)
C    1.425777  -2.864936  1.785535
C    0.809393  -1.657676  2.417062
O    1.537781  -0.729656  2.882214
H    2.139004  -3.323444  2.482155
H    2.000836  -2.541694  0.906039
H    0.692953  -3.615858  1.472574
N    -0.528287  -1.579372  2.463988
C    -1.319692  -0.408491  2.879183
C    -1.409947  -0.352277  4.423591
O    -0.386445  0.093889  5.049940
H    -1.049275  -2.360749  2.072802
H    -0.712163  0.473475  2.625437
C    -2.599036  -0.305067  2.020918
C    -3.575764  -1.495508  1.965800
S    -4.918038  -1.294564  3.189412
C    -5.696309  -2.930582  3.147146
H    -2.246127  -0.108134  0.998489
H    -3.137398  0.606778  2.319898
H    -3.085999  -2.467832  2.140519
H    -4.025385  -1.544577  0.966449
H    -6.532376  -2.886610  3.854205
H    -5.000660  -3.719434  3.454713
H    -6.092154  -3.129641  2.144995
N    -2.486841  -0.749350  5.056455
C    -2.632822  -0.708735  6.510139
H    -3.333691  -1.058962  4.505308
H    -3.667475  -0.966576  6.753189
H    -2.409844  0.294131  6.892977
H    -1.960204  -1.431733  6.988473
Ba    1.941187  0.686182  4.814396
