30
Energy: -251649.8333246  eV PBE+vdW (tier 2 basis)
C    0.327693  -0.431069  0.342754
C    0.224052  -0.346281  1.832809
O    1.246582  -0.542933  2.555125
H    -0.609103  -0.205660  -0.177036
H    0.649741  -1.446492  0.071955
H    1.108925  0.255768  -0.008021
N    -0.975363  -0.061688  2.362735
C    -1.390445  -0.043110  3.780316
C    -0.734120  1.111427  4.554196
O    0.468521  1.019316  4.963027
H    -1.726563  0.074644  1.691941
H    -2.470888  0.150886  3.759625
C    -1.237786  -1.395585  4.495100
C    -1.905941  -1.413012  5.879793
S    -3.648464  -0.888615  5.925344
C    -4.489584  -2.318386  5.188407
H    -0.178498  -1.682201  4.599113
H    -1.689679  -2.158268  3.845306
H    -1.395262  -0.729970  6.574805
H    -1.822774  -2.419842  6.311409
H    -5.560696  -2.092929  5.245370
H    -4.290330  -3.221859  5.776416
H    -4.221563  -2.474844  4.137404
N    -1.439706  2.200172  4.817996
C    -2.826369  2.516150  4.448973
H    -0.934677  2.908147  5.351525
H    -3.118558  3.417480  4.994507
H    -3.498938  1.699398  4.741392
H    -2.910043  2.720900  3.374414
Ba    2.586552  -0.070900  4.505453
