30
Energy: -251649.1737147  eV PBE+vdW (tier 2 basis)
C    -0.846844  -0.364639  -0.506252
C    -0.627310  0.126898  0.884115
O    0.422985  0.777601  1.187244
H    -0.965864  -1.457243  -0.545535
H    -0.005025  -0.070942  -1.138480
H    -1.780669  0.074006  -0.893602
N    -1.539129  -0.095417  1.859031
C    -2.279083  -1.343017  2.076753
C    -1.224183  -2.487243  2.184753
O    0.002790  -2.211355  2.377734
H    -1.400172  0.481002  2.686257
H    -2.691650  -1.243073  3.094538
C    -3.479063  -1.607632  1.144495
C    -4.582652  -0.544921  1.203919
S    -4.069788  1.078767  0.535240
C    -5.674764  1.730167  -0.001576
H    -3.948442  -2.551748  1.466571
H    -3.150003  -1.757711  0.108419
H    -4.955668  -0.431223  2.233222
H    -5.420043  -0.904492  0.591458
H    -5.470849  2.723600  -0.416853
H    -6.357415  1.835854  0.848740
H    -6.116974  1.099188  -0.780983
N    -1.640425  -3.739130  2.119631
C    -0.778047  -4.911142  2.294373
H    -2.628760  -3.901365  1.947714
H    -1.397834  -5.808489  2.223619
H    -0.294016  -4.885192  3.277648
H    -0.011538  -4.942473  1.510995
Ba    1.923188  -0.635020  2.515423
