30
Energy: -251649.3343220  eV PBE+vdW (tier 2 basis)
C    -0.150202  1.283552  1.229183
C    0.015681  0.174261  2.218463
O    1.157161  -0.367803  2.359976
H    -0.873325  2.036126  1.553879
H    -0.479978  0.888307  0.255861
H    0.828601  1.752040  1.079996
N    -0.999199  -0.262544  3.007262
C    -2.352498  -0.646338  2.575063
C    -2.220217  -1.991625  1.807889
O    -1.106825  -2.343934  1.285573
H    -0.646469  -0.869891  3.748198
H    -2.907610  -0.877224  3.496624
C    -3.156165  0.459702  1.856263
C    -4.633643  0.140255  1.557199
S    -5.590612  -0.770463  2.810297
C    -5.551909  0.345550  4.241121
H    -2.691989  0.732510  0.900436
H    -3.096444  1.343148  2.507391
H    -4.727969  -0.481234  0.656044
H    -5.150219  1.083163  1.333216
H    -6.164647  -0.135121  5.012004
H    -6.011232  1.303813  3.972759
H    -4.542641  0.504303  4.638809
N    -3.298064  -2.744517  1.772843
C    -3.416409  -4.035177  1.100288
H    -4.121158  -2.369493  2.294486
H    -3.106071  -4.850169  1.767968
H    -2.800665  -4.047894  0.195795
H    -4.464690  -4.189628  0.826768
Ba    1.333292  -2.576681  1.290581
