30
Energy: -251650.0144067  eV PBE+vdW (tier 2 basis)
C    -1.379686  -0.744958  0.403760
C    -0.864383  -0.941087  1.793099
O    0.261998  -1.506885  1.988955
H    -0.640925  -0.163410  -0.164970
H    -2.343501  -0.226670  0.378499
H    -1.476166  -1.717239  -0.097279
N    -1.612489  -0.501521  2.804582
C    -1.197689  -0.405415  4.211612
C    -1.338973  -1.775971  4.915318
O    -0.479221  -2.677572  4.668270
H    -2.482200  0.035181  2.569202
H    -0.111024  -0.220746  4.224490
C    -1.877681  0.805103  4.889388
C    -3.393989  0.995532  4.694800
S    -3.742904  1.700560  3.038131
C    -5.548814  1.568796  2.973562
H    -1.368471  1.710191  4.526346
H    -1.647638  0.762544  5.964257
H    -3.769248  1.691585  5.456061
H    -3.970941  0.060867  4.792878
H    -5.847937  1.989923  2.007074
H    -5.996651  2.168851  3.773729
H    -5.882463  0.526827  3.034196
N    -2.327345  -1.973242  5.771427
C    -2.569985  -3.205537  6.521282
H    -2.977531  -1.204966  5.917017
H    -3.404144  -3.762901  6.075979
H    -2.821877  -2.950902  7.556313
H    -1.668986  -3.822722  6.504047
Ba    1.417865  -3.209214  3.207973
