30
Energy: -251649.2591655  eV PBE+vdW (tier 2 basis)
C    0.156792  -0.195767  0.265762
C    -0.001731  -0.205323  1.753878
O    1.027133  -0.418485  2.501664
H    0.954711  0.499251  -0.026452
H    -0.765669  0.074290  -0.257547
H    0.462794  -1.199891  -0.061161
N    -1.201567  0.006832  2.253498
C    -1.689493  0.004980  3.632735
C    -3.126713  0.602559  3.471367
O    -3.405551  1.137985  2.392676
H    -1.970367  0.356514  1.642384
H    -1.757557  -1.037308  3.980881
C    -0.817250  0.786701  4.640676
C    -0.369769  2.178238  4.174818
S    1.273785  2.527201  4.905001
C    1.630286  4.213668  4.329101
H    0.054372  0.155731  4.875228
H    -1.363856  0.869599  5.587487
H    -1.055050  2.962588  4.518740
H    -0.298307  2.251745  3.082660
H    2.617579  4.483651  4.720531
H    0.885137  4.892166  4.759146
H    1.623130  4.280014  3.236132
N    -3.988752  0.517258  4.497248
C    -3.856882  -0.183966  5.770397
H    -4.886875  0.956034  4.300859
H    -4.830016  -0.607832  6.040392
H    -3.541052  0.489429  6.579756
H    -3.149882  -1.017379  5.693631
Ba    2.976969  0.173440  3.671225
