30
Energy: -251649.4359355  eV PBE+vdW (tier 2 basis)
C    -2.647104  -1.249279  0.231481
C    -1.232589  -1.056507  0.667349
O    -0.267439  -1.521886  -0.016507
H    -2.882983  -0.583633  -0.613041
H    -3.371918  -1.077234  1.034360
H    -2.745259  -2.276325  -0.143254
N    -0.953459  -0.373830  1.800597
C    -1.631525  0.864875  2.167087
C    -1.077447  1.984789  1.261889
O    -0.264486  1.714417  0.315327
H    0.023199  -0.435891  2.091671
H    -2.712927  0.735967  1.947127
C    -1.559739  1.116348  3.679164
C    -2.357697  0.052928  4.454752
S    -4.065993  -0.186927  3.881940
C    -4.900685  1.276868  4.557262
H    -1.967429  2.112214  3.905047
H    -0.512429  1.133882  4.022849
H    -2.361163  0.296956  5.525049
H    -1.886695  -0.934449  4.355781
H    -5.958440  1.166870  4.292531
H    -4.530937  2.216269  4.129610
H    -4.811202  1.293496  5.649523
N    -1.497433  3.223794  1.462984
C    -1.095078  4.379619  0.658175
H    -2.146421  3.386571  2.227420
H    -1.393843  4.242409  -0.387864
H    -0.009788  4.525156  0.712280
H    -1.592937  5.267156  1.056733
Ba    1.078603  0.217704  -1.117597
