30
Energy: -251649.8081159  eV PBE+vdW (tier 2 basis)
C    0.785747  0.957046  0.287913
C    0.306223  -0.152169  1.163728
O    1.105559  -0.915884  1.769216
H    1.087263  1.816888  0.905569
H    0.036690  1.286433  -0.439138
H    1.685192  0.616028  -0.238883
N    -1.030793  -0.358550  1.337365
C    -2.017939  0.692861  1.536870
C    -1.520113  1.667283  2.635831
O    -0.612757  1.300255  3.440424
H    -1.234342  -1.224498  1.835527
H    -2.144621  1.260894  0.605147
C    -3.395048  0.067704  1.912150
C    -3.396723  -1.265510  2.670633
S    -2.531152  -1.278855  4.298438
C    -3.046792  -2.906254  4.922506
H    -3.947712  -0.116581  0.980458
H    -3.976612  0.809078  2.474405
H    -3.011622  -2.090984  2.053618
H    -4.442249  -1.513468  2.897435
H    -2.585012  -3.031662  5.908456
H    -2.727068  -3.713344  4.254935
H    -4.135797  -2.914707  5.043789
N    -2.045671  2.882289  2.723149
C    -3.094313  3.507365  1.913803
H    -1.681129  3.439895  3.496158
H    -4.062424  3.458134  2.429067
H    -3.182484  3.024954  0.936568
H    -2.833315  4.559020  1.755708
Ba    0.689430  -0.670159  4.258702
