30
Energy: -251649.6090322  eV PBE+vdW (tier 2 basis)
C    -1.643696  1.670321  -0.824143
C    -1.832445  0.955987  0.478465
O    -1.462809  -0.246780  0.595642
H    -1.981401  2.711639  -0.812584
H    -2.193177  1.125482  -1.604372
H    -0.581678  1.640035  -1.101243
N    -2.402618  1.647384  1.480696
C    -2.819735  1.272559  2.853390
C    -1.658121  0.821613  3.749104
O    -0.968211  -0.209763  3.487523
H    -2.653193  2.600197  1.232342
H    -3.173178  2.226797  3.259330
C    -4.057150  0.335849  2.941961
C    -3.919199  -1.140256  2.551541
S    -5.482819  -2.065257  2.489303
C    -5.953864  -2.145677  4.238763
H    -4.841235  0.787763  2.317456
H    -4.420856  0.401896  3.978472
H    -3.235889  -1.661417  3.252045
H    -3.546178  -1.224414  1.519840
H    -6.224289  -1.164453  4.644113
H    -5.173435  -2.620486  4.846635
H    -6.846166  -2.782556  4.263790
N    -1.412423  1.510669  4.858594
C    -2.066660  2.723465  5.366260
H    -0.660753  1.123705  5.429059
H    -3.126210  2.545163  5.586545
H    -1.959923  3.558193  4.662963
H    -1.570015  3.004309  6.299060
Ba    -0.630826  -2.072734  1.937166
