30
Energy: -251649.3591421  eV PBE+vdW (tier 2 basis)
C    0.641601  -0.937149  0.596885
C    -0.271090  0.247983  0.704419
O    0.006545  1.346322  0.193210
H    0.913526  -1.084608  -0.455160
H    0.219270  -1.863295  1.001302
H    1.570848  -0.706494  1.136499
N    -1.442476  0.067615  1.393901
C    -2.350771  1.133521  1.835565
C    -3.085282  1.835585  0.683214
O    -4.353835  2.035295  0.789813
H    -1.627385  -0.858054  1.765295
H    -3.140011  0.619804  2.400305
C    -1.641957  2.137347  2.790898
C    -2.496411  2.847365  3.841529
S    -3.623999  4.219663  3.363853
C    -2.557784  5.342320  2.414166
H    -1.035443  2.850817  2.219093
H    -0.918644  1.540097  3.366738
H    -1.831987  3.296769  4.592158
H    -3.146944  2.146468  4.385447
H    -3.138262  6.253590  2.229865
H    -2.232435  4.903302  1.465284
H    -1.690794  5.606630  3.030794
N    -2.393647  2.236710  -0.353603
C    -2.954835  2.888383  -1.530065
H    -1.352502  2.022054  -0.285418
H    -3.900734  2.416403  -1.819445
H    -2.240497  2.791946  -2.352621
H    -3.121729  3.959647  -1.345688
Ba    -6.108220  3.253874  1.739450
