30
Energy: -251649.4095657  eV PBE+vdW (tier 2 basis)
C    0.245165  0.614385  1.026150
C    -0.299431  -0.452036  1.923143
O    0.475250  -1.321621  2.428415
H    -0.119950  0.492481  -0.004733
H    1.336938  0.557344  1.022516
H    -0.062721  1.611956  1.361880
N    -1.621254  -0.518783  2.211914
C    -2.703554  -0.323728  1.234745
C    -2.492507  -1.374578  0.095061
O    -1.571894  -2.260439  0.212129
H    -1.827007  -1.204303  2.937025
H    -3.612368  -0.647686  1.765075
C    -2.927033  1.161349  0.830928
C    -4.392105  1.594816  0.675004
S    -5.057324  1.214868  -0.986528
C    -6.842955  1.196269  -0.672398
H    -2.357402  1.421558  -0.072438
H    -2.504681  1.759573  1.649400
H    -4.458352  2.679713  0.824616
H    -5.027039  1.116777  1.434872
H    -7.319453  0.986184  -1.636476
H    -7.167826  2.183391  -0.325856
H    -7.118346  0.420403  0.050149
N    -3.304072  -1.345760  -0.931409
C    -3.263142  -2.292586  -2.042496
H    -4.041977  -0.582544  -0.968746
H    -4.005511  -1.978902  -2.781879
H    -3.507077  -3.306328  -1.700264
H    -2.272309  -2.298906  -2.512369
Ba    0.289596  -3.470405  1.228919
