30
Energy: -251650.0584785  eV PBE+vdW (tier 2 basis)
C    -0.515712  -1.039708  0.655943
C    -0.413027  -0.400741  2.002732
O    0.632700  0.241641  2.339493
H    -0.496057  -0.248420  -0.107391
H    -1.429194  -1.629829  0.529727
H    0.359496  -1.676969  0.478169
N    -1.455083  -0.505746  2.833789
C    -1.549474  0.130340  4.153088
C    -0.757196  -0.697593  5.194451
O    0.486346  -0.447339  5.329448
H    -2.223606  -1.141137  2.582822
H    -0.979289  1.066516  4.082042
C    -3.010636  0.506085  4.528750
C    -4.162980  -0.280810  3.889199
S    -3.920503  -2.092792  3.989459
C    -5.597043  -2.716171  3.695921
H    -3.155817  1.558274  4.249284
H    -3.097641  0.472279  5.622916
H    -4.301625  0.004182  2.836965
H    -5.088588  -0.024384  4.419870
H    -6.271430  -2.379300  4.490352
H    -5.524318  -3.809064  3.714939
H    -5.955383  -2.393299  2.712740
N    -1.369962  -1.627065  5.898191
C    -0.727461  -2.477646  6.898426
H    -2.356847  -1.827935  5.668047
H    0.106879  -1.941053  7.358327
H    -0.356798  -3.402998  6.437576
H    -1.465666  -2.734049  7.664478
Ba    2.320918  0.524729  4.051250
