30
Energy: -251650.0737574  eV PBE+vdW (tier 2 basis)
C    -1.050149  -2.416071  0.913476
C    -0.912993  -1.379823  1.981145
O    0.217073  -0.834491  2.209589
H    -0.643456  -2.016342  -0.024907
H    -2.087521  -2.728771  0.757866
H    -0.445931  -3.295202  1.176878
N    -2.002075  -1.049724  2.676779
C    -2.115270  0.082632  3.610421
C    -1.402435  -0.228409  4.947109
O    -0.158889  0.000624  5.058156
H    -2.924781  -1.377059  2.302251
H    -1.550665  0.929829  3.186126
C    -3.590540  0.498483  3.753509
C    -4.297663  0.814767  2.424706
S    -4.771697  -0.641034  1.417125
C    -6.248604  -1.229033  2.291187
H    -3.619882  1.389487  4.398104
H    -4.171331  -0.281892  4.272338
H    -3.663692  1.430193  1.770721
H    -5.205211  1.400253  2.619104
H    -6.592037  -2.111303  1.739043
H    -7.031539  -0.463088  2.257695
H    -6.039144  -1.521432  3.326584
N    -2.105866  -0.725957  5.950073
C    -1.565779  -1.068870  7.266214
H    -3.098194  -0.882199  5.796046
H    -0.731707  -0.402954  7.504059
H    -1.219223  -2.110452  7.281333
H    -2.355594  -0.945211  8.013005
Ba    1.866795  0.071047  3.685265
