30
Energy: -251650.4174652  eV PBE+vdW (tier 2 basis)
C    -0.423785  -1.255551  -0.322711
C    -0.693200  -0.185191  0.687847
O    0.176535  0.124108  1.546760
H    -1.237354  -1.399497  -1.041141
H    -0.246268  -2.201270  0.208406
H    0.499467  -1.015775  -0.865811
N    -1.898274  0.420510  0.648066
C    -2.435729  1.419185  1.593015
C    -1.713618  2.774253  1.427472
O    -0.563391  2.976443  1.900739
H    -2.533065  0.102775  -0.078391
H    -3.473221  1.573597  1.268527
C    -2.477910  0.864727  3.041626
C    -2.524320  1.911612  4.171161
S    -1.030372  1.722086  5.210610
C    -1.165870  3.106595  6.375094
H    -1.626500  0.188369  3.190653
H    -3.360754  0.217042  3.106138
H    -3.391352  1.754223  4.822890
H    -2.569311  2.943540  3.798120
H    -1.161344  4.072085  5.858163
H    -0.306477  3.037684  7.051620
H    -2.082977  2.987722  6.962943
N    -2.375677  3.714029  0.757453
C    -1.862871  5.051637  0.463151
H    -3.298225  3.484160  0.398474
H    -1.501745  5.102782  -0.572209
H    -1.040667  5.279745  1.145745
H    -2.667554  5.782061  0.597428
Ba    1.284829  1.763315  3.024164
