30
Energy: -251649.3598107  eV PBE+vdW (tier 2 basis)
C    -1.398827  -0.290392  -0.084304
C    -0.552514  -0.141568  1.136680
O    0.709625  -0.268903  1.083596
H    -1.320333  0.606828  -0.717502
H    -2.453513  -0.472747  0.147264
H    -0.999180  -1.125026  -0.674265
N    -1.127363  0.146438  2.326853
C    -2.182906  1.142109  2.476871
C    -1.570868  2.528295  2.203786
O    -0.301318  2.653898  2.084645
H    -0.493828  0.074588  3.124175
H    -2.962948  0.934753  1.719065
C    -2.861770  0.994890  3.853713
C    -3.758788  -0.245162  3.907259
S    -5.027136  -0.130070  2.600710
C    -5.775312  -1.778606  2.686595
H    -3.457737  1.890795  4.068743
H    -2.094671  0.943779  4.643097
H    -4.241645  -0.296551  4.891780
H    -3.174268  -1.166691  3.767685
H    -5.038133  -2.561874  2.477050
H    -6.553226  -1.797825  1.915345
H    -6.240670  -1.935844  3.665752
N    -2.352258  3.588310  2.065175
C    -3.816380  3.674509  2.077539
H    -1.852057  4.466479  1.927250
H    -4.272630  2.701748  1.873716
H    -4.172549  4.048664  3.045732
H    -4.125846  4.375250  1.294656
Ba    1.950451  1.817998  1.556269
