30
Energy: -251649.8385527  eV PBE+vdW (tier 2 basis)
C    1.428348  1.250713  0.860576
C    0.309905  1.543112  1.805722
O    0.538550  1.699125  3.046762
H    2.200970  2.024682  0.957706
H    1.107001  1.188741  -0.183625
H    1.888890  0.295175  1.148754
N    -0.928917  1.630964  1.303636
C    -2.195872  1.689322  2.061822
C    -2.264032  2.950012  2.938608
O    -1.908815  2.921181  4.157748
H    -1.043574  1.304350  0.341898
H    -2.967527  1.793839  1.287384
C    -2.502957  0.392227  2.839977
C    -3.039233  -0.730208  1.946083
S    -1.854260  -1.188487  0.630903
C    -2.819990  -2.433976  -0.262849
H    -3.260636  0.612488  3.606027
H    -1.597659  0.043108  3.362893
H    -3.989448  -0.421519  1.484726
H    -3.242977  -1.614929  2.564567
H    -3.047175  -3.284113  0.390122
H    -3.739784  -2.001734  -0.672264
H    -2.184750  -2.776766  -1.087101
N    -2.730831  4.071595  2.405841
C    -3.193133  4.304657  1.032380
H    -2.788824  4.857820  3.052681
H    -2.429487  4.011683  0.303254
H    -3.379321  5.376007  0.918115
H    -4.131705  3.771673  0.833295
Ba    0.046267  2.104175  5.362204
