30
Energy: -251649.3619925  eV PBE+vdW (tier 2 basis)
C    0.671876  -1.126863  0.310086
C    0.344610  -0.763692  1.718792
O    1.278546  -0.392729  2.529454
H    1.162203  -0.276687  -0.183196
H    -0.213314  -1.413831  -0.265968
H    1.386814  -1.961181  0.307138
N    -0.901286  -0.824712  2.137445
C    -1.382284  -0.540364  3.482191
C    -2.773310  -1.251047  3.507946
O    -3.334182  -1.439486  2.428718
H    -1.683169  -1.138111  1.533120
H    -0.686357  -0.982351  4.214021
C    -1.537870  0.986596  3.722568
C    -1.383659  1.419999  5.179309
S    0.329627  1.719684  5.778649
C    0.635589  3.415423  5.182034
H    -2.532222  1.294165  3.366384
H    -0.819274  1.528449  3.091603
H    -1.801196  0.691727  5.886744
H    -1.910831  2.363555  5.371136
H    0.533726  3.502649  4.093769
H    1.648225  3.700912  5.495289
H    -0.067682  4.095576  5.676518
N    -3.289366  -1.551084  4.712140
C    -4.610253  -2.164025  4.873470
H    -2.697741  -1.483911  5.532530
H    -5.089574  -1.761647  5.771766
H    -4.528795  -3.255012  4.960842
H    -5.215949  -1.923370  3.995619
Ba    2.701303  0.367613  4.210185
