30
Energy: -251649.5140785  eV PBE+vdW (tier 2 basis)
C    -1.187634  0.264312  -0.306722
C    -0.433806  -0.021017  0.952672
O    0.759190  -0.451434  0.913319
H    -2.269560  0.140906  -0.190939
H    -0.822277  -0.409241  -1.089708
H    -0.992893  1.294749  -0.643928
N    -1.015027  0.190228  2.155065
C    -1.835556  1.362831  2.449981
C    -0.882740  2.603664  2.433935
O    0.367613  2.444979  2.201642
H    -0.464037  -0.153568  2.942564
H    -2.548825  1.498253  1.623713
C    -2.630939  1.147191  3.767638
C    -4.091203  1.611956  3.736548
S    -4.257254  3.429117  3.875627
C    -5.869844  3.712697  3.097189
H    -2.100038  1.600402  4.618321
H    -2.645612  0.063375  3.952516
H    -4.628512  1.154854  4.577034
H    -4.580485  1.280796  2.809265
H    -6.050330  4.791846  3.156400
H    -6.650680  3.192766  3.662880
H    -5.873611  3.397533  2.048132
N    -1.416379  3.780760  2.643944
C    -0.673462  5.038075  2.673704
H    -2.449943  3.808566  2.862862
H    0.150773  4.985146  3.395015
H    -1.361653  5.832183  2.976327
H    -0.270911  5.275509  1.680892
Ba    2.413490  1.250729  1.602138
