30
Energy: -251649.5664248  eV PBE+vdW (tier 2 basis)
C    -0.758908  1.911230  1.242666
C    -0.118281  0.744144  1.923297
O    0.664974  0.915721  2.906956
H    -1.687661  2.196144  1.761786
H    -0.999258  1.713743  0.192831
H    -0.075997  2.765731  1.308401
N    -0.375215  -0.515365  1.502813
C    -1.711820  -0.972139  1.132128
C    -2.551044  -1.056231  2.448240
O    -2.031706  -0.692162  3.562065
H    0.210849  -1.222842  1.947728
H    -2.175421  -0.187778  0.515050
C    -1.645565  -2.285570  0.307323
C    -2.572859  -2.328832  -0.915429
S    -4.371680  -2.394998  -0.603461
C    -4.601706  -4.150129  -0.192458
H    -1.816760  -3.156608  0.955977
H    -0.614766  -2.374974  -0.067441
H    -2.314904  -3.194661  -1.539195
H    -2.424329  -1.437565  -1.541594
H    -5.673130  -4.280458  -0.001972
H    -4.038523  -4.451299  0.698925
H    -4.319007  -4.771343  -1.049575
N    -3.783349  -1.487602  2.348698
C    -4.715206  -1.605132  3.466959
H    -4.121684  -1.752000  1.377303
H    -4.341706  -2.319144  4.211526
H    -5.671697  -1.964383  3.077108
H    -4.871821  -0.631805  3.948164
Ba    -0.329850  0.224364  5.059694
