30
Energy: -251649.8711990  eV PBE+vdW (tier 2 basis)
C    0.787205  -0.368576  1.359417
C    0.036126  0.073382  2.570970
O    0.620432  0.563220  3.574656
H    1.090803  0.507341  0.766361
H    0.217647  -1.052703  0.722828
H    1.711334  -0.859082  1.689994
N    -1.323013  -0.037254  2.611788
C    -2.219310  0.291164  1.512909
C    -1.821273  1.668918  0.912247
O    -1.150014  2.494565  1.593159
H    -1.707759  0.141804  3.538436
H    -2.129761  -0.461714  0.715445
C    -3.696055  0.282919  2.009410
C    -3.976716  0.670282  3.466502
S    -3.443803  2.356985  3.982468
C    -4.241006  2.461034  5.612751
H    -4.082373  -0.739417  1.893715
H    -4.291068  0.915575  1.337883
H    -3.570041  -0.066325  4.175657
H    -5.066221  0.656936  3.604726
H    -3.989824  3.442962  6.029673
H    -3.891286  1.669490  6.283922
H    -5.327710  2.404627  5.483761
N    -2.221798  1.913449  -0.327053
C    -2.007105  3.160268  -1.063090
H    -2.733392  1.178434  -0.810947
H    -1.361269  3.815688  -0.475203
H    -2.967810  3.657304  -1.245436
H    -1.529977  2.938862  -2.024610
Ba    -0.238208  2.928819  3.888948
