30
Energy: -251649.4603016  eV PBE+vdW (tier 2 basis)
C    0.295495  1.462726  2.086550
C    -0.019498  0.014006  2.289141
O    0.908587  -0.815822  2.536209
H    -0.310146  2.095450  2.746671
H    0.083706  1.776447  1.053545
H    1.354496  1.633435  2.297645
N    -1.292333  -0.443078  2.209801
C    -2.266565  -0.027560  1.190503
C    -1.636350  -0.322284  -0.208143
O    -0.518452  -0.945927  -0.286142
H    -1.378735  -1.413845  2.506992
H    -3.094919  -0.745942  1.294900
C    -2.865937  1.389974  1.410135
C    -4.386559  1.489925  1.212117
S    -5.025179  1.395477  -0.495994
C    -4.680786  3.072561  -1.104505
H    -2.347327  2.139248  0.796630
H    -2.667225  1.652063  2.458967
H    -4.744417  2.434970  1.641527
H    -4.901533  0.685734  1.756910
H    -5.051851  3.103688  -2.135309
H    -3.610619  3.310816  -1.101120
H    -5.237232  3.804129  -0.508026
N    -2.307546  0.050278  -1.268908
C    -1.894230  -0.217845  -2.643736
H    -3.257269  0.504697  -1.113989
H    -2.655202  0.192436  -3.313539
H    -1.808300  -1.296928  -2.823199
H    -0.931607  0.261144  -2.860397
Ba    1.463614  -2.127804  0.519654
