30
Energy: -251649.2360766  eV PBE+vdW (tier 2 basis)
C    0.015615  0.580365  0.347043
C    -0.237610  -0.095804  1.654355
O    0.709631  -0.610790  2.322956
H    -0.867783  0.600783  -0.299039
H    0.834845  0.057520  -0.160356
H    0.352128  1.616179  0.513257
N    -1.491386  -0.143086  2.159890
C    -2.416373  0.990883  2.130898
C    -1.718303  2.162373  2.859898
O    -0.797555  1.899118  3.712105
H    -1.589214  -0.750749  2.974041
H    -2.642556  1.267501  1.090059
C    -3.735466  0.551060  2.821553
C    -4.971352  1.390497  2.503587
S    -5.266366  1.392328  0.703688
C    -6.722063  2.467672  0.603296
H    -3.585253  0.516241  3.912451
H    -3.920029  -0.480114  2.483955
H    -4.879787  2.420255  2.880980
H    -5.832765  0.937454  3.012609
H    -6.977233  2.531825  -0.460284
H    -6.507062  3.473827  0.982482
H    -7.565016  2.024486  1.144980
N    -2.049100  3.420424  2.624722
C    -2.951277  3.993590  1.620998
H    -1.547753  4.093780  3.206239
H    -3.516201  3.213393  1.091892
H    -2.362632  4.574309  0.899661
H    -3.656987  4.667824  2.120087
Ba    1.144223  0.576280  4.453027
