30
Energy: -251649.2430574  eV PBE+vdW (tier 2 basis)
C    -0.520393  -0.089895  -0.360987
C    -0.305942  -0.286343  1.103807
O    0.832098  -0.607969  1.563545
H    -0.148704  0.899726  -0.670647
H    -1.570847  -0.177485  -0.654763
H    0.078731  -0.834151  -0.899668
N    -1.327999  -0.093187  1.968940
C    -2.263981  1.029168  1.865457
C    -1.420229  2.322155  1.874487
O    -0.265574  2.303606  2.432091
H    -1.122371  -0.388091  2.924045
H    -2.862784  0.947174  0.941795
C    -3.257259  0.950466  3.049217
C    -4.582926  1.695583  2.846110
S    -5.485112  1.279054  1.322700
C    -6.101343  -0.387872  1.690292
H    -2.773545  1.304611  3.974615
H    -3.471360  -0.119416  3.190897
H    -4.438451  2.783785  2.817880
H    -5.230755  1.501266  3.711710
H    -6.717618  -0.670030  0.829010
H    -6.734923  -0.371130  2.584577
H    -5.296329  -1.123464  1.799028
N    -1.855337  3.442914  1.322471
C    -3.043669  3.703096  0.504821
H    -1.229552  4.238444  1.456989
H    -2.724155  4.132529  -0.452241
H    -3.695818  4.423704  1.012769
H    -3.605042  2.782383  0.317546
Ba    1.875901  1.188924  2.912079
