30
Energy: -251650.0900517  eV PBE+vdW (tier 2 basis)
C    -0.277432  -1.311218  0.618323
C    -0.280524  -0.601980  1.932009
O    0.790559  -0.108570  2.411631
H    0.048486  -0.608704  -0.161618
H    -1.257653  -1.715500  0.346289
H    0.457756  -2.126072  0.643069
N    -1.434715  -0.479969  2.595339
C    -1.573968  0.282015  3.846303
C    -0.895512  -0.471815  5.013833
O    0.234360  -0.046731  5.428367
H    -2.277399  -0.909263  2.206195
H    -0.959422  1.184890  3.720053
C    -3.022147  0.787523  4.049547
C    -4.121329  -0.161763  4.543010
S    -4.094097  -1.774396  3.680488
C    -5.665043  -2.507089  4.211504
H    -3.321024  1.230168  3.087959
H    -2.969372  1.623577  4.761519
H    -5.091414  0.316896  4.356885
H    -4.043202  -0.334583  5.625481
H    -6.501640  -1.912088  3.830053
H    -5.706682  -2.586193  5.303073
H    -5.700246  -3.509172  3.770367
N    -1.475729  -1.541928  5.517897
C    -0.919074  -2.346482  6.603510
H    -2.349232  -1.874002  5.055761
H    -0.443046  -1.697519  7.345016
H    -0.180668  -3.064281  6.220861
H    -1.734006  -2.902392  7.076032
Ba    2.264113  0.556172  4.221116
