30
Energy: -251649.1529407  eV PBE+vdW (tier 2 basis)
C    -0.934986  -1.470520  0.936160
C    -0.295491  -0.667332  2.021597
O    0.887131  -0.914684  2.409228
H    -0.678445  -1.051664  -0.050215
H    -2.026115  -1.504148  1.021527
H    -0.529575  -2.487964  0.969712
N    -0.967914  0.359871  2.589996
C    -1.769607  1.318220  1.829097
C    -0.835807  1.982315  0.785610
O    0.430411  1.903735  0.905622
H    -0.514823  0.750969  3.416737
H    -2.576345  0.787778  1.300725
C    -2.394551  2.335587  2.820984
C    -3.436672  3.296745  2.240133
S    -4.164440  4.384977  3.501991
C    -5.324751  3.264613  4.331428
H    -1.592508  2.920637  3.298395
H    -2.862862  1.729254  3.610091
H    -4.240226  2.750464  1.719108
H    -2.984772  3.999368  1.525819
H    -5.842739  3.885072  5.072318
H    -4.822218  2.448130  4.863357
H    -6.067496  2.872815  3.626181
N    -1.393870  2.635476  -0.218729
C    -0.657408  3.373896  -1.248518
H    -2.410053  2.650960  -0.265488
H    -1.378526  3.912327  -1.868717
H    -0.087290  2.684316  -1.883054
H    0.026107  4.093682  -0.784407
Ba    2.498522  0.836845  1.752748
