30
Energy: -251649.4764653  eV PBE+vdW (tier 2 basis)
C    -0.162127  -1.095379  0.083367
C    -0.210544  -0.668422  1.514423
O    0.782659  -0.090284  2.052640
H    -0.017872  -0.203502  -0.542908
H    -1.066655  -1.617290  -0.245472
H    0.708955  -1.743375  -0.078422
N    -1.332351  -0.899948  2.211572
C    -1.608386  -0.412872  3.568722
C    -0.888817  -1.293586  4.623320
O    0.306901  -0.948479  4.917375
H    -2.101199  -1.361674  1.730113
H    -1.066675  0.538812  3.664121
C    -3.107264  -0.095266  3.768001
C    -4.127331  -0.967063  3.015613
S    -5.636247  -1.026359  4.029341
C    -6.739574  -1.987198  2.962155
H    -3.259480  0.949577  3.469845
H    -3.310444  -0.119052  4.849421
H    -3.770896  -1.999381  2.854005
H    -4.358824  -0.533942  2.031595
H    -7.682042  -2.076014  3.514761
H    -6.345121  -2.992570  2.772289
H    -6.932677  -1.460370  2.020571
N    -1.409605  -2.348573  5.230233
C    -2.698015  -3.034528  5.085122
H    -0.762876  -2.769086  5.898326
H    -2.766906  -3.769884  5.891137
H    -2.747049  -3.568137  4.127769
H    -3.552744  -2.350824  5.173623
Ba    2.242395  0.182613  3.971776
