30
Energy: -251650.4135549  eV PBE+vdW (tier 2 basis)
C    -0.826999  -0.690706  -0.275838
C    -0.699236  -0.434404  1.196107
O    0.437483  -0.283505  1.717333
H    -1.859861  -0.808306  -0.619396
H    -0.262168  -1.599494  -0.524237
H    -0.359334  0.136086  -0.826538
N    -1.843569  -0.380407  1.905730
C    -2.098361  -0.213756  3.353300
C    -1.607009  1.130923  3.922192
O    -0.403055  1.498943  3.891180
H    -2.685083  -0.517938  1.353721
H    -3.194449  -0.158905  3.396563
C    -1.767707  -1.452885  4.229768
C    -0.379298  -2.095098  4.254899
S    0.860163  -1.215962  5.289528
C    2.046368  -2.555683  5.613567
H    -2.453230  -2.240930  3.882886
H    -2.085677  -1.216751  5.256667
H    0.023894  -2.262517  3.249955
H    -0.489298  -3.077256  4.734117
H    2.856360  -2.124252  6.212652
H    2.449791  -2.977730  4.686793
H    1.552710  -3.336077  6.203588
N    -2.535867  1.887687  4.499853
C    -2.248962  3.163363  5.158515
H    -3.500948  1.572704  4.486967
H    -1.472929  3.029481  5.920820
H    -3.165249  3.520557  5.635321
H    -1.911042  3.906281  4.425720
Ba    1.914559  0.918538  3.267264
