30
Energy: -251649.7511866  eV PBE+vdW (tier 2 basis)
C    0.492311  -0.482790  0.120518
C    0.218994  0.062353  1.490027
O    0.912199  1.043043  1.927521
H    1.558165  -0.719045  0.010363
H    0.264205  0.304506  -0.612533
H    -0.107066  -1.368015  -0.115418
N    -0.744869  -0.527399  2.190378
C    -1.464373  -0.143069  3.409572
C    -0.659019  0.517165  4.523447
O    0.582702  0.315605  4.697959
H    -1.239780  -1.327295  1.713668
H    -2.255281  0.566392  3.112357
C    -2.148170  -1.416956  3.986244
C    -3.269086  -2.001812  3.111408
S    -2.779061  -2.760336  1.518752
C    -2.062824  -4.334429  2.071139
H    -2.587042  -1.164431  4.961783
H    -1.369164  -2.166310  4.188858
H    -3.999767  -1.225623  2.841683
H    -3.815413  -2.759912  3.688420
H    -1.185258  -4.196396  2.712892
H    -2.825606  -4.929056  2.586523
H    -1.759733  -4.863871  1.160672
N    -1.325623  1.289602  5.383548
C    -2.742171  1.669738  5.390246
H    -0.774717  1.586062  6.187479
H    -3.064939  2.007515  4.399064
H    -2.864056  2.502555  6.088571
H    -3.381785  0.842423  5.723082
Ba    2.569042  1.275265  3.637040
