30
Energy: -251649.7333251  eV PBE+vdW (tier 2 basis)
C    -0.067006  -0.040041  -0.131965
C    -0.004971  0.264947  1.328941
O    0.878786  1.050124  1.792396
H    -0.280640  0.892850  -0.673605
H    -0.830623  -0.781027  -0.389903
H    0.912946  -0.392792  -0.477699
N    -0.913110  -0.295631  2.140247
C    -1.111556  0.035230  3.562113
C    -0.047789  -0.683833  4.421833
O    1.089014  -0.137853  4.577089
H    -1.608182  -0.902787  1.711165
H    -0.889499  1.108013  3.674320
C    -2.578726  -0.200283  3.953168
C    -2.945715  0.350958  5.338514
S    -4.708205  0.181637  5.739941
C    -4.808247  -1.575758  6.174327
H    -2.836218  -1.271689  3.878889
H    -3.206710  0.302475  3.203270
H    -2.756422  1.434087  5.369713
H    -2.343863  -0.103550  6.141107
H    -5.845735  -1.741039  6.488026
H    -4.152109  -1.814302  7.021189
H    -4.607830  -2.237723  5.322051
N    -0.349059  -1.855102  4.954617
C    0.537400  -2.675448  5.779164
H    -1.293421  -2.202471  4.801515
H    0.814517  -3.589128  5.238570
H    0.017777  -2.951947  6.703588
H    1.435440  -2.103571  6.021829
Ba    2.522209  1.530155  3.500281
