30
Energy: -251649.0959428  eV PBE+vdW (tier 2 basis)
C    -0.018631  0.354722  -0.073849
C    -0.024346  -0.009219  1.375588
O    1.051690  -0.306877  1.979336
H    0.146685  1.437343  -0.195487
H    -0.954462  0.092347  -0.578839
H    0.818940  -0.157837  -0.559523
N    -1.181890  -0.003059  2.073063
C    -2.204436  1.028958  1.931851
C    -1.583781  2.371588  2.406291
O    -0.444643  2.376271  2.986518
H    -1.110328  -0.396646  3.012175
H    -2.467699  1.126344  0.868302
C    -3.474099  0.640108  2.716692
C    -3.297954  0.545521  4.235013
S    -4.959848  0.379815  4.956543
C    -4.553468  0.002125  6.679650
H    -3.832524  -0.317545  2.314323
H    -4.260576  1.372920  2.493428
H    -2.802236  1.446010  4.638032
H    -2.699742  -0.336729  4.522993
H    -5.516841  -0.110207  7.190531
H    -4.000867  0.822335  7.153545
H    -4.002888  -0.942810  6.763180
N    -2.224746  3.511292  2.202517
C    -3.503201  3.755516  1.526308
H    -1.758976  4.332170  2.589705
H    -3.442399  4.725263  1.021932
H    -4.326914  3.784151  2.250689
H    -3.702790  2.988482  0.772448
Ba    1.740917  1.412889  3.609274
