30
Energy: -251650.0806979  eV PBE+vdW (tier 2 basis)
C    0.566875  0.931635  0.980793
C    -0.081675  0.350663  2.192287
O    0.471897  0.398563  3.325495
H    0.770760  1.995603  1.162378
H    -0.037046  0.829765  0.073236
H    1.538562  0.443794  0.824629
N    -1.298674  -0.234378  2.058989
C    -1.974642  -0.742816  3.241747
C    -1.492457  -2.154963  3.641724
O    -0.765729  -2.240402  4.676855
H    -1.751251  -0.226284  1.149395
H    -1.553543  -0.114283  4.033897
C    -3.477380  -0.477713  3.388706
C    -3.869546  -0.573926  4.871342
S    -2.861410  0.560121  5.923072
C    -3.669624  0.335529  7.534841
H    -4.102937  -1.174005  2.814722
H    -3.683795  0.534484  3.012206
H    -3.765598  -1.597525  5.257778
H    -4.914836  -0.266708  4.997859
H    -3.143197  0.982439  8.245415
H    -3.618899  -0.706695  7.867005
H    -4.711102  0.667842  7.463360
N    -1.803868  -3.239374  2.944119
C    -2.587596  -3.374192  1.718023
H    -1.408161  -4.101599  3.322323
H    -3.473621  -3.993345  1.905260
H    -1.977212  -3.855452  0.944364
H    -2.913660  -2.399741  1.349278
Ba    0.404366  -0.307038  5.756904
