30
Energy: -251649.4609826  eV PBE+vdW (tier 2 basis)
C    0.849242  -1.161629  1.354005
C    -0.051453  0.029799  1.215462
O    0.277357  1.036276  0.567557
H    1.735402  -0.858725  1.929209
H    1.202481  -1.460049  0.359798
H    0.382109  -2.018702  1.851165
N    -1.273159  -0.041797  1.838720
C    -2.194654  1.078008  2.047126
C    -2.826305  1.656794  0.768514
O    -4.094495  1.901378  0.786582
H    -1.493915  -0.903061  2.326210
H    -3.044499  0.654640  2.598823
C    -1.548898  2.185606  2.922016
C    -2.352978  3.463386  3.142387
S    -3.991579  3.339601  3.959488
C    -3.642434  2.622366  5.589234
H    -0.601298  2.490598  2.453558
H    -1.280758  1.726079  3.883359
H    -2.570128  3.984956  2.198869
H    -1.771080  4.166112  3.753698
H    -3.274221  1.595006  5.511933
H    -4.583206  2.639325  6.150539
H    -2.914699  3.261933  6.101445
N    -2.057239  1.927430  -0.252629
C    -2.488387  2.475549  -1.532170
H    -1.033047  1.694740  -0.085366
H    -3.576606  2.426536  -1.622849
H    -2.026466  1.895129  -2.338711
H    -2.155506  3.517767  -1.624166
Ba    -6.094737  2.460877  1.873162
