30
Energy: -251649.3786165  eV PBE+vdW (tier 2 basis)
C    0.233651  -0.444825  0.548016
C    -0.274216  0.023466  1.874683
O    0.109417  -0.565827  2.934045
H    0.438672  0.383613  -0.136357
H    -0.498551  -1.111025  0.065894
H    1.150428  -1.019163  0.715555
N    -1.116766  1.078605  2.002000
C    -2.349250  1.321480  1.238025
C    -3.380617  0.235445  1.662853
O    -3.001484  -0.824206  2.272783
H    -1.197349  1.370665  2.976419
H    -2.735152  2.279489  1.618802
C    -2.151413  1.509781  -0.286575
C    -3.398866  1.932956  -1.075929
S    -4.364946  3.218023  -0.204748
C    -5.665846  3.547729  -1.425419
H    -1.773725  0.591916  -0.751873
H    -1.373694  2.278784  -0.391388
H    -4.049535  1.070246  -1.279799
H    -3.072206  2.331921  -2.044892
H    -6.334082  4.283899  -0.965290
H    -6.230743  2.639925  -1.664440
H    -5.226110  3.979451  -2.331052
N    -4.643945  0.486780  1.399952
C    -5.755117  -0.403757  1.725002
H    -4.848073  1.418946  0.958792
H    -5.552106  -1.419255  1.366511
H    -6.655369  -0.023315  1.234754
H    -5.930690  -0.429706  2.808565
Ba    -1.603763  -2.072801  3.852396
