30
Energy: -251649.0637060  eV PBE+vdW (tier 2 basis)
C    -1.738620  1.437503  0.202264
C    -0.514557  1.242829  1.037483
O    0.551695  1.881163  0.768116
H    -1.600321  2.321172  -0.427410
H    -2.635247  1.562360  0.820606
H    -1.909206  0.569150  -0.452812
N    -0.502831  0.393308  2.092539
C    -1.072797  -0.960734  2.107768
C    -0.359955  -1.784005  0.997982
O    0.608179  -1.286485  0.334993
H    0.333522  0.497766  2.665430
H    -0.742616  -1.388915  3.068069
C    -2.616508  -1.055035  2.091097
C    -3.279818  -0.229658  3.201586
S    -5.079266  -0.442332  3.258762
C    -5.607456  0.632336  1.897255
H    -2.897495  -2.106301  2.252726
H    -3.015655  -0.785244  1.105146
H    -3.036325  0.840036  3.115283
H    -2.917945  -0.558565  4.186941
H    -5.271444  0.272884  0.916262
H    -5.288085  1.668993  2.066542
H    -6.703368  0.605437  1.907836
N    -0.769100  -3.022582  0.785626
C    -0.166311  -3.946157  -0.179079
H    -1.555620  -3.361898  1.333392
H    -0.707834  -4.894279  -0.132176
H    0.887309  -4.123554  0.067306
H    -0.241415  -3.541303  -1.195142
Ba    2.257772  0.455035  -0.277808
