30
Energy: -251649.5803574  eV PBE+vdW (tier 2 basis)
C    -0.248969  1.713211  0.193232
C    -0.794818  1.016856  1.395950
O    -1.462707  1.650627  2.270479
H    0.380584  2.554672  0.511046
H    -1.086521  2.138446  -0.377759
H    0.331513  1.056491  -0.462817
N    -0.576583  -0.299028  1.534110
C    -1.174970  -1.135419  2.585258
C    -0.501216  -0.869177  3.950981
O    -1.095682  -0.071304  4.749039
H    -0.069027  -0.776054  0.792076
H    -2.201452  -0.766778  2.734225
C    -1.263390  -2.602220  2.140952
C    -2.381066  -2.846248  1.122994
S    -2.221890  -4.563793  0.543760
C    -3.645340  -4.673028  -0.571033
H    -1.435338  -3.231391  3.026408
H    -0.305357  -2.931579  1.711209
H    -2.302134  -2.156454  0.266525
H    -3.365782  -2.693470  1.592335
H    -3.625298  -5.691453  -0.975545
H    -3.559381  -3.962688  -1.401757
H    -4.587560  -4.527772  -0.029801
N    0.646649  -1.419127  4.318084
C    1.546253  -2.326947  3.598121
H    0.930302  -1.171171  5.266407
H    2.541304  -2.230553  4.042627
H    1.619801  -2.054401  2.541561
H    1.218557  -3.369017  3.694391
Ba    -2.243893  2.072799  4.531926
