30
Energy: -251649.8178381  eV PBE+vdW (tier 2 basis)
C    -0.576947  1.682966  0.234225
C    -0.780168  0.916953  1.498584
O    0.104339  0.863673  2.394480
H    -0.639326  2.762923  0.433991
H    -1.288683  1.418893  -0.553826
H    0.444622  1.489254  -0.117927
N    -1.952960  0.254439  1.718333
C    -3.278224  0.769372  1.413040
C    -3.397306  2.237282  1.912135
O    -2.630976  2.681623  2.811251
H    -1.911744  -0.382951  2.510851
H    -3.435474  0.778381  0.323595
C    -4.368669  -0.152600  2.034210
C    -4.056702  -0.899678  3.339473
S    -3.535173  0.003899  4.848083
C    -4.928302  1.126426  5.154269
H    -4.607823  -0.932934  1.296998
H    -5.288255  0.434859  2.154538
H    -3.278581  -1.666879  3.205673
H    -4.955102  -1.462995  3.627894
H    -4.756496  1.580609  6.137225
H    -5.853330  0.540618  5.208458
H    -5.011603  1.911345  4.395191
N    -4.337732  2.977115  1.338300
C    -4.649242  4.368382  1.669412
H    -4.884201  2.550395  0.592990
H    -4.548511  4.990916  0.772616
H    -3.954090  4.717508  2.435866
H    -5.678563  4.443421  2.040719
Ba    -0.907718  1.903549  4.474558
