30
Energy: -251649.3303331  eV PBE+vdW (tier 2 basis)
C    0.589255  -0.493833  0.189462
C    0.175743  0.214303  1.435351
O    1.015347  0.971807  2.061112
H    0.932401  0.238392  -0.553820
H    -0.220311  -1.090381  -0.242357
H    1.438515  -1.153993  0.413776
N    -1.047324  0.063389  1.894961
C    -1.604564  0.660886  3.103885
C    -2.928182  -0.140052  3.301698
O    -3.426169  -0.644324  2.292770
H    -1.766000  -0.504771  1.409247
H    -0.895919  0.512110  3.931099
C    -1.887922  2.173235  2.878701
C    -1.874971  3.059995  4.117626
S    -0.253673  3.026304  4.985394
C    -0.406102  4.413967  6.147671
H    -2.869398  2.281130  2.393752
H    -1.157084  2.558382  2.152395
H    -2.629852  2.763000  4.856000
H    -2.070419  4.100716  3.830464
H    0.516901  4.449786  6.736820
H    -1.246241  4.216855  6.822609
H    -0.551886  5.358140  5.613215
N    -3.498439  -0.211994  4.518814
C    -2.975097  0.145015  5.830702
H    -4.383395  -0.718285  4.504253
H    -3.590798  0.923406  6.301708
H    -1.943898  0.504739  5.758573
H    -2.976133  -0.735738  6.485210
Ba    2.267674  2.575766  3.197771
