30
Energy: -251650.0370828  eV PBE+vdW (tier 2 basis)
C    -1.229724  0.191551  0.597295
C    -0.654627  0.297804  1.973866
O    0.377469  1.018777  2.185005
H    -1.517551  1.196601  0.258495
H    -2.101275  -0.469235  0.551883
H    -0.462793  -0.172186  -0.098806
N    -1.258136  -0.371769  2.952650
C    -0.985579  -0.264178  4.392213
C    0.250344  -1.105845  4.785960
O    1.401617  -0.718870  4.415472
H    -2.137401  -0.904626  2.728166
H    -0.662350  0.771322  4.592742
C    -2.289513  -0.496930  5.187128
C    -3.128489  -1.762397  4.918234
S    -3.907294  -1.922926  3.265239
C    -5.202868  -0.654234  3.340455
H    -2.924051  0.383920  5.014891
H    -2.041707  -0.456058  6.259633
H    -3.926118  -1.818057  5.671295
H    -2.560969  -2.700409  5.013466
H    -4.798063  0.359146  3.440272
H    -5.896072  -0.876237  4.159709
H    -5.745654  -0.728169  2.391034
N    0.108622  -2.191018  5.527070
C    1.220100  -3.033880  5.975223
H    -0.829915  -2.456103  5.809065
H    0.822228  -3.807451  6.636749
H    1.954794  -2.432736  6.523011
H    1.710110  -3.509539  5.117235
Ba    2.582273  0.985651  3.107952
