30
Energy: -251649.0642588  eV PBE+vdW (tier 2 basis)
C    -0.293021  0.390050  -0.294373
C    -0.152875  0.135087  1.170525
O    0.970130  -0.160767  1.679074
H    0.061542  1.403277  -0.540637
H    -1.320838  0.278308  -0.652671
H    0.360627  -0.310258  -0.828936
N    -1.229686  0.243908  1.984223
C    -2.203672  1.338187  1.899701
C    -1.412449  2.663027  1.929675
O    -0.271319  2.689867  2.507944
H    -1.070934  -0.097900  2.932769
H    -2.779305  1.254070  0.968569
C    -3.156498  1.195478  3.119857
C    -4.310200  2.194057  3.229281
S    -5.294531  1.940572  4.737654
C    -6.317205  0.514321  4.277992
H    -2.553231  1.257310  4.040389
H    -3.556990  0.172348  3.067030
H    -3.940006  3.224305  3.324777
H    -4.969903  2.151819  2.349865
H    -5.729830  -0.397906  4.121346
H    -6.982268  0.349201  5.133837
H    -6.932327  0.738389  3.398303
N    -1.890815  3.765239  1.373397
C    -3.119366  3.983541  0.605032
H    -1.303767  4.589225  1.510743
H    -3.841588  4.558256  1.197134
H    -3.575355  3.035185  0.313382
H    -2.869325  4.550190  -0.298986
Ba    1.862828  1.626698  3.145841
