30
Energy: -251649.7516752  eV PBE+vdW (tier 2 basis)
C    -0.295994  0.082153  -0.233224
C    -0.237825  -0.032586  1.255298
O    0.875024  -0.072037  1.861779
H    0.274628  -0.739344  -0.685757
H    0.197030  1.017491  -0.533414
H    -1.315888  0.074267  -0.631273
N    -1.390977  -0.080547  1.940551
C    -1.490645  -0.051568  3.410422
C    -1.076171  -1.431150  3.979463
O    0.128295  -1.553788  4.386089
H    -2.255233  -0.013202  1.408251
H    -0.695578  0.620815  3.765401
C    -2.834904  0.571197  3.833054
C    -2.881861  1.027238  5.291352
S    -2.643190  -0.377075  6.426127
C    -2.695878  0.472644  8.025653
H    -3.675265  -0.100784  3.619697
H    -2.978205  1.460965  3.200329
H    -3.857547  1.493235  5.484929
H    -2.107646  1.786581  5.480849
H    -2.561249  -0.301539  8.788997
H    -3.671898  0.949520  8.171187
H    -1.890527  1.210872  8.112536
N    -1.854726  -2.504123  3.939398
C    -3.244244  -2.665782  3.504535
H    -1.424390  -3.326307  4.361786
H    -3.401572  -3.725483  3.281473
H    -3.442092  -2.099193  2.589788
H    -3.941763  -2.364438  4.295945
Ba    2.321111  -0.847109  3.666439
