30
Energy: -251649.2412030  eV PBE+vdW (tier 2 basis)
C    -0.060621  0.140944  1.747373
C    -1.180903  0.737669  2.539934
O    -0.963744  1.253716  3.680214
H    -0.008001  0.596782  0.750294
H    -0.197404  -0.941050  1.602223
H    0.884426  0.308873  2.270572
N    -2.446887  0.726210  2.065558
C    -3.078500  -0.400013  1.372503
C    -2.895336  -1.662685  2.242864
O    -2.580393  -1.556456  3.474504
H    -3.090800  1.352097  2.546808
H    -4.156083  -0.157042  1.420853
C    -2.762893  -0.522377  -0.132521
C    -3.019033  0.795685  -0.868454
S    -4.715610  1.373704  -0.524089
C    -4.699664  2.988609  -1.346784
H    -3.428341  -1.287763  -0.562476
H    -1.732761  -0.859937  -0.308022
H    -2.892220  0.636038  -1.947273
H    -2.299938  1.565480  -0.551929
H    -5.694223  3.418999  -1.185727
H    -4.535733  2.866326  -2.423222
H    -3.943700  3.652394  -0.912333
N    -3.128088  -2.844063  1.697298
C    -3.106776  -4.115475  2.425167
H    -3.369126  -2.868779  0.710181
H    -3.314595  -4.921216  1.716701
H    -3.872956  -4.120870  3.209678
H    -2.121731  -4.280798  2.876634
Ba    -1.856054  -0.235499  5.435486
