30
Energy: -251649.2899569  eV PBE+vdW (tier 2 basis)
C    -1.994802  0.925955  -0.428446
C    -0.998310  1.137765  0.667063
O    -0.055293  1.977303  0.530300
H    -3.017796  1.050475  -0.050712
H    -1.924392  -0.089018  -0.847302
H    -1.814476  1.649308  -1.228087
N    -1.074910  0.432195  1.818676
C    -1.363684  -1.003961  1.908911
C    -0.390028  -1.748715  0.981439
O    0.667280  -1.170448  0.557883
H    -0.493537  0.797114  2.571993
H    -1.075953  -1.251516  2.955445
C    -2.851030  -1.387361  1.860911
C    -3.641190  -0.625364  2.939526
S    -2.888920  -0.648016  4.596178
C    -3.292720  -2.322586  5.170888
H    -2.937507  -2.466284  2.064699
H    -3.297628  -1.219741  0.871091
H    -4.666066  -1.014062  2.997475
H    -3.716412  0.439889  2.682038
H    -2.912863  -2.384986  6.197022
H    -2.814187  -3.107082  4.573480
H    -4.379580  -2.463330  5.189711
N    -0.635555  -3.014124  0.680040
C    0.264264  -3.873431  -0.092815
H    -1.500903  -3.421726  1.021964
H    0.396963  -3.477639  -1.106733
H    -0.180368  -4.869834  -0.155542
H    1.240881  -3.947241  0.399921
Ba    2.096644  0.812155  0.218262
