13
Energy: -8811.88397613 eV PBE+vdW (tier 2 basis)
N    -0.748743  0.034707  -0.001334
C    -0.263725  -0.064421  1.380362
C    1.262004  -0.096538  1.409835
O    1.944060  -0.735864  2.180221
H    -1.759627  0.171148  -0.000765
H    -0.333522  0.837324  -0.473528
H    -0.515002  0.830902  1.993738
H    -0.466764  -1.392834  3.087595
C    -0.853887  -1.291148  2.067917
H    -1.947474  -1.202875  2.118775
H    -0.605920  -2.199257  1.504863
H    2.768778  0.687147  0.597727
O    1.800822  0.750710  0.484592
