13
Energy: -8811.79246132 eV PBE+vdW (tier 2 basis)
N    -0.806363  0.659438  0.854461
C    -0.129717  -0.267747  1.748678
C    1.389176  -0.057665  1.965732
O    2.013276  -0.612425  2.838824
H    -0.683539  0.491117  -0.140000
H    -0.759073  1.643957  1.097100
H    -0.571059  -0.152981  2.750996
H    0.118105  -2.414312  1.964927
C    -0.365276  -1.708337  1.281389
H    -1.440759  -1.918167  1.244013
H    0.055066  -1.866023  0.276768
H    1.284670  1.137976  0.511154
O    1.994493  0.793168  1.093958
