13
Energy: -8811.93770596 eV PBE+vdW (tier 2 basis)
N    -0.151601  -0.825165  -0.080436
C    0.183639  0.277288  0.816034
C    1.261818  -0.201004  1.775782
O    1.426325  -1.351749  2.123203
H    -1.088148  -0.703139  -0.463626
H    -0.138812  -1.701537  0.445418
H    0.613036  1.105230  0.229341
C    -0.995840  0.835271  1.644081
H    -0.686418  1.682273  2.271123
H    -1.418416  0.051989  2.288002
H    -1.784044  1.187061  0.964815
O    2.011348  0.830047  2.251243
H    2.634113  0.436436  2.893019
