13
Energy: -8811.98367572 eV PBE+vdW (tier 2 basis)
N    -0.375925  -1.856583  1.221797
C    0.308079  -0.585722  1.019542
C    1.333373  -0.257215  2.111202
O    1.307943  -0.675425  3.249759
H    -0.793756  -1.872404  2.154931
H    0.295506  -2.625333  1.206598
H    0.851820  -0.634133  0.064224
C    -0.713555  0.559208  0.941405
H    -0.225179  1.519137  0.734744
H    -1.263116  0.648046  1.889243
H    -1.434396  0.342993  0.144386
O    2.296282  0.597888  1.661097
H    2.876923  0.779545  2.426071
