13
Energy: -8811.61157477 eV PBE+vdW (tier 2 basis)
N    -0.769876  -0.056806  2.497687
C    -0.027880  -0.376683  1.265530
C    1.448535  -0.009567  1.511120
O    1.975337  1.020723  1.181862
H    -0.444754  -0.602401  3.296181
H    -1.759758  -0.269753  2.371140
H    -0.061996  -1.457913  1.002752
H    -1.654486  0.163353  -0.054452
C    -0.597586  0.421007  0.100669
H    -0.518965  1.494093  0.308425
H    -0.053611  0.204492  -0.826756
H    1.632518  -1.761645  2.300801
O    2.172522  -0.959901  2.189043
