13
Energy: -8811.7892992 eV PBE+vdW (tier 2 basis)
N    -0.434820  0.271624  2.520223
C    0.094877  -0.450643  1.372078
C    1.621049  -0.299100  1.195103
O    2.259722  0.640345  1.602603
H    -0.003582  -0.071947  3.379642
H    -0.158192  1.253953  2.450749
H    -0.131002  -1.521008  1.523440
H    -0.265364  -0.526859  -0.797724
C    -0.605190  0.024348  0.088983
H    -1.688087  -0.107500  0.195995
H    -0.399942  1.090428  -0.080132
H    1.601838  -1.989627  0.269530
O    2.248693  -1.301013  0.503511
