13
Energy: -8811.74499268 eV PBE+vdW (tier 2 basis)
N    -0.553075  0.011735  0.008745
C    -0.255618  -0.122541  1.430181
C    1.207322  0.290129  1.655461
O    1.844013  0.946138  0.865624
H    0.063511  0.719748  -0.394552
H    -1.517870  0.299676  -0.141063
H    -0.831262  0.591382  2.059871
C    -0.581757  -1.544980  1.912171
H    -0.498679  -1.663243  3.005057
H    0.063480  -2.280624  1.416348
H    -1.621546  -1.784102  1.655802
O    1.766900  -0.078946  2.840838
H    1.143582  -0.644372  3.330515
