16
Energy: -604082.124801 eV PBE+vdW (tier 2 basis)
N    -0.853389  0.692106  0.109743
C    -0.137164  0.221875  1.354258
C    1.366638  0.195688  0.856573
O    2.191041  -0.563033  1.492367
H    -0.046629  1.180605  -0.399235
H    -1.655346  1.305159  0.283026
H    -0.229273  1.025766  2.096463
C    -0.706835  -1.092322  1.920336
C    0.090042  -2.243386  1.335759
O    0.323345  -2.219271  0.072048
O    0.699138  -3.049395  2.107924
H    -1.777112  -1.188924  1.687330
H    -0.609935  -1.109796  3.009922
O    1.606006  0.911005  -0.120541
H    -1.141572  -0.110281  -0.466050
Pb    2.580042  -2.684796  0.754077
