16
Energy: -604082.303212 eV PBE+vdW (tier 2 basis)
N    -0.027962  0.830957  0.307253
C    -0.290260  0.117759  1.545906
C    0.950649  -0.717359  1.913178
O    1.366247  -1.764858  1.368304
H    0.080310  0.216739  -0.498968
H    0.750482  1.484382  0.371629
H    -0.404669  0.858938  2.346438
C    -1.622561  -0.678669  1.468387
C    -1.363676  -1.963316  0.741507
O    -1.286278  -3.059530  1.403968
O    -0.980135  -1.929512  -0.488558
H    -2.332068  -0.044032  0.922602
H    -2.006664  -0.895198  2.470145
O    1.684505  -0.123629  2.841967
H    2.516891  -0.624794  2.976937
Pb    0.503070  -3.607764  0.066989
