16
Energy: -604081.323078 eV PBE+vdW (tier 2 basis)
N    -0.215232  0.210925  0.023484
C    -0.087333  -0.064194  1.421903
C    1.366263  -0.239279  1.922971
O    2.307275  -0.645134  1.325650
H    0.358462  -0.404243  -0.553652
H    -0.000978  1.178258  -0.211057
H    -0.553347  0.758988  1.985419
C    -0.896661  -1.388277  1.761729
C    -0.397586  -1.970687  3.045202
O    0.568736  -2.824616  2.993496
O    -0.740871  -1.472598  4.178536
H    -0.728860  -2.102024  0.947890
H    -1.956789  -1.121623  1.816846
O    1.537172  0.045089  3.345669
H    0.802963  0.624490  3.632463
Pb    1.402786  -1.990077  4.936453
