16
Energy: -604082.183506 eV PBE+vdW (tier 2 basis)
N    0.344100  -0.150551  0.508094
C    0.105635  -0.046731  1.954566
C    1.231826  -0.674310  2.773969
O    2.092198  -1.407805  2.177471
H    -0.111319  0.606326  -0.002355
H    -0.233856  -1.696495  0.300384
H    -0.108842  0.971610  2.304027
C    -1.122912  -0.977451  2.309577
C    -0.633897  -2.373451  2.000490
O    -0.319735  -3.192836  2.908643
O    -0.380519  -2.633438  0.752406
H    -1.969294  -0.699225  1.669731
H    -1.394196  -0.875114  3.362223
O    1.101272  -0.700910  4.043583
H    1.341293  -0.143275  0.286899
Pb    1.760248  -2.960345  3.949290
