16
Energy: -604082.098347 eV PBE+vdW (tier 2 basis)
N    -0.127745  0.499077  0.317917
C    0.062419  -0.167267  1.572591
C    1.546874  -0.346130  1.890704
O    2.011269  -0.586542  3.023744
H    0.154113  -0.048213  -0.493523
H    -1.086159  0.817543  0.193779
H    -0.319898  0.480030  2.376177
C    -0.711062  -1.555298  1.736535
C    -0.343936  -2.113513  3.070927
O    0.530209  -3.051464  3.156072
O    -0.698422  -1.468124  4.130536
H    -0.433357  -2.243453  0.931134
H    -1.779674  -1.318858  1.683162
O    2.341093  -0.224604  0.847559
H    3.272356  -0.350830  1.126770
Pb    1.393009  -1.905129  4.966708
