16
Energy: -604081.969683 eV PBE+vdW (tier 2 basis)
N    0.700258  -0.303031  0.081608
C    0.276962  0.011880  1.434731
C    1.607881  0.044019  2.222358
O    2.232923  -0.950943  2.624532
H    0.802086  -1.308369  -0.059071
H    0.062645  0.071858  -0.617737
H    -0.124243  1.035574  1.431798
C    -0.848074  -0.883067  2.066581
C    -0.239811  -2.191395  2.467572
O    -0.037821  -2.440062  3.709185
O    0.293849  -2.940088  1.564189
H    -1.617639  -1.019356  1.296438
H    -1.291812  -0.398837  2.943715
O    2.187471  1.214885  2.416933
H    1.667430  1.943961  2.029639
Pb    2.012976  -3.285193  3.084399
