16
Energy: -604081.788417 eV PBE+vdW (tier 2 basis)
N    -0.150632  -0.184411  -0.191997
C    -0.144087  -0.148698  1.303626
C    1.111877  0.477449  1.927769
O    1.167462  0.788928  3.088839
H    0.726305  -0.603476  -0.521835
H    -0.135032  0.778955  -0.538533
H    -0.996160  0.468802  1.612557
C    -0.343587  -1.571773  1.935539
C    -1.340866  -2.198322  1.014040
O    -2.517101  -1.677558  0.937028
O    -0.917881  -2.971248  0.079928
H    -0.715798  -1.441223  2.957113
H    0.587838  -2.147732  1.944174
O    2.119720  0.593716  1.029040
H    2.893800  0.968724  1.496976
Pb    -2.104859  -1.564132  -1.315263
