16
Energy: -604082.191680 eV PBE+vdW (tier 2 basis)
N    -0.118932  0.289748  0.086235
C    0.064310  -0.002439  1.557440
C    1.635174  -0.191006  1.643352
O    2.276311  0.349075  0.737848
H    0.854706  0.658548  -0.159356
H    -0.870837  0.951098  -0.129074
H    -0.192170  0.918030  2.098366
C    -0.806766  -1.171729  2.051988
C    0.007893  -2.446640  1.939347
O    0.662052  -2.635141  0.848931
O    0.220858  -3.156649  2.972324
H    -1.738579  -1.240237  1.472151
H    -1.087144  -1.019947  3.098551
O    2.098271  -0.888979  2.622674
H    -0.257408  -0.585295  -0.437519
Pb    2.481261  -3.118441  2.345743
