16
Energy: -604082.132512 eV PBE+vdW (tier 2 basis)
N    1.003062  -1.053828  0.084415
C    0.277752  -0.355321  1.129285
C    1.375698  0.025675  2.136954
O    2.010657  -0.748087  2.883661
H    0.633673  -0.856092  -0.841907
H    1.039695  -2.060516  0.240397
H    -0.094257  0.592258  0.723069
C    -0.953183  -1.097627  1.761238
C    -0.415718  -2.178119  2.645457
O    -0.417993  -2.019369  3.917816
O    0.276145  -3.132958  2.119425
H    -1.540801  -1.508857  0.931352
H    -1.572291  -0.408797  2.346490
O    1.680047  1.307585  2.090533
H    2.444089  1.489175  2.678708
Pb    1.712425  -2.905120  3.914109
