16
Energy: -604082.374837 eV PBE+vdW (tier 2 basis)
N    -0.306287  0.758137  0.425487
C    0.150226  -0.208156  1.485822
C    1.678008  -0.405029  1.114613
O    2.029948  0.190460  0.081658
H    0.657140  0.804288  -0.135687
H    -0.567761  1.676914  0.793189
H    0.097180  0.281507  2.465413
C    -0.720701  -1.484687  1.499549
C    0.041701  -2.488794  2.337826
O    0.669391  -3.429406  1.747136
O    0.232579  -2.220891  3.572891
H    -0.851534  -1.886381  0.486523
H    -1.698580  -1.264864  1.946922
O    2.443938  -1.076637  1.886309
H    -1.070829  0.401999  -0.155295
Pb    2.445580  -2.940460  3.197647
