16
Energy: -604081.421423 eV PBE+vdW (tier 2 basis)
N    -0.202702  0.590013  0.035821
C    -0.068575  0.063142  1.374592
C    1.312929  -0.577741  1.614797
O    2.197723  -0.136473  2.281946
H    -0.230692  -0.121610  -0.691768
H    0.488247  1.303942  -0.186299
H    -0.065335  0.909807  2.074025
C    -1.286658  -0.822931  1.772387
C    -1.129864  -2.171386  1.151490
O    -1.134499  -2.287789  -0.134602
O    -0.767399  -3.169962  1.873457
H    -2.176277  -0.310685  1.383990
H    -1.353341  -0.925008  2.860172
O    1.624320  -1.756267  0.802295
H    2.585263  -1.865685  0.966141
Pb    0.454736  -3.912509  0.088868
