16
Energy: -604081.232271 eV PBE+vdW (tier 2 basis)
N    -0.360764  0.348773  -0.036651
C    -0.281842  0.056154  1.389972
C    1.153305  0.221393  1.915285
O    1.619416  1.267371  2.298963
H    -0.166051  1.331105  -0.227116
H    0.283118  -0.219442  -0.588478
H    -0.878322  0.810829  1.918097
C    -0.876917  -1.338368  1.632324
C    -0.974922  -1.757569  3.056797
O    -1.188740  -2.996842  3.357754
O    -0.868573  -0.902381  4.019120
H    -0.331019  -2.123317  1.089313
H    -1.901088  -1.352983  1.219895
O    1.871325  -0.938232  1.822539
H    2.794213  -0.716140  2.058654
Pb    -1.160428  -2.533221  5.574951
