16
Energy: -604081.595797 eV PBE+vdW (tier 2 basis)
N    -0.397078  0.365775  0.220586
C    -0.100074  -0.185700  1.510258
C    1.388413  -0.042800  1.907866
O    2.308940  0.213935  1.196847
H    0.218370  0.016256  -0.513677
H    -0.359734  1.383474  0.213486
H    -0.677992  0.355731  2.273614
C    -0.569347  -1.681902  1.550425
C    -0.248701  -2.229220  2.899792
O    0.772228  -2.990449  3.068175
O    -0.858653  -1.745851  3.929903
H    -0.068431  -2.263964  0.768847
H    -1.650747  -1.668262  1.373231
O    1.646584  -0.159421  3.337149
H    2.585275  0.119714  3.405602
Pb    1.075050  -1.968032  5.100366
