16
Energy: -604082.103714 eV PBE+vdW (tier 2 basis)
N    0.050365  -1.112125  0.003134
C    0.267228  -0.232346  1.171719
C    1.770630  -0.340149  1.507113
O    2.462649  -1.270764  1.101771
H    0.464140  -0.709241  -0.840806
H    -0.949276  -1.257207  -0.162013
H    0.031462  0.820580  0.943134
C    -0.643156  -0.693315  2.366568
C    -0.425674  -2.193805  2.397105
O    0.713245  -2.581575  2.864625
O    -1.137347  -2.938438  1.661672
H    -1.685985  -0.432878  2.153072
H    -0.322636  -0.207797  3.295510
O    2.328357  0.614333  2.234311
H    1.700981  1.326692  2.461702
Pb    1.125018  -3.405966  0.740384
