32
Energy: -103893.051715 eV PBE+vdW (tier 2 basis)
C    0.684338  -0.356794  3.518062
C    -0.456652  -0.239231  4.473721
O    -0.308902  -0.534621  5.703754
H    1.331947  0.531997  3.578375
H    0.360063  -0.482425  2.480234
H    1.295855  -1.215823  3.819648
N    -1.662604  0.196345  4.052920
C    -1.843448  1.331090  3.153064
C    -1.469580  2.614007  3.954859
O    -1.067094  2.537689  5.163417
H    -2.415466  0.077441  4.732207
H    -1.120272  1.239965  2.328578
C    -3.275699  1.360233  2.555276
C    -4.352881  1.509780  3.649809
C    -3.486189  0.145142  1.645448
C    -5.743513  1.850321  3.107772
H    -3.323128  2.261291  1.918736
H    -4.050117  2.300705  4.359840
H    -4.426671  0.572426  4.230572
H    -2.717877  0.085989  0.863019
H    -4.456373  0.206478  1.140859
H    -3.468613  -0.794916  2.213808
H    -5.724563  2.774462  2.514261
H    -6.452725  1.998503  3.930470
H    -6.144297  1.050070  2.474590
N    -1.563327  3.776702  3.339062
C    -1.245471  5.073539  3.944272
H    -1.902555  3.775811  2.380162
H    -1.343931  5.845165  3.176667
H    -0.217222  5.074679  4.323297
H    -1.938859  5.293388  4.765089
Sr    -0.452367  1.341599  7.044889
