32
Energy: -103892.445754 eV PBE+vdW (tier 2 basis)
C    -0.378848  0.537144  0.245992
C    -0.344714  0.352200  1.724565
O    0.716859  0.593251  2.384204
H    0.583172  0.272867  -0.205447
H    -0.530765  1.614199  0.062204
H    -1.199308  0.008468  -0.247800
N    -1.438857  -0.071058  2.392130
C    -2.330314  -1.159469  1.938305
C    -1.380812  -2.339417  1.543810
O    -0.243470  -2.388404  2.145097
H    -1.374225  0.045865  3.401367
H    -2.785533  -1.522427  2.876109
C    -3.533074  -0.734538  1.039588
C    -3.895889  0.752025  1.251527
C    -4.737188  -1.636596  1.366221
C    -5.074916  1.215090  0.393474
H    -3.252070  -0.845360  -0.020089
H    -3.027392  1.385169  1.023103
H    -4.123324  0.918908  2.317614
H    -5.494245  -1.593552  0.576007
H    -5.212894  -1.300002  2.298480
H    -4.472506  -2.691969  1.504866
H    -5.222628  2.295003  0.511083
H    -6.016500  0.728827  0.674488
H    -4.898508  1.021714  -0.674206
N    -1.644107  -3.315625  0.689355
C    -2.746575  -3.634946  -0.227069
H    -0.900532  -4.015630  0.691666
H    -2.309500  -4.141809  -1.093731
H    -3.262716  -2.739385  -0.567336
H    -3.458311  -4.316141  0.255107
Sr    1.588409  -1.412657  3.146216
