32
Energy: -103891.94252 eV PBE+vdW (tier 2 basis)
C    -1.078650  0.834823  -0.636368
C    -0.676826  0.781881  0.796655
O    0.288476  1.581288  1.197473
H    -1.337975  1.869215  -0.900271
H    -1.922997  0.181590  -0.866839
H    -0.229236  0.537385  -1.266925
N    -1.225626  0.005109  1.685741
C    -2.344041  -0.949055  1.639289
C    -2.962402  -0.707152  3.050246
O    -2.173832  -0.350821  3.945245
H    -0.980749  0.095854  2.701863
H    -3.030393  -0.692311  0.823443
C    -1.810301  -2.410998  1.481945
C    -1.087032  -2.591907  0.133387
C    -2.926530  -3.441951  1.679844
C    -0.417212  -3.957819  -0.041194
H    -1.072861  -2.550535  2.291780
H    -0.307941  -1.819711  0.030265
H    -1.804810  -2.427170  -0.688429
H    -3.399194  -3.361347  2.665279
H    -3.701387  -3.358623  0.905052
H    -2.510234  -4.452859  1.615572
H    0.176473  -3.977121  -0.963185
H    -1.147206  -4.772243  -0.112832
H    0.258671  -4.184239  0.795224
N    -4.273754  -0.869712  3.265902
C    -5.349950  -1.222105  2.345678
H    -4.536460  -0.719419  4.239286
H    -6.191325  -0.536068  2.497283
H    -5.695873  -2.249594  2.515541
H    -5.021631  -1.135151  1.306596
Sr    1.820767  2.885971  1.916410
