32
Energy: -103892.307098 eV PBE+vdW (tier 2 basis)
C    0.440142  -0.077578  0.325419
C    0.108906  -0.023880  1.776565
O    1.064780  0.085510  2.652290
H    0.989691  0.829389  0.038064
H    -0.451886  -0.169105  -0.301817
H    1.101838  -0.934015  0.134616
N    -1.136828  -0.089500  2.173321
C    -1.640764  -0.095897  3.542488
C    -3.095603  -0.639062  3.346494
O    -3.566729  -0.609187  2.206772
H    -1.939411  -0.220294  1.517699
H    -1.049362  -0.815394  4.131841
C    -1.579104  1.332179  4.184512
C    -1.403139  1.281274  5.713526
C    -2.763506  2.213883  3.773597
C    0.000787  0.898726  6.192999
H    -0.666546  1.803909  3.770502
H    -2.136128  0.601538  6.172979
H    -1.640129  2.272269  6.125167
H    -2.901282  2.233120  2.685606
H    -2.602854  3.246370  4.106869
H    -3.701594  1.861495  4.222129
H    0.072086  0.836049  7.286246
H    0.718366  1.697288  5.896304
H    0.302219  -0.101179  5.811663
N    -3.743855  -1.077843  4.435406
C    -5.119599  -1.578744  4.396235
H    -3.242358  -1.143721  5.313708
H    -5.685218  -1.165693  5.238442
H    -5.135665  -2.674573  4.449570
H    -5.577851  -1.260473  3.456239
Sr    2.405815  0.498520  4.293274
