32
Energy: -103893.612269 eV PBE+vdW (tier 2 basis)
C    -1.688560  -0.118502  -0.400658
C    -1.359364  0.225527  1.017434
O    -0.297320  -0.216503  1.543827
H    -0.867703  0.211434  -1.051358
H    -2.626587  0.319706  -0.756180
H    -1.746055  -1.212076  -0.491670
N    -2.224772  1.004286  1.684971
C    -2.261011  1.464711  3.095290
C    -1.107076  2.423898  3.432122
O    0.103627  2.047870  3.425619
H    -3.040541  1.277874  1.145050
H    -3.177540  2.069103  3.116928
C    -2.528661  0.363650  4.178754
C    -1.340771  -0.514552  4.636641
C    -3.735942  -0.479900  3.745548
C    -1.665390  -1.429288  5.824021
H    -2.828681  0.949106  5.065366
H    -0.521583  0.159425  4.964082
H    -1.007726  -1.142377  3.787311
H    -3.482632  -1.167890  2.927404
H    -4.571137  0.151713  3.414456
H    -4.109049  -1.081466  4.580721
H    -2.087771  -0.856072  6.659562
H    -0.762922  -1.932057  6.193154
H    -2.381703  -2.211346  5.549915
N    -1.447659  3.660770  3.770395
C    -0.520487  4.716720  4.177077
H    -2.433772  3.906841  3.737829
H    0.479557  4.293835  4.291877
H    -0.853807  5.145433  5.129112
H    -0.499982  5.506740  3.416072
Sr    1.313019  0.121385  3.101328
