32
Energy: -103893.620521 eV PBE+vdW (tier 2 basis)
C    1.290744  0.742422  0.894058
C    0.148568  0.351449  1.777657
O    -0.600192  -0.614224  1.447900
H    0.897737  0.995724  -0.100165
H    1.953165  -0.123950  0.762862
H    1.875662  1.586417  1.273281
N    -0.033796  1.057348  2.905145
C    -1.055722  0.986668  3.981388
C    -1.145024  -0.392715  4.656058
O    -1.664853  -1.395001  4.078960
H    0.637266  1.809386  3.036240
H    -0.646821  1.667256  4.740108
C    -2.442138  1.607918  3.628876
C    -3.241734  1.822285  4.933266
C    -3.278629  0.896474  2.556195
C    -4.493043  2.688027  4.772283
H    -2.191298  2.602484  3.222808
H    -2.578465  2.298104  5.673597
H    -3.521892  0.843165  5.358988
H    -2.717200  0.729029  1.624994
H    -4.137057  1.519470  2.278593
H    -3.725324  -0.035764  2.954663
H    -4.945304  2.881614  5.751893
H    -5.263689  2.208145  4.155769
H    -4.253044  3.661233  4.323145
N    -0.703267  -0.473904  5.903189
C    -0.764172  -1.674554  6.737688
H    -0.289541  0.357065  6.316840
H    -0.907788  -1.371780  7.779431
H    0.169637  -2.245875  6.655777
H    -1.602681  -2.298866  6.417979
Sr    -2.241106  -2.082050  1.974534
