32
Energy: -103893.316985 eV PBE+vdW (tier 2 basis)
C    0.865446  1.652877  1.142398
C    0.154953  0.593337  1.916783
O    0.201428  0.578015  3.188280
H    1.929743  1.654144  1.412316
H    0.461233  2.632551  1.434579
H    0.767539  1.536060  0.058329
N    -0.540180  -0.335895  1.250308
C    -1.414037  -1.337118  1.872614
C    -0.581288  -2.462029  2.531884
O    -0.330997  -2.336095  3.780030
H    -0.576259  -0.269087  0.234730
H    -1.860131  -0.841289  2.746792
C    -2.607697  -1.762486  0.948827
C    -2.397174  -1.493477  -0.558252
C    -3.883738  -1.076882  1.460737
C    -3.339250  -2.302952  -1.454049
H    -2.737919  -2.847453  1.083897
H    -1.364706  -1.728821  -0.869389
H    -2.547955  -0.418936  -0.757540
H    -4.106678  -1.360584  2.498300
H    -4.752238  -1.363375  0.857502
H    -3.793849  0.018145  1.408784
H    -3.151350  -2.078598  -2.510392
H    -4.393124  -2.074649  -1.255531
H    -3.198325  -3.383634  -1.313285
N    -0.119902  -3.527476  1.896650
C    -0.200883  -3.909502  0.484488
H    0.374294  -4.177955  2.508094
H    0.531576  -4.703194  0.313234
H    0.050456  -3.065940  -0.164673
H    -1.196230  -4.292087  0.229542
Sr    0.195770  -0.575189  5.145737
