32
Energy: -103893.600616 eV PBE+vdW (tier 2 basis)
C    -0.276875  -1.042081  -0.226588
C    -0.177378  -0.765677  1.237758
O    0.889736  -0.278750  1.731209
H    -0.172429  -0.089957  -0.766866
H    -1.222093  -1.512162  -0.516811
H    0.558391  -1.680062  -0.542350
N    -1.235295  -1.030116  2.011049
C    -1.416074  -0.651309  3.421927
C    -0.686280  -1.646710  4.353824
O    0.585136  -1.588609  4.426788
H    -2.056197  -1.422170  1.553986
H    -0.867849  0.293926  3.566700
C    -2.914605  -0.376007  3.712792
C    -3.876464  -1.475886  3.190953
C    -3.297777  1.008695  3.170937
C    -5.214074  -1.512307  3.936644
H    -3.001302  -0.332392  4.811682
H    -3.417251  -2.480294  3.238406
H    -4.079411  -1.300975  2.119937
H    -3.160819  1.070435  2.081745
H    -2.705366  1.806412  3.638157
H    -4.351504  1.226362  3.377594
H    -5.870313  -2.283960  3.518092
H    -5.746717  -0.556390  3.865326
H    -5.076025  -1.735378  5.004332
N    -1.385944  -2.502925  5.072674
C    -0.842933  -3.476760  6.019264
H    -2.397086  -2.481226  4.957828
H    -1.013761  -4.493853  5.644865
H    -1.348921  -3.362391  6.984822
H    0.228205  -3.305221  6.141983
Sr    2.363274  -0.551261  3.428338
