32
Energy: -103893.222639 eV PBE+vdW (tier 2 basis)
C    0.354338  -0.036880  0.177830
C    0.119309  0.123020  1.641428
O    1.048077  0.530350  2.412574
H    1.202211  -0.715602  0.015001
H    0.640454  0.936936  -0.244080
H    -0.520772  -0.415370  -0.360038
N    -1.087635  -0.160938  2.146169
C    -1.426226  0.095339  3.550761
C    -0.659893  -0.855571  4.498752
O    0.232609  -0.310823  5.239884
H    -1.830674  -0.446142  1.511510
H    -0.958740  1.063117  3.788037
C    -2.936193  0.355549  3.829409
C    -3.972092  -0.748765  3.522904
C    -3.318857  1.699527  3.185179
C    -4.209621  -1.128243  2.056907
H    -2.966410  0.500919  4.922404
H    -4.921320  -0.369693  3.928608
H    -3.759889  -1.643645  4.121947
H    -2.690844  2.520633  3.557036
H    -4.358443  1.947419  3.430120
H    -3.240144  1.687973  2.089812
H    -5.075432  -1.796868  1.977909
H    -3.375398  -1.682753  1.593639
H    -4.430707  -0.255863  1.427972
N    -0.831339  -2.165790  4.577369
C    -1.631121  -3.094312  3.779993
H    -0.251003  -2.599746  5.297370
H    -0.976431  -3.900125  3.426391
H    -2.071034  -2.593174  2.918447
H    -2.427586  -3.533481  4.392334
Sr    2.013345  0.905403  4.450593
