32
Energy: -103893.461556 eV PBE+vdW (tier 2 basis)
C    -0.102928  0.406302  -0.304658
C    -0.304170  0.540127  1.167437
O    0.538471  1.167259  1.884770
H    0.876679  -0.048923  -0.501478
H    -0.082372  1.411464  -0.749499
H    -0.881800  -0.184963  -0.796850
N    -1.393161  -0.003609  1.726817
C    -1.786529  0.197946  3.128407
C    -0.876067  -0.633816  4.058897
O    0.086189  -0.020707  4.635253
H    -2.064029  -0.454277  1.108736
H    -1.521901  1.236759  3.377788
C    -3.314672  0.081245  3.328148
C    -4.067708  1.102285  2.437531
C    -3.658981  0.237220  4.815485
C    -3.694931  2.574844  2.617926
H    -3.641192  -0.918377  3.003082
H    -5.137409  0.967979  2.652366
H    -3.960182  0.826834  1.376005
H    -3.213421  -0.548687  5.440439
H    -4.744886  0.180931  4.954672
H    -3.329322  1.205614  5.215544
H    -4.347955  3.203650  2.001224
H    -2.664164  2.796712  2.298974
H    -3.814157  2.914132  3.655014
N    -1.019226  -1.934602  4.256334
C    -2.004310  -2.875182  3.715140
H    -0.344334  -2.324135  4.915327
H    -1.578056  -3.880618  3.782079
H    -2.214401  -2.665180  2.662728
H    -2.934990  -2.850339  4.295551
Sr    1.580648  1.540540  3.875017
