32
Energy: -103893.42265 eV PBE+vdW (tier 2 basis)
C    -0.158895  1.447588  0.198861
C    -0.765244  0.916869  1.454163
O    -1.161304  1.706057  2.370760
H    -0.897835  2.086157  -0.306097
H    0.163515  0.661554  -0.491534
H    0.698573  2.087390  0.446018
N    -0.900640  -0.406781  1.598516
C    -1.624087  -1.044788  2.709170
C    -0.783985  -0.918088  4.002107
O    -1.130496  -0.020651  4.842992
H    -0.632891  -0.995807  0.813638
H    -2.507800  -0.418884  2.913712
C    -2.158579  -2.454770  2.356496
C    -3.272094  -2.411675  1.282933
C    -2.696703  -3.131774  3.626459
C    -2.881541  -2.032970  -0.149245
H    -1.327594  -3.058997  1.956748
H    -4.086412  -1.758889  1.638991
H    -3.702393  -3.422921  1.262966
H    -3.546924  -2.574265  4.045314
H    -1.944886  -3.242739  4.418920
H    -3.059746  -4.137234  3.385266
H    -3.703127  -2.272401  -0.835011
H    -2.008671  -2.604308  -0.501269
H    -2.679776  -0.961156  -0.279901
N    0.287588  -1.654916  4.250209
C    0.898784  -2.731572  3.466500
H    0.718798  -1.458841  5.154034
H    0.396913  -3.689408  3.652411
H    1.944593  -2.819117  3.775796
H    0.878577  -2.502068  2.397661
Sr    -1.661937  2.186611  4.538325
