32
Energy: -103893.635317 eV PBE+vdW (tier 2 basis)
C    -2.260288  0.611219  -0.839304
C    -1.808406  0.788751  0.573969
O    -0.598233  0.572463  0.887251
H    -2.100495  -0.437823  -1.127060
H    -1.633103  1.221360  -1.502332
H    -3.312274  0.867713  -1.000405
N    -2.716513  1.170932  1.483008
C    -2.583690  1.285553  2.953751
C    -1.716084  2.497441  3.337280
O    -0.454135  2.463632  3.195370
H    -3.657946  1.301868  1.123897
H    -3.608638  1.487917  3.296345
C    -2.132958  -0.007813  3.686835
C    -3.005265  -1.209325  3.274738
C    -2.144545  0.243201  5.200567
C    -2.537283  -2.547702  3.848479
H    -1.093243  -0.247995  3.382235
H    -3.029602  -1.286488  2.177826
H    -4.042977  -1.012556  3.592213
H    -3.164817  0.446381  5.556113
H    -1.507484  1.086086  5.501512
H    -1.785440  -0.639404  5.740439
H    -2.615978  -2.588586  4.941334
H    -1.494239  -2.764091  3.573551
H    -3.152218  -3.363989  3.451852
N    -2.333106  3.553289  3.843004
C    -1.685486  4.782894  4.300726
H    -3.345224  3.507404  3.932264
H    -2.045415  5.026403  5.306725
H    -1.931522  5.609696  3.622692
H    -0.603842  4.634558  4.322176
Sr    1.134447  1.132011  2.227949
