32
Energy: -103893.479756 eV PBE+vdW (tier 2 basis)
C    -1.697827  -0.565282  0.316876
C    -1.183275  -0.083022  1.633997
O    -0.010927  -0.389226  2.008521
H    -1.785843  -1.660988  0.365182
H    -0.969276  -0.337201  -0.470911
H    -2.671888  -0.146000  0.044648
N    -2.004945  0.652464  2.396050
C    -1.841456  1.114004  3.793733
C    -0.783319  2.227038  3.870611
O    0.454136  1.951567  3.752365
H    -2.923714  0.819746  1.996200
H    -2.813877  1.558117  4.038779
C    -1.595760  0.012994  4.862284
C    -2.722654  -1.043559  4.921932
C    -1.437758  0.685568  6.236266
C    -2.799372  -2.085209  3.802020
H    -0.657070  -0.521726  4.619467
H    -3.689948  -0.524871  5.027040
H    -2.581512  -1.576074  5.873419
H    -0.619390  1.417072  6.276496
H    -1.235938  -0.071296  7.003124
H    -2.364263  1.198163  6.532237
H    -3.215469  -1.692602  2.866458
H    -3.454350  -2.909458  4.108295
H    -1.814816  -2.525262  3.585253
N    -1.157083  3.478710  4.085195
C    -2.508660  4.021040  4.274952
H    -0.384370  4.141837  4.152415
H    -3.159743  3.772584  3.429147
H    -2.426600  5.110068  4.327686
H    -2.950433  3.663555  5.213035
Sr    1.838396  0.246247  3.140231
