32
Energy: -103892.879108 eV PBE+vdW (tier 2 basis)
C    -0.041969  0.367205  -0.251300
C    -0.203888  -0.186291  1.123362
O    0.800741  -0.594575  1.786305
H    0.575974  1.276109  -0.235029
H    -0.990635  0.570812  -0.755161
H    0.520107  -0.373736  -0.839016
N    -1.428554  -0.258174  1.694466
C    -2.410483  0.832272  1.681186
C    -1.683466  2.110704  2.152241
O    -0.666891  1.997328  2.925004
H    -1.453781  -0.821096  2.545772
H    -2.801234  0.968844  0.664766
C    -3.604262  0.419355  2.609074
C    -4.847972  1.301662  2.395784
C    -3.208312  0.327313  4.088422
C    -6.119910  0.727479  3.026397
H    -3.859961  -0.592814  2.249857
H    -5.017477  1.418670  1.314159
H    -4.665886  2.309059  2.804057
H    -2.328734  -0.312972  4.275431
H    -4.021057  -0.127207  4.665153
H    -3.011220  1.317405  4.523227
H    -6.984749  1.344819  2.756801
H    -6.072595  0.703352  4.121929
H    -6.319362  -0.291859  2.669191
N    -2.078870  3.316595  1.780864
C    -3.115016  3.733701  0.832180
H    -1.546963  4.074760  2.211286
H    -2.693883  4.508631  0.181909
H    -3.978524  4.146891  1.366258
H    -3.445646  2.894801  0.216563
Sr    1.132010  0.756649  3.650406
