32
Energy: -103892.055517 eV PBE+vdW (tier 2 basis)
C    0.170917  -0.862917  0.714216
C    -0.040521  -0.354277  2.099151
O    0.999030  -0.292163  2.903919
H    1.040508  -0.364687  0.267056
H    -0.700334  -0.712791  0.070962
H    0.392389  -1.939687  0.749826
N    -1.194121  0.029498  2.559640
C    -2.515529  0.114921  1.930364
C    -3.243946  1.053790  2.950839
O    -2.673057  1.281130  4.034944
H    -1.319443  0.458210  3.524153
H    -2.425256  0.627516  0.961324
C    -3.168901  -1.300997  1.731323
C    -3.899191  -1.435858  0.376764
C    -4.006583  -1.755188  2.932379
C    -5.103413  -0.530443  0.111053
H    -2.313517  -1.992961  1.665766
H    -4.224884  -2.484044  0.304256
H    -3.166824  -1.300242  -0.435957
H    -4.929488  -1.173684  3.048467
H    -3.448154  -1.679120  3.875156
H    -4.296981  -2.805170  2.805123
H    -5.856394  -0.582207  0.909377
H    -5.607519  -0.835820  -0.813909
H    -4.812970  0.520874  -0.051795
N    -4.424602  1.556548  2.598947
C    -5.232446  2.405988  3.471776
H    -4.822500  1.267512  1.709445
H    -5.721202  3.178979  2.869995
H    -4.581312  2.875327  4.213828
H    -5.998502  1.815332  3.991475
Sr    2.649617  -0.118152  4.246777
