32
Energy: -103893.044895 eV PBE+vdW (tier 2 basis)
C    0.013659  0.120094  0.138590
C    -0.010141  0.070146  1.630536
O    1.069624  -0.049172  2.294693
H    0.301229  1.123474  -0.211759
H    -0.945184  -0.150141  -0.314446
H    0.791722  -0.570316  -0.210571
N    -1.178053  0.156984  2.302544
C    -2.224387  1.119157  1.975478
C    -1.720044  2.518780  2.443067
O    -0.524409  2.674219  2.863203
H    -1.109774  -0.071366  3.295043
H    -2.293886  1.184297  0.878530
C    -3.613779  0.662900  2.502843
C    -3.625694  0.267772  3.992233
C    -4.139036  -0.476753  1.620432
C    -3.192931  1.336014  4.998385
H    -4.297769  1.520648  2.378720
H    -3.039500  -0.656866  4.133299
H    -4.656440  -0.034792  4.224239
H    -3.485126  -1.358300  1.671646
H    -4.226486  -0.173709  0.568385
H    -5.134907  -0.788866  1.956071
H    -3.784437  2.256311  4.897651
H    -2.130076  1.617559  4.907911
H    -3.331865  0.974183  6.024218
N    -2.543357  3.542683  2.335719
C    -2.214910  4.923989  2.697123
H    -3.489008  3.352980  2.013285
H    -3.016740  5.574615  2.338842
H    -1.272261  5.224194  2.227310
H    -2.130332  5.025119  3.786577
Sr    1.550473  1.874642  3.481854
