32
Energy: -103893.015455 eV PBE+vdW (tier 2 basis)
C    0.337955  0.000613  0.429652
C    0.025562  0.118917  1.884749
O    0.952767  0.292371  2.739196
H    0.419754  0.999665  -0.027451
H    -0.415784  -0.570912  -0.121449
H    1.317408  -0.480375  0.324128
N    -1.252797  0.064150  2.317078
C    -2.359975  0.750473  1.656141
C    -2.093296  2.278541  1.790688
O    -1.123777  2.711643  2.500180
H    -1.350125  -0.005955  3.331028
H    -2.344215  0.498638  0.585480
C    -3.719496  0.272838  2.249417
C    -4.922694  0.658502  1.361134
C    -3.905132  0.710533  3.707083
C    -6.155693  -0.219318  1.598174
H    -3.639683  -0.826569  2.216362
H    -4.635290  0.573038  0.298544
H    -5.206217  1.709589  1.543262
H    -3.111850  0.348066  4.379712
H    -4.837394  0.299917  4.110639
H    -3.966421  1.804981  3.801093
H    -6.970479  0.079621  0.928529
H    -6.533567  -0.134487  2.624569
H    -5.934097  -1.276324  1.401279
N    -2.888709  3.108361  1.144827
C    -2.786122  4.569813  1.186771
H    -3.654135  2.701707  0.610634
H    -3.590159  4.988390  0.576351
H    -1.822120  4.897271  0.779877
H    -2.890167  4.932097  2.216258
Sr    0.839604  2.404264  3.677688
