32
Energy: -103892.973887 eV PBE+vdW (tier 2 basis)
C    -1.346487  1.491081  0.284854
C    -0.632281  0.704058  1.332757
O    0.229489  1.254040  2.091515
H    -2.205453  2.023076  0.724311
H    -1.708124  0.868933  -0.539939
H    -0.662125  2.256457  -0.100033
N    -0.910662  -0.604802  1.510312
C    -2.268601  -1.153471  1.529348
C    -3.021050  -0.430321  2.677088
O    -2.373620  0.180731  3.594129
H    -0.260055  -1.092009  2.128614
H    -2.773917  -0.919642  0.579421
C    -2.184691  -2.705529  1.672125
C    -1.468480  -3.282212  0.429015
C    -3.547989  -3.365953  1.897557
C    -1.017347  -4.734835  0.588535
H    -1.559020  -2.905273  2.563764
H    -0.589636  -2.664891  0.187392
H    -2.147882  -3.190994  -0.434782
H    -4.010029  -3.097961  2.855496
H    -3.427847  -4.454670  1.908984
H    -4.249783  -3.140479  1.079260
H    -0.469628  -5.057149  -0.304942
H    -1.858787  -5.426850  0.714889
H    -0.344837  -4.858480  1.448906
N    -4.340276  -0.448483  2.673654
C    -5.189045  0.138612  3.714454
H    -4.801574  -0.954357  1.921345
H    -6.229405  -0.111346  3.491978
H    -5.080865  1.229935  3.727356
H    -4.923033  -0.266502  4.697534
Sr    -0.503456  1.349474  4.286347
