32
Energy: -103893.544976 eV PBE+vdW (tier 2 basis)
C    -0.370231  -0.472470  -0.197845
C    -0.326108  -0.308826  1.287261
O    0.768897  -0.457166  1.910621
H    -1.357146  -0.283678  -0.632306
H    -0.061924  -1.498535  -0.444418
H    0.363585  0.199710  -0.661441
N    -1.468643  -0.009889  1.921229
C    -1.757836  0.046582  3.371364
C    -1.110636  1.275569  4.025189
O    0.148209  1.321804  4.210395
H    -2.285392  0.063354  1.321178
H    -2.844985  0.175613  3.415667
C    -1.441928  -1.252473  4.162023
C    -2.004190  -2.508430  3.460966
C    -1.939230  -1.098828  5.606728
C    -3.516604  -2.532305  3.227612
H    -0.343298  -1.384783  4.197221
H    -1.722199  -3.369271  4.084825
H    -1.479927  -2.659754  2.505172
H    -1.734076  -2.013481  6.175697
H    -3.023619  -0.930917  5.646403
H    -1.452889  -0.268892  6.137732
H    -3.859911  -1.746815  2.537270
H    -4.086884  -2.432580  4.159605
H    -3.808683  -3.488068  2.776846
N    -1.869071  2.282464  4.429631
C    -3.327086  2.435117  4.340755
H    -1.356837  3.036908  4.887636
H    -3.577972  3.444072  4.679246
H    -3.840619  1.716120  4.990561
H    -3.675631  2.329599  3.307188
Sr    2.059861  0.213250  3.641986
