32
Energy: -103892.886777 eV PBE+vdW (tier 2 basis)
C    0.592765  0.966547  0.875389
C    0.135575  0.543879  2.231102
O    0.965077  0.393586  3.183993
H    0.856464  2.035473  0.874691
H    -0.148917  0.778896  0.093619
H    1.515998  0.419569  0.642904
N    -1.176682  0.336090  2.475738
C    -2.243800  1.247824  2.041658
C    -1.858603  2.651562  2.554340
O    -1.131146  2.751702  3.606832
H    -1.367096  -0.113436  3.372852
H    -2.306259  1.251234  0.944847
C    -3.592747  0.715935  2.625009
C    -3.917371  -0.647779  1.976222
C    -4.752836  1.705789  2.497389
C    -5.038099  -1.418383  2.676310
H    -3.408927  0.557691  3.706420
H    -3.013286  -1.276194  1.957623
H    -4.183916  -0.473408  0.920626
H    -4.554117  2.669984  2.982709
H    -5.638928  1.289361  2.988543
H    -5.024163  1.880456  1.447799
H    -5.165489  -2.401737  2.208431
H    -6.004688  -0.904465  2.612336
H    -4.812824  -1.586984  3.738840
N    -2.241620  3.750764  1.927311
C    -3.013489  3.920320  0.693695
H    -1.962159  4.614970  2.394145
H    -2.504789  4.658551  0.063543
H    -4.021819  4.283004  0.926090
H    -3.092758  2.979004  0.145962
Sr    0.632925  1.962283  4.864512
