32
Energy: -103892.155563 eV PBE+vdW (tier 2 basis)
C    -0.143793  -0.548062  -0.186244
C    -0.110517  0.031034  1.186554
O    1.062116  0.293852  1.722433
H    0.258181  -1.571352  -0.161899
H    0.502106  0.041852  -0.849270
H    -1.152966  -0.583933  -0.605594
N    -1.174825  0.293805  1.885782
C    -2.602297  0.150681  1.583985
C    -3.220052  1.095221  2.661082
O    -2.484683  1.476245  3.589669
H    -1.133605  0.771833  2.828707
H    -2.807190  0.539845  0.577196
C    -3.074202  -1.333891  1.690023
C    -4.475938  -1.563422  1.092466
C    -2.977004  -1.870653  3.120986
C    -4.667190  -1.116987  -0.358089
H    -2.369007  -1.901378  1.057372
H    -5.240978  -1.113338  1.744997
H    -4.662113  -2.645484  1.157960
H    -1.970325  -1.758540  3.546405
H    -3.222070  -2.939378  3.137894
H    -3.680495  -1.361502  3.793777
H    -5.643342  -1.444222  -0.735348
H    -3.905170  -1.554088  -1.019869
H    -4.634289  -0.024425  -0.491817
N    -4.504334  1.429184  2.518085
C    -5.237106  2.270023  3.463176
H    -5.007765  1.072228  1.712496
H    -5.648431  3.144904  2.946209
H    -4.546734  2.598671  4.243783
H    -6.057506  1.702404  3.919008
Sr    2.934096  0.781944  2.627236
