32
Energy: -103892.910881 eV PBE+vdW (tier 2 basis)
C    1.540797  0.901405  2.002310
C    0.945879  2.175090  2.504493
O    1.654761  3.224817  2.633214
H    1.540469  0.885976  0.900465
H    1.005109  0.015770  2.359517
H    2.588362  0.856836  2.321975
N    -0.368532  2.241946  2.800688
C    -1.428280  1.648542  1.984430
C    -1.272612  2.250204  0.561070
O    -0.658334  3.358124  0.396289
H    -0.651532  3.077443  3.313544
H    -1.282576  0.559018  1.916816
C    -2.813273  1.920053  2.658892
C    -3.042292  0.994107  3.876364
C    -3.997811  1.800932  1.692595
C    -2.070091  1.088062  5.053308
H    -2.780246  2.968824  3.012439
H    -3.093596  -0.045937  3.513871
H    -4.053644  1.224824  4.240860
H    -4.926154  1.994446  2.242471
H    -4.092356  0.785383  1.278664
H    -3.962565  2.520113  0.864714
H    -2.445238  0.484187  5.888378
H    -1.976072  2.118504  5.427462
H    -1.065928  0.711543  4.819660
N    -1.772468  1.567353  -0.451969
C    -1.812190  1.990155  -1.851715
H    -2.249261  0.695886  -0.227839
H    -1.362678  1.213847  -2.481645
H    -1.260768  2.925249  -1.965335
H    -2.854005  2.141242  -2.161234
Sr    0.987027  4.826989  1.096272
