32
Energy: -103892.984189 eV PBE+vdW (tier 2 basis)
C    -0.202990  0.755155  -0.660255
C    -0.114924  0.172214  0.711130
O    1.008185  -0.158460  1.210086
H    -0.007849  1.838979  -0.628798
H    -1.178328  0.590918  -1.129365
H    0.584800  0.307883  -1.277819
N    -1.227881  0.008262  1.457148
C    -2.286495  1.009070  1.569322
C    -1.662376  2.273470  2.212977
O    -0.495064  2.215774  2.736467
H    -1.089884  -0.540800  2.306898
H    -2.639173  1.271202  0.561002
C    -3.488892  0.437435  2.378184
C    -3.091671  0.038573  3.815295
C    -4.150769  -0.695132  1.585006
C    -4.288693  -0.267918  4.720329
H    -4.214868  1.260476  2.461780
H    -2.505241  0.853031  4.275805
H    -2.439529  -0.854775  3.796788
H    -4.438184  -0.369115  0.576499
H    -5.063993  -1.031372  2.087702
H    -3.490127  -1.567336  1.484357
H    -4.981961  0.582909  4.763775
H    -3.955020  -0.476221  5.743608
H    -4.849794  -1.144823  4.377140
N    -2.324760  3.417444  2.221152
C    -3.630980  3.743924  1.641401
H    -1.848327  4.178252  2.706747
H    -3.575208  4.750352  1.213042
H    -4.409950  3.731317  2.414018
H    -3.895142  3.042373  0.845578
Sr    1.562281  1.205321  2.999220
