32
Energy: -103893.039293 eV PBE+vdW (tier 2 basis)
C    -3.516059  -0.400183  -0.626028
C    -2.592562  0.289159  0.322883
O    -2.452117  1.553609  0.295034
H    -3.514492  0.152535  -1.572932
H    -4.548474  -0.375106  -0.242328
H    -3.238625  -1.443640  -0.806298
N    -1.905236  -0.419507  1.244981
C    -2.494468  -1.495251  2.037704
C    -3.608208  -0.863262  2.914947
O    -3.739946  0.405141  2.991899
H    -1.187011  0.115817  1.734838
H    -2.965593  -2.220579  1.359234
C    -1.379135  -2.229562  2.844979
C    -1.833157  -3.567550  3.462402
C    -0.734301  -1.328378  3.904631
C    -2.525013  -4.547976  2.512979
H    -0.626828  -2.470136  2.075268
H    -2.446992  -3.383882  4.360602
H    -0.923184  -4.043747  3.854858
H    -0.279354  -0.413374  3.493501
H    0.083469  -1.864158  4.401509
H    -1.450508  -1.037635  4.687392
H    -3.519157  -4.215290  2.166957
H    -2.681860  -5.513537  3.007825
H    -1.920430  -4.737663  1.615415
N    -4.413929  -1.674507  3.572547
C    -5.491518  -1.242857  4.467043
H    -4.264955  -2.675117  3.458463
H    -5.898820  -2.125728  4.966161
H    -6.291943  -0.754217  3.897964
H    -5.104227  -0.549514  5.221879
Sr    -3.330795  2.534750  2.199664
