32
Energy: -103893.5573 eV PBE+vdW (tier 2 basis)
C    0.810198  1.798693  1.741703
C    0.329926  0.789009  2.735974
O    1.130103  0.314168  3.590687
H    1.653338  1.372515  1.181333
H    1.197475  2.673434  2.281951
H    0.039723  2.127175  1.036799
N    -0.959564  0.420534  2.674368
C    -1.769910  -0.536900  3.467201
C    -1.774576  -0.218560  4.972598
O    -0.757572  -0.402747  5.704338
H    -1.482530  0.867837  1.927053
H    -2.784706  -0.316940  3.109704
C    -1.617818  -2.067557  3.139130
C    -0.499586  -2.910321  3.800610
C    -1.683495  -2.280879  1.621412
C    0.904972  -2.907571  3.175067
H    -2.549275  -2.476951  3.564852
H    -0.851412  -3.951945  3.768801
H    -0.487512  -2.702838  4.888958
H    -1.720800  -3.352561  1.389586
H    -0.815454  -1.857503  1.099534
H    -2.587079  -1.829141  1.190954
H    1.606036  -3.524558  3.762973
H    1.334277  -1.906756  2.994125
H    0.895762  -3.373194  2.181917
N    -2.921676  0.214264  5.481292
C    -3.154240  0.519878  6.893266
H    -3.699665  0.363820  4.844434
H    -4.146093  0.153613  7.178010
H    -3.110646  1.604082  7.058670
H    -2.391150  0.027666  7.500620
Sr    1.458948  -0.976765  5.432081
