32
Energy: -103893.626925 eV PBE+vdW (tier 2 basis)
C    -0.444600  0.308499  0.352290
C    -0.174196  0.324098  1.820034
O    1.018048  0.399673  2.258155
H    -0.081859  1.252864  -0.078731
H    -1.505138  0.190746  0.107427
H    0.129144  -0.498613  -0.121263
N    -1.208464  0.269439  2.666821
C    -1.130254  0.462047  4.124735
C    -0.624874  -0.842431  4.780609
O    0.630868  -1.027859  4.889067
H    -2.140159  0.241261  2.258759
H    -0.333323  1.199967  4.305779
C    -2.447736  1.043397  4.687594
C    -2.922641  2.284022  3.888389
C    -2.288573  1.354186  6.183385
C    -1.928260  3.441744  3.780352
H    -3.245435  0.284212  4.570321
H    -3.841182  2.635224  4.379452
H    -3.248880  1.985263  2.878979
H    -1.521721  2.120892  6.355890
H    -2.019122  0.474102  6.781675
H    -3.231910  1.740736  6.586322
H    -2.392293  4.283826  3.253509
H    -1.024242  3.176723  3.210770
H    -1.613983  3.816490  4.762660
N    -1.503485  -1.741046  5.182422
C    -1.194488  -3.028493  5.804432
H    -2.487255  -1.497720  5.083232
H    -1.465028  -3.847078  5.125753
H    -1.771630  -3.128417  6.730707
H    -0.127440  -3.073406  6.031843
Sr    2.517108  -0.307350  3.806631
