32
Energy: -103892.809822 eV PBE+vdW (tier 2 basis)
C    -1.289678  1.515277  0.676393
C    -0.553051  0.641641  1.638109
O    0.723045  0.635330  1.629024
H    -1.666063  0.927068  -0.174749
H    -0.595991  2.268725  0.290476
H    -2.149763  2.006924  1.142456
N    -1.183389  -0.144731  2.541152
C    -2.324658  -1.040918  2.283599
C    -1.775895  -2.177240  1.365127
O    -0.645185  -2.061083  0.780636
H    -0.533170  -0.514965  3.234842
H    -2.541971  -1.506743  3.258274
C    -3.650505  -0.347279  1.837211
C    -4.008529  0.757033  2.860274
C    -4.806671  -1.348293  1.693077
C    -5.068969  1.739447  2.360804
H    -3.494838  0.114258  0.850848
H    -3.104728  1.317965  3.139405
H    -4.352129  0.273217  3.789444
H    -4.721075  -1.991506  0.808341
H    -5.746300  -0.799056  1.567122
H    -4.932476  -1.967182  2.596287
H    -5.244613  2.518171  3.112414
H    -6.035791  1.258774  2.167854
H    -4.756794  2.241748  1.433650
N    -2.482082  -3.284941  1.246071
C    -2.097220  -4.441346  0.433056
H    -3.374829  -3.326379  1.732159
H    -2.938716  -5.138366  0.406756
H    -1.230063  -4.949639  0.872938
H    -1.858732  -4.126985  -0.588988
Sr    1.513093  -1.261449  0.598428
