32
Energy: -103893.226567 eV PBE+vdW (tier 2 basis)
C    -0.608278  -1.398836  0.492188
C    -0.425041  -0.734789  1.814068
O    0.711408  -0.280333  2.167479
H    -0.353784  -0.683797  -0.302931
H    -1.627558  -1.763935  0.330228
H    0.095837  -2.236986  0.403283
N    -1.472591  -0.609905  2.639634
C    -1.382169  0.149855  3.890734
C    -0.453898  -0.558434  4.901269
O    0.621361  0.066157  5.211657
H    -2.385025  -0.925052  2.318444
H    -0.803098  1.052528  3.643298
C    -2.740600  0.720895  4.395846
C    -3.794731  -0.301440  4.858676
C    -3.275956  1.690801  3.328933
C    -5.099286  0.340364  5.342631
H    -2.457888  1.319884  5.278584
H    -3.382646  -0.894077  5.686205
H    -4.031659  -1.010035  4.044185
H    -2.497397  2.377824  2.969273
H    -4.079334  2.306720  3.745422
H    -3.696126  1.165951  2.458563
H    -5.752282  -0.422173  5.782851
H    -5.659006  0.816361  4.529292
H    -4.908668  1.097610  6.115476
N    -0.661196  -1.759173  5.420934
C    -1.674488  -2.781004  5.154979
H    0.059028  -2.029524  6.093004
H    -2.310438  -2.496486  4.317576
H    -2.298193  -2.936866  6.043047
H    -1.163070  -3.721254  4.915006
Sr    2.212493  0.615249  3.648872
