32
Energy: -103893.540166 eV PBE+vdW (tier 2 basis)
C    0.257980  0.097881  0.025496
C    -0.151356  -0.024455  1.455768
O    0.723200  -0.047906  2.379592
H    0.790905  1.050678  -0.105349
H    -0.584918  0.063881  -0.672288
H    0.968125  -0.701218  -0.224028
N    -1.454950  -0.094976  1.750319
C    -2.030277  -0.047317  3.108088
C    -1.840004  -1.419400  3.790207
O    -0.775123  -1.623528  4.462059
H    -2.110799  -0.061320  0.972731
H    -1.392784  0.634634  3.691842
C    -3.438166  0.608235  3.062951
C    -3.874362  1.129599  4.451639
C    -4.545090  -0.190510  2.352214
C    -4.081360  0.097603  5.562990
H    -3.260434  1.510287  2.452984
H    -4.811480  1.683903  4.298293
H    -3.144170  1.884131  4.784642
H    -5.351450  0.493407  2.060989
H    -5.024212  -0.938877  3.001096
H    -4.219919  -0.689314  1.425584
H    -4.481743  0.591214  6.456496
H    -3.146218  -0.393263  5.871872
H    -4.800601  -0.685579  5.288094
N    -2.741659  -2.369001  3.641697
C    -2.649774  -3.697629  4.250574
H    -3.587440  -2.132070  3.128344
H    -2.579807  -3.610757  5.341646
H    -1.770023  -4.232814  3.874360
H    -3.549360  -4.260145  3.988922
Sr    1.392273  -0.896375  4.375175
