32
Energy: -103893.543205 eV PBE+vdW (tier 2 basis)
C    1.596031  -0.087695  0.670031
C    0.938250  -0.764985  1.828644
O    1.640981  -1.365938  2.696514
H    2.138267  -0.845139  0.085998
H    2.345375  0.623896  1.040587
H    0.896291  0.435669  0.010560
N    -0.399861  -0.719821  1.906765
C    -1.313840  -1.416752  2.840168
C    -1.233517  -0.802851  4.246327
O    -0.223049  -1.024689  4.988088
H    -0.858054  -0.227459  1.145304
H    -2.311460  -1.208229  2.435104
C    -1.183032  -2.964303  2.883160
C    -1.233193  -3.561471  1.464024
C    -2.273481  -3.529477  3.803641
C    -0.978617  -5.068868  1.412175
H    -0.195089  -3.230667  3.310759
H    -0.491083  -3.057907  0.827183
H    -2.219086  -3.336593  1.023803
H    -2.234691  -3.115828  4.820751
H    -2.175262  -4.616235  3.897012
H    -3.273804  -3.330630  3.393124
H    -1.762164  -5.646320  1.916976
H    -0.013252  -5.332815  1.868908
H    -0.948280  -5.410858  0.371045
N    -2.231304  -0.061695  4.701817
C    -3.491370  0.299443  4.039399
H    -2.103087  0.274388  5.656805
H    -4.018009  1.005814  4.686844
H    -4.130555  -0.580660  3.898457
H    -3.308502  0.794447  3.078919
Sr    1.867447  -1.934772  4.875108
