32
Energy: -103892.882948 eV PBE+vdW (tier 2 basis)
C    0.565524  -1.029456  0.354917
C    0.297315  -0.790508  1.802747
O    1.140438  -0.180304  2.532756
H    0.459989  -0.093352  -0.214640
H    -0.084081  -1.792447  -0.083548
H    1.614126  -1.338576  0.251442
N    -0.862830  -1.204366  2.360707
C    -2.180525  -1.024166  1.742934
C    -2.317302  0.476502  1.395210
O    -1.620185  1.331797  2.048476
H    -0.874511  -1.150899  3.380231
H    -2.246128  -1.633025  0.831944
C    -3.259630  -1.527635  2.762819
C    -4.611475  -1.879840  2.118574
C    -3.441065  -0.574712  3.951040
C    -4.579995  -3.052492  1.138555
H    -2.828247  -2.473725  3.133454
H    -5.062267  -0.984915  1.662435
H    -5.289054  -2.137112  2.945722
H    -3.935118  0.361961  3.656443
H    -4.070568  -1.049709  4.712494
H    -2.497197  -0.314790  4.459989
H    -3.939708  -2.882042  0.259103
H    -5.586101  -3.260775  0.755811
H    -4.220156  -3.968147  1.626327
N    -3.131334  0.905601  0.445971
C    -3.930672  0.168838  -0.535921
H    -3.164805  1.923002  0.363242
H    -3.695939  0.554252  -1.535075
H    -4.999221  0.317789  -0.341404
H    -3.708265  -0.898896  -0.503892
Sr    0.280702  1.862434  3.233854
