32
Energy: -103892.942013 eV PBE+vdW (tier 2 basis)
C    -1.239237  -1.563732  -0.403702
C    -0.311117  -0.968822  0.603391
O    0.885860  -1.387300  0.713400
H    -1.083647  -1.100443  -1.390840
H    -2.293289  -1.451984  -0.130423
H    -0.996102  -2.627783  -0.508519
N    -0.724692  0.035820  1.405680
C    -1.522317  1.168466  0.939791
C    -0.614195  1.978746  -0.035135
O    0.605776  1.640705  -0.215888
H    -0.075856  0.258848  2.162183
H    -2.368071  0.778707  0.354394
C    -2.080542  1.965954  2.171953
C    -3.556550  2.394246  2.013857
C    -1.154975  3.096703  2.639450
C    -3.919798  3.374009  0.895786
H    -2.096099  1.206178  2.969449
H    -3.851543  2.837952  2.975763
H    -4.172044  1.487754  1.909838
H    -0.113867  2.762764  2.771703
H    -1.489404  3.467119  3.615709
H    -1.143175  3.956116  1.956761
H    -3.873065  2.912344  -0.107196
H    -3.317355  4.294587  0.916147
H    -4.963524  3.694543  1.000872
N    -1.135325  3.007319  -0.668472
C    -0.406101  3.875615  -1.594966
H    -2.109073  3.240418  -0.461869
H    -1.098336  4.632199  -1.973056
H    -0.016640  3.295195  -2.439494
H    0.424881  4.373851  -1.081027
Sr    2.397710  0.206076  -0.012598
