32
Energy: -103893.593472 eV PBE+vdW (tier 2 basis)
C    -0.521882  -3.431602  0.821097
C    -0.649377  -2.176100  1.618250
O    0.131987  -1.194303  1.408775
H    -0.694870  -3.191952  -0.237973
H    -1.224117  -4.213703  1.127239
H    0.504102  -3.814474  0.897433
N    -1.608168  -2.097006  2.548851
C    -1.975687  -0.882347  3.294255
C    -0.958020  -0.622353  4.426638
O    0.085468  0.059636  4.157827
H    -2.207218  -2.910443  2.671888
H    -1.821583  -0.041125  2.603411
C    -3.488860  -0.888465  3.637794
C    -3.941780  0.458333  4.240299
C    -3.993738  -2.068909  4.485973
C    -3.618050  1.700807  3.408802
H    -3.965695  -0.975336  2.645992
H    -3.532603  0.569161  5.257777
H    -5.030840  0.391461  4.373628
H    -5.079879  -2.160641  4.363861
H    -3.842678  -1.922160  5.567287
H    -3.574110  -3.049386  4.214128
H    -2.540644  1.928059  3.381837
H    -4.106066  2.583649  3.838197
H    -3.976823  1.604332  2.374164
N    -1.175425  -1.112990  5.631334
C    -0.299292  -0.945128  6.791214
H    -2.036561  -1.640422  5.763544
H    0.291940  -1.855247  6.955817
H    -0.915642  -0.756941  7.676501
H    0.368938  -0.097354  6.623526
Sr    1.346172  0.502948  2.299635
