32
Energy: -103892.969351 eV PBE+vdW (tier 2 basis)
C    0.685716  0.032255  2.209067
C    -0.258615  -0.028741  3.363219
O    0.169988  -0.100346  4.558069
H    1.016599  1.069577  2.041450
H    0.246166  -0.346707  1.280740
H    1.579331  -0.550716  2.461004
N    -1.594222  0.015475  3.157986
C    -2.244246  0.921573  2.219438
C    -1.903544  2.376213  2.637329
O    -1.326573  2.611154  3.753332
H    -2.156695  -0.208916  3.979406
H    -1.808067  0.770368  1.220503
C    -3.772168  0.600853  2.114618
C    -4.465445  0.296565  3.459315
C    -3.977585  -0.552000  1.124152
C    -4.403641  1.368659  4.550208
H    -4.251197  1.502088  1.703636
H    -4.124399  -0.677932  3.851007
H    -5.522794  0.120368  3.216248
H    -3.599914  -0.302587  0.123396
H    -5.044248  -0.785025  1.023099
H    -3.471267  -1.467554  1.460692
H    -3.396904  1.473089  4.996541
H    -5.085217  1.121116  5.372493
H    -4.688591  2.360504  4.173376
N    -2.173780  3.379355  1.818484
C    -2.759176  3.354566  0.474992
H    -1.930188  4.300309  2.184422
H    -2.240009  4.097023  -0.140413
H    -3.825553  3.610873  0.512590
H    -2.638459  2.372674  0.009339
Sr    -0.339159  1.858183  5.696735
