32
Energy: -103893.596453 eV PBE+vdW (tier 2 basis)
C    -2.120892  0.291313  -0.463088
C    -1.623986  0.488092  0.934773
O    -0.495978  0.027414  1.270755
H    -1.401031  0.736499  -1.163282
H    -3.110943  0.720707  -0.646831
H    -2.149650  -0.785410  -0.678939
N    -2.420751  1.161258  1.783468
C    -2.281957  1.522335  3.218793
C    -1.048635  2.400291  3.488520
O    0.133604  1.961017  3.379541
H    -3.302087  1.457779  1.374584
H    -3.149449  2.176518  3.378426
C    -2.521421  0.356302  4.234994
C    -1.486344  -0.795792  4.304586
C    -3.927865  -0.215024  3.992519
C    -0.323091  -0.615356  5.296015
H    -2.528364  0.855182  5.219495
H    -1.161897  -1.057583  3.280987
H    -2.025007  -1.699289  4.621964
H    -3.979630  -0.784233  3.054028
H    -4.692977  0.572234  3.958472
H    -4.202313  -0.897419  4.805617
H    0.379468  -1.467097  5.271505
H    -0.698807  -0.598764  6.327632
H    0.223832  0.340195  5.202336
N    -1.290537  3.645546  3.879638
C    -0.272629  4.636515  4.228480
H    -2.259768  3.947935  3.931907
H    -0.542108  5.110784  5.178710
H    -0.215242  5.405537  3.447773
H    0.695709  4.140856  4.324388
Sr    1.209742  0.018657  2.783233
