32
Energy: -103893.566448 eV PBE+vdW (tier 2 basis)
C    2.430396  1.764958  2.968027
C    1.414385  0.762546  3.415948
O    1.678659  -0.016170  4.378076
H    3.345716  1.232482  2.674932
H    2.695482  2.409319  3.817161
H    2.097719  2.390303  2.133450
N    0.241343  0.732248  2.763280
C    -0.954285  -0.142188  2.900269
C    -1.570507  -0.070398  4.306091
O    -1.043011  -0.637238  5.309304
H    0.167065  1.406825  2.006637
H    -1.677537  0.337801  2.227630
C    -0.778976  -1.573583  2.298698
C    -2.147584  -2.213212  1.953562
C    0.134877  -2.556233  3.045905
C    -2.958443  -2.822676  3.100628
H    -0.284944  -1.371060  1.334447
H    -1.949414  -2.998550  1.209665
H    -2.757675  -1.466298  1.421381
H    0.235318  -3.479699  2.460788
H    -0.312533  -2.879964  4.004207
H    1.155677  -2.164181  3.170062
H    -2.438428  -3.662038  3.581309
H    -3.899869  -3.226920  2.709844
H    -3.227873  -2.098836  3.881656
N    -2.710301  0.595227  4.429477
C    -3.458467  0.709513  5.683335
H    -3.109202  1.026749  3.601088
H    -4.373558  1.274592  5.489932
H    -2.862290  1.235318  6.438398
H    -3.719813  -0.286920  6.060135
Sr    0.979074  -1.517716  5.924679
