32
Energy: -103893.63622 eV PBE+vdW (tier 2 basis)
C    -0.742264  -0.874885  0.020179
C    -0.554626  -0.703515  1.492863
O    0.465214  -1.196172  2.065723
H    0.145974  -0.503348  -0.507229
H    -1.631755  -0.371015  -0.371342
H    -0.815612  -1.949844  -0.198708
N    -1.489489  -0.026595  2.173132
C    -1.643821  0.156120  3.634022
C    -0.582248  1.113983  4.200018
O    0.626626  0.745264  4.330718
H    -2.270130  0.308742  1.615572
H    -2.620278  0.649041  3.734842
C    -1.733165  -1.158559  4.455708
C    -2.732371  -2.162972  3.840105
C    -2.045452  -0.822787  5.920879
C    -4.176512  -1.676610  3.697309
H    -0.743600  -1.655760  4.428768
H    -2.714838  -3.056708  4.480804
H    -2.357151  -2.500469  2.862057
H    -2.998720  -0.286796  6.019816
H    -1.267268  -0.205450  6.390334
H    -2.130244  -1.744422  6.508893
H    -4.804866  -2.486363  3.308117
H    -4.282465  -0.837358  2.993157
H    -4.612364  -1.367809  4.655640
N    -0.987246  2.316921  4.574599
C    -0.146290  3.351913  5.176374
H    -1.969885  2.543256  4.442096
H    0.814386  2.916905  5.460107
H    -0.648305  3.750688  6.064897
H    0.015095  4.167438  4.460160
Sr    1.994666  -0.979835  3.714392
