32
Energy: -103893.539321 eV PBE+vdW (tier 2 basis)
C    -0.525760  -0.812152  -0.015312
C    -0.479400  -0.496352  1.443513
O    0.512816  0.130576  1.936751
H    -1.404206  -1.398428  -0.303737
H    0.383881  -1.352040  -0.307955
H    -0.529072  0.133940  -0.575708
N    -1.504449  -0.875395  2.212631
C    -1.717740  -0.492648  3.620088
C    -0.860998  -1.384969  4.544895
O    0.371528  -1.090592  4.692267
H    -2.264505  -1.383066  1.764082
H    -1.261000  0.503519  3.731527
C    -3.225865  -0.294127  3.945982
C    -4.181994  -1.517195  3.889072
C    -3.765245  0.863584  3.087600
C    -4.196979  -2.381563  2.623011
H    -3.228629  0.052835  4.992432
H    -5.189149  -1.102488  4.038808
H    -4.058576  -2.165865  4.774648
H    -3.862044  0.597495  2.026490
H    -3.123751  1.752973  3.152054
H    -4.762021  1.154036  3.438956
H    -4.353394  -1.784471  1.711657
H    -5.031581  -3.091820  2.661162
H    -3.289027  -2.994288  2.502990
N    -1.407128  -2.416745  5.156187
C    -0.721282  -3.336820  6.063189
H    -2.402186  -2.568471  4.994120
H    0.240607  -2.910715  6.356131
H    -0.561914  -4.303472  5.568486
H    -1.342116  -3.490320  6.952589
Sr    1.980180  0.169043  3.662394
