32
Energy: -103892.983571 eV PBE+vdW (tier 2 basis)
C    -0.129986  0.260582  -0.468263
C    -0.128429  -0.142094  0.968581
O    0.954487  -0.441265  1.564160
H    0.134474  1.325343  -0.566485
H    -1.094611  0.092702  -0.957555
H    0.651428  -0.308362  -0.986227
N    -1.280473  -0.170812  1.675180
C    -2.312348  0.862248  1.591307
C    -1.660854  2.217025  1.957528
O    -0.530023  2.238824  2.553286
H    -1.201582  -0.618352  2.587811
H    -2.680337  0.912681  0.556085
C    -3.521234  0.522170  2.518096
C    -3.273449  0.753616  4.028576
C    -4.071099  -0.871296  2.188205
C    -2.216856  -0.099004  4.741328
H    -4.301141  1.245735  2.238305
H    -4.236952  0.569332  4.524919
H    -3.060997  1.818970  4.210122
H    -3.377325  -1.683659  2.441607
H    -4.312814  -0.967182  1.121728
H    -4.994898  -1.045500  2.753266
H    -2.291173  0.026315  5.828321
H    -1.182598  0.204723  4.478713
H    -2.318320  -1.174445  4.539576
N    -2.269520  3.353961  1.664473
C    -3.542324  3.577997  0.973065
H    -1.782906  4.189522  1.991245
H    -3.445540  4.477098  0.355696
H    -4.353240  3.731600  1.696287
H    -3.789400  2.735984  0.320450
Sr    1.377775  1.120832  3.232031
