32
Energy: -103891.947801 eV PBE+vdW (tier 2 basis)
C    -0.613490  0.584386  -0.335598
C    -0.489946  0.424728  1.141592
O    0.663649  0.559825  1.709405
H    -0.134209  1.516209  -0.661511
H    -1.652365  0.563270  -0.679329
H    -0.068005  -0.240799  -0.818138
N    -1.564758  0.153540  1.855437
C    -1.690792  -0.193403  3.278093
C    -3.235554  -0.388275  3.413619
O    -3.959791  0.316990  2.706576
H    -2.500217  0.241176  1.426065
H    -1.171047  -1.148406  3.448827
C    -1.083444  0.856588  4.276323
C    -1.552298  0.688609  5.747989
C    -1.209756  2.313492  3.806684
C    -2.873075  1.361395  6.134154
H    -0.004560  0.550673  4.330451
H    -0.755809  1.094306  6.391687
H    -1.582714  -0.385364  5.984322
H    -0.823735  2.505318  2.786477
H    -0.758473  3.016472  4.528213
H    -2.264792  2.609348  3.730394
H    -2.795824  2.455819  6.129919
H    -3.139728  1.068844  7.156765
H    -3.711125  1.083605  5.485513
N    -3.655567  -1.336969  4.262462
C    -5.070047  -1.613843  4.512532
H    -2.968722  -1.898890  4.753527
H    -5.257561  -2.689252  4.420472
H    -5.665186  -1.074155  3.771015
H    -5.355932  -1.282232  5.519137
Sr    1.724181  1.811708  3.164568
