32
Energy: -103893.035885 eV PBE+vdW (tier 2 basis)
C    -0.894584  0.793040  5.963410
C    -2.314295  0.333628  5.955779
O    -2.932315  0.095908  7.042114
H    -0.846290  1.882900  6.116127
H    -0.362927  0.547691  5.038436
H    -0.386299  0.329673  6.817238
N    -2.982707  0.186309  4.790364
C    -2.900391  1.134799  3.682289
C    -3.382995  2.516441  4.198082
O    -3.986615  2.622090  5.315004
H    -3.878715  -0.293044  4.875670
H    -1.848732  1.227953  3.372027
C    -3.727779  0.648950  2.452740
C    -5.261785  0.795024  2.600916
C    -3.278921  -0.753537  2.025171
C    -5.973219  -0.007482  3.697371
H    -3.445519  1.335962  1.638243
H    -5.690983  0.493048  1.635015
H    -5.523423  1.859696  2.706267
H    -3.526990  -1.529242  2.761583
H    -2.195262  -0.795991  1.855281
H    -3.772073  -1.028406  1.084894
H    -7.060183  0.029915  3.556417
H    -5.793135  0.409696  4.709363
H    -5.693408  -1.070218  3.708342
N    -3.158151  3.571742  3.436924
C    -3.595622  4.935761  3.751035
H    -2.664181  3.427821  2.559471
H    -3.253113  5.599779  2.953544
H    -3.162383  5.265302  4.702468
H    -4.689397  4.981600  3.812951
Sr    -4.660158  1.623255  7.296690
