32
Energy: -103892.157476 eV PBE+vdW (tier 2 basis)
C    0.438697  0.906019  0.988551
C    -0.264598  -0.132401  1.794761
O    0.353972  -0.698795  2.790116
H    0.747287  1.734203  1.641327
H    -0.187570  1.302043  0.183257
H    1.350366  0.474639  0.552446
N    -1.492968  -0.468585  1.498639
C    -2.346993  -1.471815  2.132414
C    -3.433547  -1.681737  1.022602
O    -3.541679  -0.791016  0.171952
H    -2.013692  -0.064334  0.685029
H    -1.762541  -2.392442  2.279511
C    -2.915746  -0.940909  3.501442
C    -2.979845  -2.018067  4.599947
C    -4.262193  -0.223705  3.347083
C    -1.627004  -2.471606  5.160304
H    -2.185438  -0.183907  3.839547
H    -3.532751  -2.902180  4.257958
H    -3.565708  -1.613686  5.437449
H    -4.228411  0.545555  2.566240
H    -4.538164  0.269240  4.287172
H    -5.068334  -0.924383  3.091328
H    -1.735600  -3.232021  5.943926
H    -1.130366  -1.596483  5.637808
H    -1.003368  -2.923972  4.359078
N    -4.200501  -2.783475  1.014113
C    -4.178776  -3.955195  1.876725
H    -4.887875  -2.777227  0.261915
H    -4.445075  -4.835481  1.281713
H    -4.898210  -3.870972  2.703554
H    -3.174884  -4.127221  2.281641
Sr    1.218550  -1.562549  4.568181
