32
Energy: -103892.017156 eV PBE+vdW (tier 2 basis)
C    0.279956  -0.534532  0.683067
C    -0.200122  0.523502  1.616041
O    0.507632  1.627501  1.720943
H    0.534103  -0.084526  -0.285033
H    -0.455503  -1.328645  0.528500
H    1.197503  -0.987518  1.086197
N    -1.279190  0.419347  2.334592
C    -2.282161  -0.646122  2.455815
C    -3.474191  0.158613  3.059175
O    -3.219487  1.243711  3.610858
H    -1.623150  1.203148  2.951563
H    -2.546837  -1.024306  1.457967
C    -1.751540  -1.828751  3.330747
C    -2.712113  -3.049581  3.340718
C    -1.308652  -1.383967  4.727458
C    -3.711849  -3.163657  4.496752
H    -0.850521  -2.162810  2.788967
H    -2.077501  -3.947288  3.358048
H    -3.238096  -3.104783  2.371856
H    -0.525620  -0.614417  4.684734
H    -0.890434  -2.237114  5.275346
H    -2.137653  -0.981151  5.322478
H    -3.203589  -3.323426  5.455282
H    -4.364231  -4.030600  4.335300
H    -4.356022  -2.283918  4.613501
N    -4.694917  -0.363206  2.922651
C    -5.902156  0.232476  3.490078
H    -4.783865  -1.261825  2.459248
H    -6.682459  0.289827  2.723075
H    -5.661462  1.237667  3.844982
H    -6.268820  -0.369631  4.331806
Sr    1.603740  3.452581  1.899505
