32
Energy: -103893.466772 eV PBE+vdW (tier 2 basis)
C    0.853134  0.583704  0.051823
C    0.189955  0.022375  1.264487
O    0.444543  0.489115  2.420138
H    1.943216  0.539120  0.175472
H    0.585330  1.646451  -0.034976
H    0.572789  0.069478  -0.873110
N    -0.689121  -0.977694  1.120148
C    -1.517365  -1.514988  2.210263
C    -0.640692  -2.365173  3.157493
O    -0.252997  -1.817881  4.245460
H    -0.895339  -1.291001  0.174272
H    -1.811186  -0.655562  2.834288
C    -2.832583  -2.142898  1.690464
C    -3.687273  -1.052859  1.004583
C    -3.581610  -2.816889  2.846766
C    -4.926666  -1.592509  0.288248
H    -2.587652  -2.905755  0.932905
H    -3.075693  -0.501092  0.272289
H    -3.987072  -0.312288  1.765522
H    -2.996505  -3.602998  3.342540
H    -4.499270  -3.289457  2.481573
H    -3.876399  -2.082271  3.610236
H    -5.444149  -0.779691  -0.234705
H    -5.648349  -2.039705  0.982089
H    -4.662080  -2.350449  -0.461912
N    -0.246852  -3.598222  2.880869
C    -0.526810  -4.445103  1.718149
H    0.311963  -4.024416  3.620780
H    0.254667  -5.208927  1.665035
H    -0.498513  -3.865513  0.791275
H    -1.498647  -4.944431  1.817369
Sr    0.601190  0.262925  4.680518
