32
Energy: -103893.472654 eV PBE+vdW (tier 2 basis)
C    0.087786  0.110822  -0.117269
C    0.029977  0.124141  1.377624
O    1.101283  0.109623  2.050027
H    0.672929  0.974739  -0.460379
H    -0.894988  0.129187  -0.599076
H    0.629203  -0.788815  -0.440908
N    -1.184636  0.151296  1.951646
C    -1.614162  0.112819  3.374973
C    -1.071526  1.319091  4.155684
O    0.144143  1.384935  4.516230
H    -1.957743  0.146915  1.292069
H    -2.697644  0.255498  3.298452
C    -1.472677  -1.285188  4.059743
C    -2.483320  -1.445808  5.222761
C    -0.067327  -1.756392  4.463848
C    -2.183122  -0.710948  6.531511
H    -1.810320  -1.974858  3.269049
H    -2.554090  -2.523282  5.431708
H    -3.482072  -1.161910  4.855382
H    0.612105  -1.811878  3.598449
H    -0.124721  -2.777768  4.862193
H    0.346929  -1.151194  5.290563
H    -2.153134  0.381676  6.423401
H    -1.235170  -1.029976  6.985055
H    -2.966586  -0.931944  7.266166
N    -1.897873  2.310624  4.464827
C    -3.334600  2.440552  4.194842
H    -1.463540  3.060750  5.002790
H    -3.910145  1.677043  4.733138
H    -3.545596  2.389209  3.120369
H    -3.653691  3.423325  4.552573
Sr    2.161327  0.424717  4.032558
