32
Energy: -103891.994632 eV PBE+vdW (tier 2 basis)
C    -0.021778  0.076544  0.090207
C    -0.172347  0.393375  1.538654
O    0.918486  0.572095  2.252652
H    0.592473  0.850129  -0.390276
H    -0.979852  0.005218  -0.431441
H    0.509656  -0.879009  -0.022177
N    -1.320601  0.510009  2.137421
C    -2.696329  0.373258  1.642283
C    -3.473338  1.123708  2.767834
O    -2.893613  1.242783  3.864591
H    -1.412322  0.775453  3.155558
H    -2.791710  0.880487  0.674203
C    -3.083001  -1.140714  1.504864
C    -4.272472  -1.381364  0.559577
C    -3.290596  -1.819077  2.862270
C    -4.048779  -0.968436  -0.894928
H    -2.204042  -1.605391  1.023401
H    -5.180935  -0.915317  0.966700
H    -4.474453  -2.462251  0.589967
H    -3.423451  -2.898084  2.718869
H    -2.441346  -1.678595  3.544257
H    -4.187994  -1.442493  3.371606
H    -4.913829  -1.239122  -1.512176
H    -3.175057  -1.478862  -1.325723
H    -3.901421  0.114465  -1.028425
N    -4.709086  1.591689  2.560305
C    -5.476455  1.734269  1.327265
H    -5.115390  2.008649  3.396881
H    -5.817397  2.772423  1.234598
H    -6.354127  1.076060  1.329156
H    -4.862796  1.499464  0.454302
Sr    2.650818  0.894524  3.459518
