32
Energy: -103893.563942 eV PBE+vdW (tier 2 basis)
C    -1.328378  0.036654  -0.305692
C    -0.775795  -0.206031  1.063089
O    0.301449  -0.855459  1.202020
H    -2.265495  0.602383  -0.311196
H    -1.490452  -0.931995  -0.798025
H    -0.579933  0.575455  -0.902569
N    -1.461639  0.287738  2.106627
C    -1.241212  0.204582  3.575615
C    0.109835  0.807940  3.995295
O    1.206025  0.203480  3.796748
H    -2.313407  0.779675  1.850689
H    -2.011611  0.881301  3.968651
C    -1.606332  -1.177469  4.206551
C    -1.913663  -1.044075  5.719710
C    -0.676081  -2.365555  3.919613
C    -0.726322  -0.949860  6.682008
H    -2.565942  -1.417845  3.720533
H    -2.519340  -1.919376  5.996162
H    -2.581333  -0.180160  5.865222
H    -0.567789  -2.558603  2.841371
H    -1.107745  -3.279887  4.347267
H    0.298845  -2.251731  4.429210
H    -1.094631  -0.850034  7.709997
H    -0.076389  -0.084430  6.495205
H    -0.101289  -1.852656  6.665083
N    0.067273  1.986723  4.602268
C    1.221745  2.711798  5.130809
H    -0.844108  2.417373  4.734613
H    2.107093  2.076065  5.065368
H    1.034192  2.976058  6.178064
H    1.383028  3.630847  4.553731
Sr    2.027399  -1.507910  2.517964
