28
Energy: -105867.921474 eV PBE+vdW (tier 2 basis)
N    -0.213541  0.667380  0.434622
C    -0.023065  0.113300  1.808106
C    1.443380  0.014602  2.125479
O    2.309775  0.011350  1.217031
H    -0.554865  1.630527  0.522767
H    -1.041735  0.144625  0.072409
H    -0.534731  0.748669  2.546290
C    -0.674848  -1.334153  1.895056
C    -2.037427  -1.323303  1.308291
C    -2.447511  -2.000536  0.161483
C    -3.194947  -0.629377  1.818003
N    -3.774886  -1.765076  -0.050115
C    -4.270619  -0.929839  0.939268
C    -3.435483  0.190319  2.935407
C    -5.561120  -0.434452  1.134170
C    -4.717582  0.688612  3.132441
C    -5.764939  0.381847  2.241275
H    -0.685515  -1.623647  2.956508
H    -0.027295  -2.055918  1.373964
H    -1.897897  -2.693382  -0.468795
H    -4.332845  -2.199706  -0.776592
H    -2.652654  0.408180  3.664076
H    -6.378382  -0.683796  0.458551
H    -4.926002  1.314003  3.999068
H    -6.759259  0.782388  2.431793
O    1.860137  -0.160669  3.355161
H    1.142456  -0.141437  4.019264
Sr    1.954737  0.547574  -0.967815
