28
Energy: -105869.37864 eV PBE+vdW (tier 2 basis)
N    -1.629735  -1.151304  2.197961
C    -0.199793  -1.405886  1.854626
C    0.075632  -2.874336  2.146359
O    -0.577008  -3.526042  2.976696
H    -2.208259  -1.492991  1.421996
H    -1.780465  -0.138486  2.192274
H    0.004391  -1.213072  0.791003
C    0.772703  -0.514051  2.697820
C    0.816234  -0.896071  4.145301
C    1.753822  -1.719644  4.741487
C    -0.203883  -0.674711  5.136892
N    1.346316  -2.066007  6.007631
C    0.133996  -1.482594  6.276635
C    -1.385495  0.107031  5.190377
C    -0.739418  -1.640376  7.364476
C    -2.249055  -0.043997  6.276925
C    -1.946227  -0.937953  7.335178
H    0.467011  0.533432  2.553800
H    1.770945  -0.600922  2.250139
H    2.694784  -2.090113  4.345797
H    1.886531  -2.629640  6.657089
H    -1.613357  0.832866  4.409650
H    -0.482671  -2.273482  8.213992
H    -3.153279  0.561369  6.336469
H    -2.639333  -1.031878  8.169995
O    1.089855  -3.363113  1.470747
H    1.246425  -4.303842  1.703971
Sr    -2.191668  -2.476186  4.475716
