28
Energy: -105868.247551 eV PBE+vdW (tier 2 basis)
N    -0.331752  -1.873614  2.004163
C    0.798355  -1.561146  1.143917
C    1.695052  -0.628762  1.970114
O    2.860215  -1.018316  2.331887
H    -1.019890  -1.124236  2.049580
H    -0.276736  -1.239505  -2.186641
H    1.378367  -2.485189  1.007181
C    0.514677  -0.916544  -0.235936
C    -0.297584  -1.793855  -1.221110
C    0.265949  -3.128344  -1.568595
C    -1.739517  -2.129526  -0.916282
N    -0.675402  -4.035119  -1.527528
C    -1.927217  -3.504465  -1.137694
C    -2.831748  -1.352741  -0.550757
C    -3.145763  -4.160523  -1.000942
C    -4.070423  -1.987319  -0.400880
C    -4.225775  -3.365276  -0.618911
H    1.469371  -0.651983  -0.716493
H    -0.034854  0.025581  -0.098867
H    1.282850  -3.372169  -1.868617
H    -0.533505  -5.015377  -1.781197
H    -2.738895  -0.279232  -0.389841
H    -3.259643  -5.227162  -1.189603
H    -4.939452  -1.396841  -0.113978
H    -5.207229  -3.820304  -0.497196
O    1.239313  0.513384  2.341678
H    -0.794116  -2.746812  1.766792
Sr    3.059350  0.800389  3.765755
