28
Energy: -105868.291328 eV PBE+vdW (tier 2 basis)
N    0.469035  0.680505  0.319329
C    0.264504  -0.117627  1.516248
C    1.605685  -0.503768  2.135744
O    1.703947  -1.529141  2.900920
H    -0.293617  1.336923  0.156452
H    0.113342  -1.089029  -0.684511
H    -0.204093  0.460354  2.342065
C    -0.697350  -1.299788  1.241423
C    -0.502869  -1.894950  -0.179826
C    0.238902  -3.163309  -0.292031
C    -1.721742  -2.163143  -1.021087
N    -0.389126  -3.988578  -1.096855
C    -1.596954  -3.444235  -1.583963
C    -2.840434  -1.399856  -1.331169
C    -2.526770  -4.013733  -2.446888
C    -3.797101  -1.950968  -2.191278
C    -3.643490  -3.232837  -2.741476
H    -1.725302  -0.920211  1.292203
H    -0.607638  -2.058430  2.026937
H    1.178429  -3.440399  0.178100
H    -0.046177  -4.916169  -1.349778
H    -2.982199  -0.399766  -0.922790
H    -2.397225  -5.008493  -2.870890
H    -4.684213  -1.371155  -2.441986
H    -4.409070  -3.625140  -3.408548
O    2.613335  0.275409  1.966304
H    1.341576  1.206994  0.360220
Sr    3.792619  -0.782462  3.667131
