28
Energy: -105868.52232 eV PBE+vdW (tier 2 basis)
N    -1.163446  0.045844  1.077254
C    -0.249021  0.858807  1.858750
C    1.075398  1.221342  1.156171
O    1.369429  0.689994  0.027788
H    -0.688370  -0.758443  0.664643
H    -1.576385  0.570591  0.306509
H    -0.729512  1.831103  2.059796
C    0.060072  0.188099  3.213826
C    -1.152131  0.131737  4.189546
C    -2.360369  -0.578726  3.664373
C    -0.866697  -0.636977  5.461054
N    -2.676662  -1.564023  4.460898
C    -1.808094  -1.670251  5.576173
C    0.100564  -0.496337  6.446593
C    -1.845284  -2.581425  6.623095
C    0.088930  -1.400945  7.516880
C    -0.863991  -2.424609  7.604067
H    0.861253  0.735557  3.726126
H    0.420995  -0.836968  3.042299
H    -2.926784  -0.348070  2.768486
H    -3.481041  -2.176714  4.313606
H    0.844591  0.298479  6.406873
H    -2.594505  -3.369366  6.685910
H    0.834649  -1.303341  8.304489
H    -0.843593  -3.106668  8.452281
O    1.863127  2.076731  1.702318
H    -1.457388  1.172262  4.414330
Sr    3.288264  2.009321  -0.137135
