28
Energy: -105868.097345 eV PBE+vdW (tier 2 basis)
N    0.105730  0.442690  0.069614
C    -0.087834  0.082008  1.465406
C    1.143494  0.647613  2.174973
O    1.014786  1.667891  2.936369
H    0.797924  -0.122687  -0.417502
H    -0.762774  0.478882  -0.458944
H    -0.931723  0.676794  1.840091
C    -0.413238  -1.390091  1.831089
C    0.537586  -2.485701  1.242819
C    0.801006  -3.583878  2.212689
C    0.057621  -3.258299  0.030319
N    0.538475  -4.743929  1.675200
C    0.081661  -4.628799  0.341179
C    -0.380260  -2.877648  -1.230947
C    -0.296171  -5.643126  -0.529283
C    -0.769620  -3.877495  -2.133004
C    -0.727682  -5.235668  -1.791938
H    -1.431580  -1.609214  1.484536
H    -0.443203  -1.469824  2.928535
H    1.160405  -3.497872  3.235645
H    0.647467  -5.637589  2.159468
H    -0.435049  -1.831630  -1.525484
H    -0.260431  -6.695110  -0.249323
H    -1.117428  -3.591175  -3.124553
H    -1.038430  -5.983704  -2.519149
O    2.314170  0.166421  1.925904
H    1.522047  -2.011098  1.043256
Sr    3.267483  2.132505  2.806483
