28
Energy: -105868.162573 eV PBE+vdW (tier 2 basis)
N    1.990394  1.439293  3.153079
C    1.558016  -0.004021  3.124578
C    0.538749  -0.178695  1.959322
O    0.899945  0.462669  0.866608
H    1.270539  1.973305  3.655225
H    2.820944  1.526186  3.747391
H    2.449214  -0.584843  2.837039
C    1.042080  -0.505404  4.491956
C    0.969834  -2.000788  4.640856
C    2.064094  -2.838935  4.935631
C    -0.150464  -2.842204  4.581297
N    1.659115  -4.124562  5.036638
C    0.292626  -4.176170  4.827075
C    -1.581670  -2.609531  4.312194
C    -0.558581  -5.263076  4.839846
C    -2.437976  -3.810864  4.360261
C    -1.945619  -5.065358  4.599764
H    0.048409  -0.072000  4.675244
H    1.708653  -0.111227  5.274975
H    3.106139  -2.576026  5.094685
H    2.257575  -4.914813  5.255707
H    -1.676680  -2.130343  3.310893
H    -0.181253  -6.268792  5.033607
H    -3.504969  -3.670619  4.184696
H    -2.610873  -5.926686  4.614028
O    -0.470833  -0.845019  2.085620
H    -2.009423  -1.825504  4.966849
Sr    2.085020  2.259023  0.642936
