28
Energy: -105868.539359 eV PBE+vdW (tier 2 basis)
N    -0.189273  -1.187062  0.380565
C    0.535017  -1.520132  1.606686
C    -0.051239  -2.887167  1.979466
O    -0.864260  -3.144295  2.893768
H    -0.219779  -0.180939  0.220581
H    0.210471  -1.631459  -0.445035
H    1.620759  -1.683332  1.464320
C    0.327568  -0.401996  2.645111
C    0.614647  -0.781958  4.064464
C    1.783977  -1.268020  4.615630
C    -0.360206  -0.816056  5.116493
N    1.571087  -1.654786  5.924335
C    0.266676  -1.414417  6.267296
C    -1.716136  -0.414205  5.207776
C    -0.458354  -1.718761  7.431360
C    -2.431004  -0.701823  6.375437
C    -1.815369  -1.374097  7.463852
H    -0.712715  -0.055023  2.566293
H    0.955723  0.444277  2.330516
H    2.769158  -1.375167  4.171916
H    2.296067  -1.987361  6.553124
H    -2.196876  0.118581  4.386061
H    0.017430  -2.183887  8.295349
H    -3.468062  -0.379082  6.468088
H    -2.394668  -1.575875  8.364109
O    0.380749  -3.821852  1.161150
H    -0.076379  -4.675804  1.310594
Sr    -1.820010  -3.174303  5.032698
