28
Energy: -105867.266572 eV PBE+vdW (tier 2 basis)
N    -0.853088  -0.013582  0.257466
C    -0.134744  -0.142218  1.522052
C    1.353969  -0.454686  1.277282
O    1.771187  -0.872956  0.221708
H    -0.922853  0.966857  -0.014421
H    -0.282747  -0.465420  -0.467788
H    -0.201970  0.789613  2.100306
C    -0.724447  -1.298240  2.388340
C    -2.111030  -1.019054  2.875576
C    -2.463975  -0.663583  4.168134
C    -3.333384  -0.975916  2.120076
N    -3.820911  -0.434572  4.261236
C    -4.397586  -0.606098  3.031415
C    -3.650531  -1.181911  0.752911
C    -5.736769  -0.491870  2.612292
C    -4.986419  -1.077174  0.340916
C    -6.021362  -0.742524  1.261367
H    -0.067817  -1.476621  3.249979
H    -0.704142  -2.212032  1.774207
H    -1.830082  -0.546851  5.042546
H    -4.291977  -0.093818  5.095000
H    -2.838445  -1.361296  0.046195
H    -6.526791  -0.186169  3.299808
H    -5.237871  -1.210183  -0.711705
H    -7.043952  -0.628120  0.901954
O    2.095880  -0.236488  2.379860
H    3.026604  -0.458144  2.170010
Sr    -4.989954  -3.216115  2.088725
