28
Energy: -105868.056031 eV PBE+vdW (tier 2 basis)
N    0.673744  1.062439  1.747164
C    1.095075  -0.230075  2.396551
C    2.526959  -0.586776  1.893128
O    3.317621  0.465189  1.811828
H    0.295291  0.836132  0.819054
H    -0.130048  1.446504  2.253611
H    1.195106  -0.018470  3.473384
C    0.062685  -1.361869  2.183397
C    0.266702  -2.599492  3.013021
C    1.081308  -3.703520  2.658223
C    -0.321671  -2.931781  4.234468
N    1.009007  -4.654381  3.606121
C    0.150615  -4.231094  4.608519
C    -1.296834  -2.248858  5.120235
C    -0.244692  -4.880175  5.753660
C    -1.675845  -3.009709  6.341584
C    -1.176037  -4.243767  6.630686
H    0.066503  -1.639536  1.118592
H    -0.938951  -0.959190  2.400556
H    1.702552  -3.824287  1.777922
H    1.500766  -5.542980  3.581333
H    -2.225299  -2.005085  4.565342
H    0.136233  -5.873174  5.998163
H    -2.389233  -2.538199  7.017858
H    -1.485172  -4.765209  7.534813
O    2.837872  -1.729417  1.621271
H    -0.930154  -1.252775  5.434857
Sr    2.853899  2.537556  1.428663
