28
Energy: -105867.197815 eV PBE+vdW (tier 2 basis)
N    -0.368027  0.469606  0.587070
C    -0.095570  -0.247556  1.818301
C    1.406622  -0.510319  2.023720
O    2.212272  -0.485011  1.124444
H    -0.356246  1.477627  0.736020
H    0.371618  0.265047  -0.092787
H    -0.470610  0.326295  2.676997
C    -0.821239  -1.637403  1.797586
C    -2.288538  -1.449126  1.611624
C    -2.903774  -1.016788  0.439627
C    -3.312970  -1.445079  2.611116
N    -4.245787  -0.788036  0.657153
C    -4.550295  -1.031605  1.970965
C    -3.344341  -1.750366  3.998230
C    -5.773788  -1.001767  2.658044
C    -4.568125  -1.725719  4.678271
C    -5.776769  -1.380684  4.012187
H    -0.597836  -2.181008  2.725189
H    -0.400832  -2.222434  0.967034
H    -2.463040  -0.846421  -0.535866
H    -4.883344  -0.405653  -0.036325
H    -2.424886  -1.996994  4.531365
H    -6.695313  -0.680674  2.169909
H    -4.596707  -1.947687  5.745306
H    -6.708839  -1.344723  4.575184
O    1.684422  -0.804128  3.313784
H    2.647919  -0.966566  3.382256
Sr    -4.841567  -3.718979  2.735292
