28
Energy: -105868.099794 eV PBE+vdW (tier 2 basis)
N    1.056462  0.939729  0.753456
C    0.216016  0.132467  1.624105
C    1.201664  -0.571009  2.559927
O    2.032609  -1.453531  2.117814
H    1.534727  0.422613  0.018935
H    0.213299  -0.990617  -0.872342
H    -0.323564  0.829332  2.279614
C    -0.884414  -0.752134  0.976122
C    -0.502060  -1.594017  -0.272591
C    0.153362  -2.901914  0.001921
C    -1.667738  -2.006956  -1.144293
N    -0.498189  -3.864813  -0.595407
C    -1.622460  -3.399416  -1.316151
C    -2.683889  -1.288113  -1.758175
C    -2.536577  -4.127672  -2.068360
C    -3.622262  -1.995078  -2.521852
C    -3.551687  -3.387523  -2.674777
H    -1.667509  -0.059568  0.638182
H    -1.358016  -1.392527  1.734747
H    1.045061  -3.077956  0.597706
H    -0.225334  -4.848840  -0.557963
H    -2.759406  -0.205469  -1.662321
H    -2.470334  -5.208663  -2.183483
H    -4.427476  -1.449370  -3.011666
H    -4.300141  -3.899855  -3.276744
O    1.273536  -0.177040  3.776050
H    0.577816  1.748061  0.362712
Sr    3.379505  -1.053123  4.024835
