28
Energy: -105867.179023 eV PBE+vdW (tier 2 basis)
N    -0.436835  -0.569148  -0.122709
C    -0.380382  -0.190233  1.283224
C    0.913040  0.546470  1.675858
O    1.761552  0.107239  2.431805
H    -0.560809  0.245772  -0.722967
H    0.417268  -1.041615  -0.423872
H    -1.218526  0.500059  1.469872
C    -0.554660  -1.467459  2.143505
C    -0.822861  -1.216042  3.594154
C    0.113386  -0.990110  4.595996
C    -2.102077  -1.068258  4.224447
N    -0.512045  -0.746305  5.798898
C    -1.871717  -0.781164  5.628423
C    -3.442855  -1.155789  3.764115
C    -2.925212  -0.660721  6.548884
C    -4.490271  -1.042111  4.685851
C    -4.236430  -0.819652  6.068536
H    0.350784  -2.080588  2.037965
H    -1.383008  -2.026460  1.687208
H    1.195152  -0.954584  4.505108
H    -0.028548  -0.484498  6.654302
H    -3.654829  -1.304426  2.704037
H    -2.742837  -0.435620  7.600863
H    -5.522667  -1.094950  4.339295
H    -5.074225  -0.708288  6.756239
O    1.003424  1.728568  1.043431
H    1.864752  2.135502  1.268514
Sr    -3.061695  -3.324065  5.459627
