28
Energy: -105869.506251 eV PBE+vdW (tier 2 basis)
N    0.302377  -1.711610  0.481026
C    0.119489  -0.301302  1.013743
C    1.359647  -0.029252  1.882891
O    1.967179  -1.056460  2.349803
H    -0.585334  -2.212163  0.349272
H    0.902483  -2.191119  1.190103
H    0.060127  0.384712  0.161711
C    -1.160885  -0.192080  1.898755
C    -0.975917  -0.771101  3.271299
C    -1.107880  -2.091455  3.652583
C    -0.421241  -0.082905  4.410158
N    -0.617255  -2.271338  4.925632
C    -0.169681  -1.072221  5.418010
C    -0.148054  1.273350  4.705072
C    0.458637  -0.756055  6.633600
C    0.446559  1.593945  5.927982
C    0.776330  0.584476  6.869094
H    -2.004671  -0.656561  1.365886
H    -1.403974  0.876779  1.957150
H    -1.536618  -2.932558  3.115335
H    -0.660869  -3.142045  5.445708
H    -0.393301  2.060022  3.992368
H    0.659512  -1.517941  7.386822
H    0.632100  2.638199  6.179770
H    1.231985  0.865687  7.817934
O    1.618527  1.153047  2.218627
H    0.807735  -1.719556  -0.415083
Sr    2.523203  0.322670  4.326187
