28
Energy: -105867.264035 eV PBE+vdW (tier 2 basis)
N    0.840511  -0.668960  0.231248
C    0.149120  -0.167532  1.413729
C    1.120634  0.001388  2.587211
O    1.294595  -0.823618  3.471745
H    1.410092  0.052865  -0.208875
H    1.445997  -1.463348  0.442854
H    -0.265871  0.818768  1.162051
C    -1.003505  -1.140996  1.759246
C    -1.976139  -0.642472  2.785047
C    -3.095120  0.136042  2.528568
C    -1.945296  -0.803723  4.214054
N    -3.765355  0.435382  3.695294
C    -3.100395  -0.117444  4.757175
C    -1.055200  -1.449362  5.113529
C    -3.403752  -0.133429  6.129974
C    -1.358144  -1.457290  6.480482
C    -2.529516  -0.824230  6.984389
H    -0.558705  -2.092281  2.086714
H    -1.526482  -1.335149  0.814368
H    -3.462697  0.510478  1.577166
H    -4.575349  1.046692  3.755202
H    -0.129819  -1.884642  4.730603
H    -4.271084  0.394030  6.529871
H    -0.667984  -1.928637  7.180880
H    -2.722964  -0.826244  8.056916
O    1.825044  1.139314  2.476986
H    2.513482  1.149805  3.172914
Sr    -3.407277  -2.894528  5.280882
