28
Energy: -105867.211402 eV PBE+vdW (tier 2 basis)
N    0.294099  0.200030  -0.034941
C    -0.075257  0.104310  1.378902
C    1.023866  0.451983  2.414477
O    1.019021  0.050075  3.555359
H    0.380814  1.178896  -0.311634
H    1.221792  -0.204151  -0.183731
H    -0.865225  0.851047  1.564738
C    -0.643769  -1.295537  1.718667
C    -2.084752  -1.468208  1.352083
C    -3.133393  -1.604153  2.248422
C    -2.695783  -1.446503  0.051012
N    -4.339195  -1.698501  1.584296
C    -4.125434  -1.600259  0.235914
C    -2.191216  -1.286256  -1.265430
C    -5.017025  -1.653744  -0.851397
C    -3.083053  -1.343347  -2.345391
C    -4.479587  -1.537326  -2.143181
H    -0.521490  -1.459290  2.796885
H    -0.018537  -2.048385  1.212468
H    -3.103617  -1.627480  3.334213
H    -5.247105  -1.731498  2.040400
H    -1.126439  -1.060068  -1.388234
H    -6.093758  -1.749773  -0.703843
H    -2.711581  -1.198742  -3.360346
H    -5.151356  -1.542476  -3.001466
O    1.947409  1.281852  1.889939
H    2.583089  1.507404  2.599754
Sr    -3.213461  -3.863962  -1.204159
