28
Energy: -105869.106891 eV PBE+vdW (tier 2 basis)
N    -0.341764  0.073051  0.028729
C    -0.694128  -0.032361  1.449283
C    0.397474  0.756809  2.197834
O    0.309282  1.079667  3.405535
H    -0.908656  0.751174  -0.480859
H    -0.384386  -0.815449  -0.469646
H    -1.653343  0.456992  1.675344
C    -0.756506  -1.530737  1.881506
C    -0.612696  -1.832326  3.342011
C    0.352718  -2.651105  3.892229
C    -1.395992  -1.348943  4.445045
N    0.239507  -2.677997  5.264855
C    -0.811241  -1.884504  5.649063
C    -2.515016  -0.490988  4.563065
C    -1.275391  -1.531984  6.927331
C    -2.979631  -0.142718  5.835819
C    -2.356353  -0.645481  7.007078
H    0.044164  -2.062425  1.346773
H    -1.707838  -1.929083  1.497703
H    1.126596  -3.230203  3.397035
H    0.790886  -3.269614  5.879214
H    -3.024087  -0.112367  3.676927
H    -0.830487  -1.951143  7.830520
H    -3.855813  0.498023  5.933919
H    -2.754926  -0.375186  7.984338
O    1.414979  1.069770  1.473962
H    1.101406  0.721858  0.535078
Sr    -0.333622  1.029047  5.600906
