28
Energy: -105869.51513 eV PBE+vdW (tier 2 basis)
N    0.372803  2.948654  2.752587
C    -0.044713  1.494210  2.880448
C    0.649317  0.738913  1.735907
O    0.914079  -0.484148  1.890255
H    0.481830  3.124332  1.732160
H    1.279641  3.135089  3.202738
H    0.293267  1.119754  3.852415
C    -1.598917  1.378576  2.731126
C    -2.006376  0.026104  2.231682
C    -2.159171  -1.121856  2.981134
C    -2.073960  -0.379618  0.853573
N    -2.273702  -2.212995  2.154870
C    -2.204981  -1.810361  0.846038
C    -2.055205  0.305712  -0.383071
C    -2.206409  -2.552412  -0.344797
C    -2.087079  -0.430722  -1.571302
C    -2.131750  -1.847878  -1.551475
H    -1.942382  2.148095  2.021859
H    -2.062104  1.604547  3.701053
H    -2.177819  -1.247550  4.059248
H    -2.436675  -3.163236  2.472741
H    -2.023861  1.394326  -0.419018
H    -2.295626  -3.638843  -0.338515
H    -2.109179  0.089768  -2.528763
H    -2.167000  -2.396043  -2.492297
O    0.783994  1.370947  0.636808
H    -0.317641  3.600214  3.150130
Sr    0.553624  -0.882578  -0.459537
