28
Energy: -105868.651543 eV PBE+vdW (tier 2 basis)
N    0.906504  -1.526697  0.483558
C    0.459184  -1.806786  1.816524
C    -0.965596  -2.353285  1.971384
O    -1.365718  -2.983105  2.980859
H    0.922987  -2.340102  -0.128262
H    0.405217  -0.769622  0.021332
H    1.103913  -2.592844  2.243105
C    0.641534  -0.526749  2.707005
C    0.681762  -0.779996  4.180823
C    1.798317  -1.128219  4.918290
C    -0.413253  -0.771467  5.109945
N    1.451407  -1.385077  6.227372
C    0.104038  -1.191358  6.389523
C    -1.790992  -0.461246  5.005819
C    -0.731336  -1.399403  7.499919
C    -2.620240  -0.660475  6.113710
C    -2.099894  -1.148554  7.341791
H    -0.129209  0.215563  2.453181
H    1.598033  -0.106362  2.369304
H    2.834195  -1.207229  4.601345
H    2.113260  -1.588741  6.970665
H    -2.203172  -0.069496  4.075513
H    -0.331745  -1.719912  8.462704
H    -3.678593  -0.408065  6.049445
H    -2.768118  -1.277385  8.192492
O    -1.756068  -2.121664  0.949092
H    -2.643601  -2.514940  1.086355
Sr    -1.682310  -3.252113  5.279767
