28
Energy: -105867.282382 eV PBE+vdW (tier 2 basis)
N    0.795751  -0.475127  0.387338
C    -0.063415  -0.036166  1.468475
C    0.791746  0.449347  2.637321
O    1.999367  0.381923  2.673846
H    0.484536  -0.133306  -0.519253
H    1.757471  -0.171417  0.548853
H    -0.730449  0.794291  1.185786
C    -0.994340  -1.215006  1.936103
C    -0.155935  -2.372499  2.364950
C    0.590414  -3.178100  1.509168
C    0.278803  -2.705087  3.687787
N    1.420827  -4.007584  2.232601
C    1.274263  -3.756005  3.571277
C    -0.057102  -2.237125  4.985668
C    1.851675  -4.366103  4.696041
C    0.514868  -2.854267  6.105201
C    1.442305  -3.923752  5.966151
H    -1.622583  -1.487733  1.078840
H    -1.660710  -0.868240  2.736080
H    0.587556  -3.204124  0.425689
H    2.107886  -4.633889  1.821284
H    -0.744947  -1.399047  5.106386
H    2.608606  -5.145690  4.597411
H    0.270340  -2.493074  7.104370
H    1.891822  -4.363952  6.855641
O    0.030051  0.941415  3.648173
H    0.643029  1.327268  4.306431
Sr    -0.974285  -4.853650  4.848006
