28
Energy: -105869.289179 eV PBE+vdW (tier 2 basis)
N    -1.507758  1.169075  2.098559
C    -0.387761  0.202524  2.269231
C    0.061810  -0.227315  0.880764
O    -0.660150  -0.135096  -0.125256
H    -1.994225  1.254305  2.996582
H    -1.111487  2.097694  1.918506
H    0.483301  0.664075  2.756871
C    -0.816473  -1.031704  3.158209
C    -2.279921  -1.328151  3.063975
C    -3.240975  -0.940536  3.979175
C    -3.000023  -1.848675  1.929910
N    -4.500680  -1.135821  3.459483
C    -4.399324  -1.652899  2.192617
C    -2.619438  -2.459127  0.709983
C    -5.382905  -1.905136  1.222789
C    -3.598096  -2.709408  -0.254101
C    -4.961776  -2.404399  -0.011233
H    -0.559108  -0.785430  4.195814
H    -0.193571  -1.895439  2.889368
H    -3.115709  -0.536617  4.979876
H    -5.367575  -0.978930  3.964779
H    -1.582796  -2.737173  0.521885
H    -6.440792  -1.738926  1.426629
H    -3.320288  -3.186097  -1.193871
H    -5.701834  -2.619740  -0.780808
O    1.280111  -0.716303  0.858023
H    1.535122  -0.991529  -0.049172
Sr    -3.043682  0.232777  0.070413
