28
Energy: -105868.68521 eV PBE+vdW (tier 2 basis)
N    0.431994  -0.699822  0.184350
C    -0.023185  -0.160595  1.518077
C    1.180086  0.050989  2.417300
O    1.034802  0.735603  3.481792
H    0.584220  0.037448  -0.513176
H    -0.307358  -1.364079  -0.173905
H    -0.531223  0.794367  1.342040
C    -1.044003  -1.166752  2.162755
C    -2.041838  -1.630940  1.159958
C    -3.282782  -1.077375  0.888073
C    -1.849003  -2.705704  0.209705
N    -3.857820  -1.743890  -0.157856
C    -3.016462  -2.741301  -0.608097
C    -0.833634  -3.663139  -0.011819
C    -3.183349  -3.673779  -1.634217
C    -0.998060  -4.586239  -1.037394
C    -2.155927  -4.586790  -1.840870
H    -1.512132  -0.640701  3.003750
H    -0.486547  -2.019523  2.580813
H    -3.806079  -0.267505  1.386168
H    -4.786094  -1.557334  -0.520816
H    0.045827  -3.720428  0.634613
H    -4.085513  -3.693683  -2.244421
H    -0.231097  -5.339111  -1.212674
H    -2.254076  -5.329608  -2.630664
O    2.294600  -0.522610  2.131553
H    1.318932  -1.213933  0.307250
Sr    3.239292  0.329422  4.154541
