28
Energy: -105867.386934 eV PBE+vdW (tier 2 basis)
N    -0.006190  -0.485082  -0.167069
C    -0.120107  -0.036037  1.216248
C    1.213280  0.440731  1.794651
O    1.561635  0.266658  2.947445
H    -0.861209  -0.288069  -0.687036
H    0.751913  -0.003599  -0.649596
H    -0.784543  0.844653  1.323952
C    -0.735300  -1.152351  2.105830
C    0.069978  -2.413059  2.078599
C    0.135787  -3.308200  1.017933
C    1.041004  -2.869520  3.029036
N    1.052291  -4.304181  1.280150
C    1.637443  -4.081040  2.498649
C    1.508162  -2.378603  4.277205
C    2.590912  -4.822432  3.216416
C    2.456730  -3.121377  4.990285
C    2.977491  -4.343721  4.479596
H    -1.747362  -1.347747  1.726215
H    -0.840763  -0.771982  3.129397
H    -0.405226  -3.290041  0.078366
H    1.315219  -5.032610  0.621971
H    1.154896  -1.416387  4.647903
H    3.041099  -5.726297  2.803306
H    2.833810  -2.741555  5.940137
H    3.736100  -4.883332  5.045854
O    1.934237  1.118567  0.885702
H    2.739423  1.463392  1.322390
Sr    0.224088  -4.767174  4.844838
