28
Energy: -105869.206767 eV PBE+vdW (tier 2 basis)
N    0.211456  -1.474295  0.074866
C    0.144501  -0.507523  1.206353
C    1.546361  -0.425650  1.812150
O    2.340764  -1.367902  1.716545
H    -0.745647  -1.693210  -0.215955
H    0.617219  -0.992584  -0.735362
H    -0.174177  0.489210  0.858840
C    -0.864085  -0.977734  2.312639
C    -0.384218  -2.172609  3.076934
C    0.286855  -2.147851  4.286082
C    -0.310956  -3.531823  2.609427
N    0.813555  -3.385652  4.561885
C    0.508080  -4.253752  3.544318
C    -0.829507  -4.227275  1.488433
C    0.929258  -5.571428  3.304623
C    -0.416806  -5.540608  1.255588
C    0.483155  -6.193069  2.136025
H    -1.830936  -1.159346  1.819003
H    -1.035938  -0.135709  2.996532
H    0.439701  -1.321741  4.974030
H    1.322376  -3.623049  5.408216
H    -1.555451  -3.758446  0.823993
H    1.568390  -6.102318  4.010367
H    -0.819446  -6.090643  0.405315
H    0.784392  -7.218885  1.928333
O    1.899091  0.631414  2.512379
H    1.241653  1.354321  2.478902
Sr    1.809623  -3.545679  0.827262
