28
Energy: -105868.609563 eV PBE+vdW (tier 2 basis)
N    0.659646  -1.315561  0.390439
C    0.394197  -1.739856  1.739810
C    -1.023126  -2.272585  1.872331
O    -1.459818  -2.823408  2.912490
H    1.592263  -0.917859  0.294811
H    0.553408  -2.053819  -0.303449
H    1.025928  -2.570470  2.128349
C    0.629052  -0.509588  2.688314
C    0.653094  -0.810891  4.152639
C    1.731036  -1.276181  4.882194
C    -0.438413  -0.721270  5.081200
N    1.359690  -1.526405  6.186085
C    0.035175  -1.211726  6.351838
C    -1.784874  -0.294967  4.977929
C    -0.819206  -1.368660  7.456322
C    -2.632786  -0.446710  6.079102
C    -2.160594  -0.999428  7.299196
H    -0.106541  0.268055  2.444236
H    1.604226  -0.102856  2.387252
H    2.756309  -1.444308  4.565915
H    1.998604  -1.803457  6.925660
H    -2.158637  0.146078  4.053439
H    -0.452765  -1.741973  8.413238
H    -3.666561  -0.107234  6.016061
H    -2.841338  -1.088404  8.145055
O    -1.767313  -2.140795  0.802621
H    -2.653870  -2.537550  0.937397
Sr    -1.888787  -3.090168  5.188523
