28
Energy: -105868.057651 eV PBE+vdW (tier 2 basis)
N    1.290283  0.313047  1.200384
C    0.084528  0.250190  2.095581
C    0.450661  0.816830  3.499173
O    1.347535  1.780030  3.454506
H    1.910741  -0.467525  1.446788
H    0.998031  0.118663  0.237177
H    -0.633595  0.977023  1.679175
C    -0.652281  -1.107275  2.122984
C    0.060955  -2.279930  2.736669
C    0.933671  -3.162150  2.070209
C    -0.079797  -2.797932  4.037451
N    1.339464  -4.148918  2.905344
C    0.730951  -3.965894  4.133405
C    -0.872562  -2.388376  5.209897
C    0.816771  -4.731374  5.282427
C    -0.746354  -3.253090  6.395080
C    0.067116  -4.356335  6.427410
H    -0.945564  -1.357075  1.091769
H    -1.591163  -0.937644  2.666651
H    1.248777  -3.161074  1.030241
H    1.942958  -4.924699  2.651337
H    -1.945884  -2.262962  4.960497
H    1.446868  -5.622121  5.316707
H    -1.331506  -2.983469  7.274918
H    0.138096  -4.964407  7.327370
O    -0.106162  0.417588  4.504243
H    -0.614561  -1.336842  5.477640
Sr    2.497023  2.582719  1.804968
