29
Energy: -609841.149483 eV PBE+vdW (tier 2 basis)
C    -1.637759  -1.861432  0.508022
C    -0.964922  -0.702675  1.178179
O    0.261566  -0.522833  1.131376
H    -1.257368  -2.789216  0.957776
H    -1.343298  -1.881354  -0.548681
H    -2.730246  -1.850594  0.584648
N    -1.771748  0.178286  1.861636
C    -1.314740  1.246216  2.747808
C    -0.482428  2.370664  2.121103
O    -0.654149  3.583387  2.575808
H    -2.775021  0.055361  1.777060
H    -2.237277  1.749587  3.066671
C    -0.556637  0.723500  4.008875
C    -1.468820  0.367002  5.181396
C    -2.096817  1.550221  5.872757
O    -1.893021  2.739206  5.536778
O    -2.903971  1.370776  6.888623
H    0.183974  1.466047  4.339427
H    0.026526  -0.157833  3.715922
H    -0.901231  -0.191681  5.945624
H    -2.278803  -0.317430  4.874318
N    0.408000  2.101692  1.212061
C    1.290527  3.054612  0.547303
H    0.512998  1.056042  1.032849
H    2.324221  2.880365  0.874027
H    0.993781  4.080726  0.775347
H    1.238170  2.881922  -0.534042
H    -3.020605  0.429421  7.131690
Pb    -1.303511  4.626392  4.380111
