29
Energy: -609841.647152 eV PBE+vdW (tier 2 basis)
C    -0.832471  2.091732  2.549135
C    0.012547  1.070181  1.881530
O    1.246461  1.450658  1.657745
H    -1.297476  1.691805  3.459906
H    -1.631341  2.430805  1.872763
H    -0.214792  2.955154  2.812520
N    -0.401275  -0.126645  1.523295
C    -1.767961  -0.652254  1.637874
C    -1.807757  -1.853096  2.619534
O    -0.854446  -2.673279  2.747206
H    0.253702  -0.785042  1.053237
H    -2.389268  0.137951  2.074662
C    -2.375978  -0.996797  0.237603
C    -1.423099  -1.578450  -0.841770
C    -0.580366  -2.674712  -0.257464
O    -1.063290  -3.837518  -0.075848
O    0.587324  -2.377249  0.216980
H    -2.809760  -0.076095  -0.173053
H    -3.210233  -1.692109  0.400513
H    -0.772262  -0.798969  -1.255842
H    -2.039013  -1.976041  -1.657569
N    -2.921021  -1.974291  3.329991
C    -3.190167  -3.077555  4.257801
H    -3.649669  -1.274171  3.216062
H    -4.031736  -2.795147  4.895757
H    -2.308362  -3.263081  4.879432
H    -3.450078  -3.990060  3.705622
H    1.804568  0.798371  1.186183
Pb    0.451574  -4.284175  1.624729
