29
Energy: -609841.629447 eV PBE+vdW (tier 2 basis)
C    1.092230  0.058546  1.417892
C    0.348042  -0.041445  2.704110
O    0.971028  -0.300829  3.781523
H    0.444659  0.069666  0.535507
H    1.759247  -0.812831  1.353149
H    1.739434  0.947079  1.419482
N    -0.990325  0.107412  2.769556
C    -1.931666  0.871099  1.938234
C    -1.292666  2.065637  1.242195
O    -0.481276  2.880387  1.846964
H    -1.382831  -0.180033  3.666450
H    -2.375028  0.218535  1.173904
C    -3.084038  1.349283  2.876082
C    -2.709773  2.350437  4.005912
C    -1.447616  1.966138  4.745438
O    -1.458065  1.085815  5.657083
O    -0.315485  2.481287  4.372719
H    -3.522891  0.438706  3.309822
H    -3.873525  1.803120  2.263522
H    -3.540813  2.366037  4.722625
H    -2.592220  3.366941  3.609964
N    -1.586489  2.353117  -0.004227
C    -2.438928  1.613870  -0.947875
H    -1.178430  3.228183  -0.342614
H    -2.269592  2.031589  -1.944043
H    -3.499167  1.734030  -0.693784
H    -2.172706  0.551156  -0.970849
H    -0.376965  2.742653  2.870439
Pb    0.902487  0.889539  5.788531
