29
Energy: -609841.050845 eV PBE+vdW (tier 2 basis)
C    -0.032082  0.810325  0.041087
C    -0.448704  0.503829  1.438231
O    -0.009030  1.247054  2.408422
H    1.062962  0.740405  -0.028594
H    -0.306948  1.843626  -0.210947
H    -0.481841  0.129420  -0.688187
N    -1.237848  -0.517885  1.675482
C    -1.669589  -1.099054  2.944746
C    -1.750436  -2.627879  2.583046
O    -1.876401  -2.910402  1.389295
H    -1.472133  -1.202719  0.919879
H    -0.919586  -0.901733  3.723735
C    -3.083138  -0.624220  3.352203
C    -3.263794  0.888588  3.651512
C    -2.649052  1.316044  4.954319
O    -1.549855  1.910436  5.056134
O    -3.245614  1.043736  6.090526
H    -3.411298  -1.222483  4.214320
H    -3.771907  -0.872951  2.532976
H    -4.343276  1.100336  3.688971
H    -2.848801  1.500077  2.841871
N    -1.723096  -3.499175  3.598484
C    -1.837577  -4.948946  3.413832
H    -1.550466  -3.156360  4.537979
H    -2.611838  -5.347024  4.079129
H    -0.881105  -5.438186  3.634336
H    -2.112110  -5.144482  2.374131
H    -4.126491  0.633863  5.975158
Pb    0.343946  2.644577  4.014729
