29
Energy: -609841.62802 eV PBE+vdW (tier 2 basis)
C    -0.443959  0.542949  0.208541
C    -0.281310  0.029700  1.596801
O    0.595683  -0.892477  1.815813
H    -0.740688  -0.283472  -0.452471
H    0.527470  0.905227  -0.155667
H    -1.184613  1.346066  0.143997
N    -1.028402  0.537003  2.567923
C    -0.865047  0.206562  3.983103
C    -1.301556  -1.250332  4.245048
O    -0.382265  -2.125544  4.474284
H    -1.633048  1.396422  2.386711
H    0.214286  0.210462  4.211786
C    -1.529612  1.241273  4.917127
C    -1.113306  2.707221  4.692221
C    -1.870437  3.402686  3.576281
O    -2.300658  2.836086  2.567705
O    -2.017787  4.698497  3.797112
H    -1.250308  0.957794  5.941017
H    -2.621888  1.171599  4.868334
H    -0.037405  2.802208  4.468849
H    -1.267368  3.276199  5.617333
N    -2.556216  -1.653398  4.233141
C    -3.797301  -0.919965  3.957797
H    -2.667844  -2.647396  4.445052
H    -3.614536  -0.065820  3.301244
H    -4.264224  -0.587938  4.893719
H    -4.483617  -1.606531  3.450985
H    -2.483412  5.113789  3.040137
Pb    1.435685  -2.416017  3.190156
