29
Energy: -609841.801401 eV PBE+vdW (tier 2 basis)
C    1.102520  1.000507  0.164145
C    0.200887  1.382960  1.293361
O    0.272816  2.517954  1.853415
H    1.129902  1.814565  -0.570923
H    0.812427  0.070651  -0.336447
H    2.122675  0.871365  0.557493
N    -0.708376  0.478090  1.701808
C    -1.643369  0.557669  2.840121
C    -2.258341  1.958502  3.009447
O    -1.918458  2.766384  3.957901
H    -0.732866  -0.397426  1.183972
H    -2.493962  -0.068684  2.534601
C    -1.127213  -0.070284  4.177345
C    0.384926  -0.064462  4.468754
C    1.066122  1.263855  4.338597
O    2.207698  1.347809  3.786411
O    0.464075  2.354123  4.703550
H    -1.435496  -1.123429  4.176321
H    -1.685492  0.389427  5.004571
H    0.927520  -0.778666  3.838580
H    0.524194  -0.409061  5.507149
N    -3.248098  2.306811  2.222285
C    -3.985719  3.574892  2.282767
H    -3.563800  1.624810  1.535468
H    -3.389143  4.322869  2.809259
H    -4.933542  3.422591  2.815097
H    -4.194592  3.906466  1.260548
H    -1.017673  2.514054  4.394046
Pb    1.901379  3.575657  3.212357
