29
Energy: -609842.036485 eV PBE+vdW (tier 2 basis)
C    0.283432  -0.911304  1.598837
C    -0.509820  0.344003  1.771482
O    0.093778  1.457426  1.822103
H    0.969532  -1.019597  2.450292
H    0.908297  -0.807780  0.700885
H    -0.327684  -1.815453  1.509176
N    -1.846728  0.226015  1.850191
C    -2.955810  1.209027  1.877098
C    -2.588552  2.646905  1.471165
O    -1.998644  3.451115  2.259342
H    -2.181092  -0.731547  1.759923
H    -3.645796  0.840794  1.102658
C    -3.791942  1.141875  3.183776
C    -3.253591  1.749808  4.501989
C    -1.957733  1.153681  4.987782
O    -0.838581  1.612016  4.693246
O    -1.962161  0.077124  5.747940
H    -4.049040  0.083457  3.340517
H    -4.746504  1.646055  2.975633
H    -4.032206  1.602614  5.264671
H    -3.114014  2.831056  4.395201
N    -3.032279  3.048776  0.289671
C    -2.883653  4.400237  -0.254253
H    -3.522575  2.373024  -0.292148
H    -2.620938  5.089146  0.551480
H    -3.833170  4.705690  -0.706916
H    -2.101730  4.409335  -1.024690
H    -2.861183  -0.196925  6.015219
Pb    0.065387  3.222424  3.249730
