29
Energy: -609841.656119 eV PBE+vdW (tier 2 basis)
C    1.787989  0.849364  0.411952
C    0.604082  0.193724  1.036211
O    0.752175  -0.946612  1.599501
H    2.550364  1.000481  1.190558
H    1.555981  1.813004  -0.053256
H    2.230281  0.177182  -0.335400
N    -0.572750  0.824456  1.015129
C    -1.802203  0.458179  1.739871
C    -2.598524  -0.591598  0.939735
O    -2.112664  -1.793319  0.860228
H    -0.585321  1.723708  0.538371
H    -1.476145  -0.089522  2.639357
C    -2.515095  1.725222  2.273728
C    -2.768223  2.948100  1.363115
C    -4.159410  3.043720  0.766846
O    -4.857150  2.076652  0.470616
O    -4.536377  4.299917  0.585349
H    -1.883722  2.071568  3.102364
H    -3.456325  1.405517  2.741873
H    -2.074232  3.024596  0.507830
H    -2.589425  3.865004  1.937546
N    -3.737345  -0.309804  0.379206
C    -4.539980  -1.278719  -0.371845
H    -4.146737  0.669072  0.471867
H    -5.468362  -0.785133  -0.669665
H    -4.770377  -2.150152  0.252794
H    -4.000167  -1.614328  -1.265848
H    -5.425220  4.322758  0.170835
Pb    -0.358028  -2.885946  1.643149
