29
Energy: -609841.645246 eV PBE+vdW (tier 2 basis)
C    -1.809781  -0.968925  -0.382881
C    -1.327773  -0.742587  1.012873
O    -0.251841  -1.314901  1.390058
H    -1.029864  -0.660988  -1.092331
H    -2.742408  -0.446368  -0.618781
H    -1.957155  -2.049147  -0.527171
N    -2.068202  0.037279  1.810667
C    -1.998199  0.348504  3.258337
C    -0.773549  1.184525  3.658486
O    0.419335  0.918352  3.295724
H    -2.896143  0.416798  1.357609
H    -2.864002  1.009328  3.399648
C    -2.280629  -0.852824  4.202102
C    -1.218431  -1.948003  4.371755
C    -0.019227  -1.496466  5.158944
O    0.012270  -0.876843  6.178554
O    1.204514  -1.906399  4.530593
H    -3.205696  -1.321653  3.840320
H    -2.517374  -0.433275  5.190489
H    -0.924809  -2.413534  3.426951
H    -1.667656  -2.751989  4.979180
N    -0.996360  2.209451  4.461502
C    0.057747  3.045951  5.045446
H    -1.956291  2.417657  4.725174
H    0.633290  2.467558  5.779389
H    -0.415157  3.895647  5.543998
H    0.727014  3.410511  4.258891
H    1.908471  -1.790018  5.207810
Pb    1.686907  -0.710637  2.351666
