29
Energy: -609841.358759 eV PBE+vdW (tier 2 basis)
C    0.923138  -0.839498  0.432158
C    0.499078  0.438117  1.073849
O    1.377737  1.308062  1.377864
H    1.565586  -0.626744  -0.431886
H    0.084279  -1.472245  0.123830
H    1.540583  -1.397382  1.152738
N    -0.808284  0.634474  1.320436
C    -1.415067  1.682800  2.157725
C    -1.467010  3.102444  1.554982
O    -2.128832  3.962546  2.087456
H    -1.426654  -0.125489  1.045137
H    -2.480849  1.421146  2.220577
C    -0.831854  1.616594  3.607445
C    -1.105491  2.799197  4.535618
C    -0.306266  4.036930  4.224725
O    0.647327  4.057302  3.413228
O    -0.555706  5.158554  4.850346
H    0.250571  1.451698  3.552340
H    -1.255298  0.715298  4.067847
H    -0.824443  2.501865  5.561758
H    -2.171545  3.065405  4.581059
N    -0.666959  3.397684  0.409241
C    -1.020588  4.644243  -0.330078
H    -0.579103  2.587660  -0.212503
H    -0.306852  4.779894  -1.149131
H    -0.978064  5.496917  0.353796
H    -2.036106  4.577135  -0.738329
H    -1.299384  5.090734  5.482891
Pb    1.723355  3.562508  1.452836
