29
Energy: -609842.191984 eV PBE+vdW (tier 2 basis)
C    -0.634281  0.266927  -0.237095
C    -0.313932  -0.086201  1.178321
O    0.718979  -0.777952  1.427977
H    -0.755774  -0.663977  -0.809057
H    0.218328  0.799948  -0.678295
H    -1.539075  0.873798  -0.345117
N    -1.158587  0.334476  2.138190
C    -1.153586  -0.003376  3.574926
C    -0.040933  0.767833  4.310573
O    1.195108  0.534109  4.148405
H    -1.948082  0.887030  1.814923
H    -2.102837  0.400132  3.952116
C    -1.205816  -1.541998  3.783868
C    -0.894566  -2.073653  5.188439
C    0.524670  -2.567403  5.380020
O    1.415819  -2.479741  4.520534
O    0.851321  -3.151302  6.513473
H    -0.555423  -2.043673  3.060281
H    -2.226846  -1.839364  3.514420
H    -1.557077  -2.926840  5.406352
H    -1.110518  -1.341917  5.984985
N    -0.428948  1.723853  5.144049
C    0.487251  2.581670  5.902713
H    -1.423522  1.917087  5.226818
H    -0.051307  2.992289  6.761165
H    0.847254  3.405444  5.272951
H    1.342962  1.994240  6.248229
H    0.100311  -3.249425  7.131874
Pb    2.404108  -1.022015  2.965961
