29
Energy: -609842.070549 eV PBE+vdW (tier 2 basis)
C    -0.402899  0.430507  -0.387174
C    -0.380290  -0.014814  1.039729
O    0.366038  -0.983419  1.376798
H    -0.645850  -0.434462  -1.019945
H    0.605119  0.758170  -0.676843
H    -1.115628  1.236486  -0.589566
N    -1.183833  0.629720  1.903293
C    -1.484164  0.397860  3.330672
C    -0.291350  0.686871  4.264493
O    0.905864  0.355690  4.017324
H    -1.721551  1.385256  1.486509
H    -2.202363  1.199693  3.553591
C    -2.310544  -0.886591  3.632271
C    -1.775554  -2.309688  3.331472
C    -0.769042  -2.823994  4.329783
O    0.457068  -2.634903  4.237887
O    -1.172753  -3.495058  5.388614
H    -3.232197  -0.779724  3.043922
H    -2.625241  -0.822503  4.684814
H    -1.328900  -2.363365  2.333275
H    -2.646408  -2.980792  3.326435
N    -0.575198  1.341029  5.382547
C    0.418455  1.677350  6.408685
H    -1.523603  1.678578  5.524171
H    -0.108455  2.070056  7.281961
H    1.113523  2.437068  6.030287
H    0.983035  0.782938  6.693433
H    -2.132968  -3.675811  5.384240
Pb    1.957394  -1.386170  2.966522
