29
Energy: -609842.119281 eV PBE+vdW (tier 2 basis)
C    0.486812  0.413202  0.268706
C    0.097754  0.098083  1.677612
O    0.999212  -0.138990  2.531097
H    1.076223  1.341169  0.265364
H    -0.365597  0.528730  -0.408749
H    1.146545  -0.379816  -0.107495
N    -1.215611  0.070410  1.973397
C    -1.892537  -0.205125  3.254875
C    -1.497037  0.842134  4.314867
O    -0.472501  0.683483  5.053189
H    -1.835745  0.266021  1.192487
H    -2.947043  -0.034654  3.015979
C    -1.789853  -1.653231  3.840703
C    -1.107905  -2.751206  3.009038
C    0.172529  -3.276948  3.601626
O    0.941949  -2.640765  4.351616
O    0.429482  -4.516200  3.255269
H    -2.819111  -1.972332  4.038679
H    -1.316679  -1.599393  4.827877
H    -0.860065  -2.419465  1.987238
H    -1.774323  -3.609969  2.862546
N    -2.252499  1.916044  4.481240
C    -3.486197  2.294235  3.779594
H    -1.924598  2.549962  5.211530
H    -3.312265  2.408256  2.703014
H    -3.809684  3.261689  4.173177
H    -4.287992  1.568436  3.964014
H    1.279145  -4.823015  3.640373
Pb    1.543591  -0.381746  4.740139
