29
Energy: -609841.469335 eV PBE+vdW (tier 2 basis)
C    -1.410083  -0.574681  0.055802
C    -1.014586  -0.389436  1.483963
O    0.183108  -0.634585  1.826952
H    -1.153148  -1.596487  -0.255612
H    -0.812231  0.104164  -0.568778
H    -2.473371  -0.394700  -0.133097
N    -1.957080  0.009065  2.353061
C    -1.886823  0.255764  3.808868
C    -0.981406  1.466587  4.113507
O    0.287850  1.357905  4.113258
H    -2.876321  0.154702  1.943634
H    -2.915668  0.539483  4.059786
C    -1.491526  -0.940264  4.735195
C    -1.418468  -2.354919  4.126009
C    -0.196101  -3.133023  4.531040
O    -0.113467  -4.257070  4.902607
O    1.028842  -2.357051  4.408705
H    -2.220479  -0.950864  5.553914
H    -0.540075  -0.697963  5.220780
H    -1.416260  -2.337092  3.026551
H    -2.278909  -2.967593  4.415216
N    -1.566666  2.614431  4.403451
C    -0.876666  3.864770  4.733896
H    -2.584232  2.640096  4.402902
H    -1.341655  4.300584  5.624993
H    -0.968340  4.570867  3.898820
H    0.177604  3.657071  4.928417
H    1.729140  -2.974924  4.713994
Pb    1.783021  -0.207836  3.354164
