29
Energy: -609841.911774 eV PBE+vdW (tier 2 basis)
C    0.745810  1.091958  1.913870
C    -0.161504  -0.084817  2.022813
O    0.313406  -1.221827  2.329251
H    1.298046  1.204205  2.857004
H    0.218400  2.024348  1.686917
H    1.493054  0.896459  1.132105
N    -1.483904  0.087511  1.802217
C    -2.411061  -1.023644  1.957283
C    -2.504952  -1.880324  0.684864
O    -1.780498  -2.930744  0.634165
H    -1.815868  1.017209  1.556105
H    -1.870454  -1.681818  2.632504
C    -3.709926  -0.747143  2.737989
C    -3.542296  -1.172988  4.217699
C    -3.183453  -2.632767  4.437266
O    -2.203343  -3.237989  3.949167
O    -4.018357  -3.238263  5.251730
H    -4.544115  -1.303610  2.289886
H    -3.991916  0.314033  2.709373
H    -4.460921  -0.963318  4.775960
H    -2.740620  -0.580085  4.688668
N    -3.296888  -1.529534  -0.310303
C    -3.446825  -2.252621  -1.578299
H    -3.859558  -0.689391  -0.192077
H    -4.493919  -2.552105  -1.704114
H    -2.807265  -3.137449  -1.564792
H    -3.157358  -1.596830  -2.408013
H    -3.739969  -4.165568  5.418013
Pb    -0.310741  -3.474886  2.343751
