29
Energy: -609841.1417 eV PBE+vdW (tier 2 basis)
C    0.171517  -0.952204  0.575612
C    0.050790  -0.240984  1.887871
O    1.034993  0.228903  2.483100
H    0.728490  -0.316919  -0.124147
H    -0.788298  -1.236231  0.131202
H    0.774835  -1.858162  0.728664
N    -1.212770  -0.119006  2.416570
C    -1.528865  0.320919  3.776987
C    -1.198497  1.799780  4.059451
O    -2.095208  2.558110  4.625957
H    -1.985859  -0.481588  1.868495
H    -2.622865  0.255741  3.848468
C    -0.892388  -0.630384  4.829437
C    -1.167761  -0.300178  6.320034
C    -2.614853  -0.461723  6.694518
O    -3.459993  0.463823  6.616907
O    -3.084964  -1.619740  7.083925
H    0.196820  -0.629924  4.696904
H    -1.237082  -1.647106  4.594847
H    -0.856941  0.725713  6.560063
H    -0.549816  -0.968315  6.936492
N    -0.020818  2.255692  3.742901
C    0.462029  3.620865  3.918354
H    0.601668  1.518478  3.274974
H    1.257674  3.632121  4.674850
H    -0.350741  4.284898  4.221221
H    0.889182  3.963762  2.968584
H    -2.394637  -2.307405  7.173499
Pb    -3.802835  2.628755  5.977062
