29
Energy: -609841.742044 eV PBE+vdW (tier 2 basis)
C    -0.630467  0.302776  -0.579274
C    -0.607453  -0.264939  0.798039
O    0.238415  -1.160059  1.101086
H    -0.803493  -0.508315  -1.299876
H    0.359872  0.721347  -0.806324
H    -1.391891  1.078158  -0.713961
N    -1.495533  0.197459  1.710286
C    -1.426567  -0.294004  3.076717
C    -2.159666  -1.638759  3.244301
O    -1.440817  -2.692898  3.326092
H    -2.149624  0.922842  1.428570
H    -0.379890  -0.579423  3.157187
C    -1.554471  0.717818  4.222446
C    -0.905194  0.157443  5.519173
C    0.563546  -0.235080  5.414174
O    1.010473  -1.060197  4.595497
O    1.436951  0.294651  6.243597
H    -2.590355  0.991519  4.456284
H    -1.039587  1.639965  3.917106
H    -1.436837  -0.750437  5.849620
H    -1.042356  0.895799  6.319133
N    -3.475420  -1.750030  3.293704
C    -4.507173  -0.717471  3.194763
H    -3.808989  -2.711428  3.394342
H    -5.244414  -1.022899  2.443187
H    -4.079853  0.240580  2.891190
H    -5.016421  -0.596637  4.159234
H    1.038669  0.928197  6.871874
Pb    0.811175  -2.692700  2.801664
