29
Energy: -609841.129604 eV PBE+vdW (tier 2 basis)
C    -0.387431  -1.167756  0.727870
C    -0.863852  -0.635703  2.045016
O    -0.867147  -1.274675  3.090925
H    -0.257399  -0.395907  -0.039264
H    -1.123892  -1.898847  0.363801
H    0.552823  -1.711630  0.873076
N    -1.371950  0.680200  2.037323
C    -1.741353  1.237303  3.319004
C    -3.131646  1.843490  3.352503
O    -3.596123  2.324098  4.460751
H    -1.035065  1.300966  1.304189
H    -1.843410  0.320544  3.940203
C    -0.649736  2.134667  3.957930
C    0.359200  1.313952  4.771134
C    -0.273298  0.568582  5.914955
O    -1.272543  1.009096  6.541765
O    0.208737  -0.563596  6.340715
H    -1.092308  2.921898  4.586153
H    -0.111673  2.677357  3.169553
H    1.122113  1.977500  5.215401
H    0.904063  0.605090  4.132857
N    -3.873448  1.817003  2.271506
C    -5.257718  2.270967  2.141245
H    -3.431964  1.369504  1.464790
H    -5.332168  2.944305  1.279642
H    -5.559463  2.798108  3.048479
H    -5.912828  1.406336  1.975592
H    0.949157  -0.897088  5.793488
Pb    -3.157679  2.255821  6.634417
