29
Energy: -609841.271464 eV PBE+vdW (tier 2 basis)
C    0.308811  -0.141564  0.120249
C    -0.362126  0.651943  1.187007
O    -0.475509  1.920999  1.040574
H    0.378169  -1.209289  0.352566
H    1.313191  0.262296  -0.064485
H    -0.259046  -0.013687  -0.813756
N    -0.855946  0.022326  2.254861
C    -1.728669  0.580598  3.307802
C    -0.854624  1.277920  4.368270
O    -0.304616  2.409856  4.080720
H    -0.717810  -0.987094  2.286228
H    -2.330460  1.378722  2.842259
C    -2.665437  -0.534941  3.793565
C    -3.738875  -0.098364  4.819463
C    -3.777099  -0.933413  6.089466
O    -4.759871  -1.318180  6.651446
O    -2.492251  -1.184485  6.560183
H    -2.064092  -1.364285  4.195553
H    -3.167302  -0.933882  2.902133
H    -4.741736  -0.144793  4.383925
H    -3.596401  0.946431  5.141963
N    -0.657399  0.738293  5.544512
C    0.176446  1.336723  6.592811
H    -1.181921  -0.112916  5.808554
H    -0.002711  0.789253  7.521394
H    -0.083044  2.392400  6.729924
H    1.237322  1.259032  6.324128
H    -2.582537  -1.716953  7.377182
Pb    -0.223877  3.743311  2.293329
