29
Energy: -609841.504105 eV PBE+vdW (tier 2 basis)
C    0.058028  1.625264  0.029992
C    -0.142647  1.256185  1.454205
O    0.491678  1.858116  2.378592
H    1.141185  1.687204  -0.152258
H    -0.335601  2.635693  -0.157050
H    -0.384478  0.911373  -0.670719
N    -0.997053  0.261475  1.815418
C    -2.379186  0.179960  1.352568
C    -3.074838  1.554415  1.577224
O    -2.633932  2.404902  2.412836
H    -0.894874  0.028537  2.804872
H    -2.394727  -0.019430  0.270625
C    -3.134470  -0.994745  2.041673
C    -2.796949  -1.351563  3.520681
C    -2.802579  -0.194441  4.490774
O    -1.805996  0.545674  4.600336
O    -3.857200  0.082269  5.227411
H    -2.931431  -1.907195  1.466763
H    -4.211867  -0.805010  1.948316
H    -1.799475  -1.810041  3.579029
H    -3.507735  -2.128147  3.835025
N    -4.149119  1.806154  0.846077
C    -4.960751  3.025829  0.910727
H    -4.420233  1.113790  0.150349
H    -6.020534  2.750422  0.887241
H    -4.738921  3.669541  0.050099
H    -4.737465  3.561760  1.835628
H    -4.565940  -0.586950  5.149587
Pb    -0.950064  2.698125  4.014782
