29
Energy: -609841.567825 eV PBE+vdW (tier 2 basis)
C    0.131224  -0.771728  -0.342001
C    0.063864  -0.398488  1.099780
O    1.158802  -0.290739  1.762944
H    0.624702  -1.752079  -0.421313
H    0.767253  -0.056836  -0.880992
H    -0.849362  -0.825249  -0.825968
N    -1.130207  -0.215265  1.662378
C    -1.508090  -0.047690  3.079816
C    -1.139391  1.312838  3.683252
O    -0.030612  1.926954  3.436279
H    -1.917629  -0.313787  1.025512
H    -2.602875  -0.051871  3.051344
C    -1.067794  -1.225010  4.006757
C    -2.191937  -2.228354  4.284083
C    -3.386815  -1.631970  5.008294
O    -3.608030  -0.428940  5.124736
O    -4.187434  -2.575455  5.489185
H    -0.712018  -0.814299  4.962275
H    -0.217486  -1.753195  3.558108
H    -1.809721  -3.066664  4.882557
H    -2.564091  -2.690143  3.354734
N    -2.018446  1.806816  4.520657
C    -1.890751  3.049012  5.278425
H    -2.814185  1.177219  4.739599
H    -2.813773  3.628208  5.159520
H    -1.041488  3.628932  4.911780
H    -1.758217  2.817575  6.343414
H    -4.961399  -2.159196  5.923714
Pb    2.051188  1.345369  2.965786
