29
Energy: -609841.567413 eV PBE+vdW (tier 2 basis)
C    0.216384  -0.111640  0.428843
C    -0.020337  0.205497  1.859560
O    0.940716  0.560962  2.615536
H    1.046420  -0.833388  0.381601
H    0.567513  0.782981  -0.105775
H    -0.655762  -0.540070  -0.073168
N    -1.258861  0.120574  2.410035
C    -2.459227  0.719027  1.830031
C    -2.150787  2.183916  1.433278
O    -1.248938  2.850886  2.033254
H    -1.233373  0.171720  3.428853
H    -2.755905  0.157749  0.931653
C    -3.634987  0.635207  2.838194
C    -3.722202  1.659283  3.999228
C    -2.694939  1.578597  5.110741
O    -1.462331  1.586774  4.914061
O    -3.083914  1.520337  6.362852
H    -3.664365  -0.392759  3.227315
H    -4.563235  0.759356  2.265647
H    -4.729688  1.571399  4.427354
H    -3.656736  2.689756  3.609785
N    -2.880331  2.715251  0.465878
C    -2.778042  4.090794  -0.031193
H    -3.558380  2.111785  0.004074
H    -2.064280  4.644167  0.582248
H    -3.762619  4.569989  0.019333
H    -2.439149  4.080213  -1.074258
H    -4.055392  1.488368  6.469173
Pb    0.375750  2.537270  3.710870
