29
Energy: -609840.933781 eV PBE+vdW (tier 2 basis)
C    0.070965  -1.550174  1.388485
C    -0.213362  -0.553826  2.458168
O    0.512755  -0.603125  3.545883
H    -0.587521  -1.460497  0.520553
H    0.033343  -2.570967  1.790815
H    1.108865  -1.391533  1.056439
N    -1.129535  0.379535  2.368237
C    -2.276094  0.568490  1.483616
C    -2.454472  2.123400  1.525762
O    -2.042505  2.693604  2.544316
H    -1.138774  1.193334  3.029336
H    -2.075686  0.187225  0.474797
C    -3.548662  -0.064871  2.114373
C    -3.515794  -1.569027  2.420857
C    -2.691861  -2.015443  3.600964
O    -2.285158  -1.242429  4.493503
O    -2.364732  -3.290795  3.722061
H    -4.380056  0.111625  1.418756
H    -3.794483  0.490570  3.030291
H    -3.212778  -2.164825  1.544318
H    -4.548168  -1.898235  2.643825
N    -3.076907  2.699018  0.494908
C    -3.367800  4.133124  0.422979
H    -3.329784  2.126583  -0.304990
H    -2.832348  4.582304  -0.421731
H    -3.037848  4.601292  1.353670
H    -4.445063  4.289688  0.294229
H    -2.759216  -3.858621  3.029023
Pb    -0.231803  -0.975170  5.577488
