29
Energy: -609841.344419 eV PBE+vdW (tier 2 basis)
C    -0.565904  1.756560  -0.352484
C    -0.257652  1.769011  1.104043
O    0.705129  2.508847  1.525807
H    0.336935  1.497830  -0.921282
H    -0.850851  2.775568  -0.654968
H    -1.374811  1.066086  -0.610794
N    -1.004511  1.040658  1.930316
C    -1.006243  1.100041  3.401658
C    0.151705  0.245523  3.956726
O    1.343897  0.724188  3.965238
H    -1.804985  0.537995  1.518156
H    -0.770551  2.137468  3.693302
C    -2.399361  0.747224  3.951742
C    -3.520077  1.701661  3.509863
C    -4.029959  1.603572  2.082186
O    -4.643458  2.459440  1.509494
O    -3.732098  0.375734  1.498636
H    -2.334593  0.781324  5.048397
H    -2.679717  -0.280868  3.672136
H    -3.264204  2.754065  3.693538
H    -4.402007  1.504131  4.139940
N    -0.086996  -0.961890  4.417307
C    0.904560  -1.896080  4.958737
H    -1.056041  -1.276966  4.408082
H    1.871961  -1.397288  5.040192
H    0.986205  -2.765944  4.294976
H    0.572484  -2.231223  5.948155
H    -4.236541  0.338177  0.659195
Pb    2.322241  2.518729  3.040477
