29
Energy: -609841.152819 eV PBE+vdW (tier 2 basis)
C    0.154717  -0.539079  0.247668
C    0.170431  -0.194909  1.696046
O    1.221559  0.342188  2.197147
H    0.999891  -1.201393  0.016642
H    0.311400  0.384688  -0.329440
H    -0.779756  -1.009257  -0.075734
N    -0.916936  -0.425111  2.434763
C    -1.157063  0.010873  3.822742
C    -0.484424  -0.978196  4.794833
O    0.783682  -0.906826  4.994842
H    -1.708337  -0.853718  1.956279
H    -0.625632  0.967199  3.959160
C    -2.656248  0.249602  4.050446
C    -3.198827  1.439579  3.245836
C    -4.691319  1.698739  3.448545
O    -5.181215  2.796545  3.473573
O    -5.380207  0.531340  3.562613
H    -2.810256  0.443312  5.122153
H    -3.236260  -0.654650  3.800346
H    -3.057544  1.290670  2.162928
H    -2.681425  2.370208  3.511206
N    -1.211754  -1.880810  5.413209
C    -0.725725  -2.893592  6.354903
H    -2.216032  -1.862167  5.237785
H    -1.262060  -2.782925  7.304904
H    0.345829  -2.761857  6.514762
H    -0.924309  -3.892274  5.946711
H    -6.328728  0.759262  3.649025
Pb    2.453112  0.254580  4.049879
