29
Energy: -609841.583311 eV PBE+vdW (tier 2 basis)
C    0.718329  0.107919  0.405433
C    0.090941  -0.057685  1.747424
O    0.105505  -1.175908  2.335027
H    0.285687  -0.629576  -0.284338
H    1.791350  -0.118392  0.481030
H    0.591416  1.111829  -0.013281
N    -0.509476  1.027377  2.313089
C    -0.997910  0.921665  3.673039
C    -2.469980  1.168801  3.923372
O    -3.020884  0.459472  4.873791
H    -0.356737  1.926295  1.862194
H    -0.942395  -0.158498  3.820781
C    -0.085877  1.582371  4.754175
C    -0.028063  0.775136  6.088278
C    0.093366  -0.673218  5.707341
O    1.224269  -1.167391  5.399605
O    -0.988946  -1.353052  5.478951
H    -0.390585  2.614721  4.968450
H    0.923669  1.620296  4.325254
H    -0.922185  0.933935  6.703294
H    0.848806  1.100354  6.659720
N    -3.207004  2.041533  3.291546
C    -4.636399  2.300624  3.530600
H    -2.755301  2.603588  2.573357
H    -5.066544  1.479426  4.107977
H    -5.140553  2.386394  2.562447
H    -4.746927  3.241130  4.084766
H    -2.397591  -0.256400  5.209586
Pb    0.338387  -2.827000  4.046438
