29
Energy: -609841.844632 eV PBE+vdW (tier 2 basis)
C    0.325962  0.227823  -0.352604
C    -0.024135  -0.108434  1.055798
O    0.895020  -0.257563  1.918290
H    -0.550234  0.348802  -0.998100
H    0.974624  -0.559734  -0.760057
H    0.914032  1.156153  -0.358758
N    -1.328671  -0.237085  1.391957
C    -1.691792  -0.486497  2.777864
C    -1.643739  -1.991098  3.107203
O    -0.582786  -2.458189  3.636827
H    -2.033149  -0.110082  0.669500
H    -0.840118  -0.075926  3.315832
C    -2.856841  0.310766  3.367724
C    -2.779767  0.308942  4.920518
C    -1.468976  0.799854  5.527962
O    -0.351839  0.319422  5.262175
O    -1.492653  1.768925  6.418317
H    -3.845615  -0.069527  3.074377
H    -2.792280  1.341294  2.990937
H    -2.920578  -0.714816  5.305708
H    -3.620789  0.896386  5.309638
N    -2.675621  -2.765494  2.822679
C    -2.734543  -4.216782  3.031433
H    -3.491889  -2.329767  2.399183
H    -2.782628  -4.726277  2.061211
H    -3.631365  -4.462544  3.611318
H    -1.842322  -4.538190  3.572702
H    -2.391894  2.104260  6.601638
Pb    1.248582  -1.112621  4.078726
