29
Energy: -609841.05479 eV PBE+vdW (tier 2 basis)
C    0.613116  0.818173  0.365035
C    0.062458  1.007310  1.734328
O    0.576796  1.931965  2.492300
H    1.684647  0.583575  0.437631
H    0.526466  1.757343  -0.198687
H    0.105015  0.018252  -0.182620
N    -0.911581  0.242544  2.168474
C    -1.554138  0.252489  3.478308
C    -2.217123  -1.159622  3.542133
O    -2.536201  -1.680077  2.474446
H    -1.322493  -0.507786  1.579590
H    -0.787753  0.386702  4.256281
C    -2.634389  1.367979  3.533124
C    -3.084316  1.775953  4.935676
C    -2.086506  2.592296  5.713275
O    -1.002313  2.995374  5.236592
O    -2.331135  2.928419  6.956666
H    -3.510545  1.023581  2.967348
H    -2.265556  2.255212  2.999474
H    -3.374659  0.902085  5.543700
H    -4.003159  2.384625  4.866980
N    -2.453075  -1.677556  4.761154
C    -3.093676  -2.985997  4.937433
H    -1.976065  -1.276961  5.561897
H    -3.579299  -3.016346  5.917442
H    -2.357405  -3.797178  4.868800
H    -3.842486  -3.122187  4.151980
H    -3.197410  2.608519  7.282011
Pb    0.815216  3.517949  3.943693
