29
Energy: -609841.311228 eV PBE+vdW (tier 2 basis)
C    0.221533  0.790484  -0.375856
C    -0.111693  -0.286474  0.581742
O    0.431868  -1.446050  0.327673
H    -0.273821  1.736506  -0.137371
H    -0.063577  0.469422  -1.388733
H    1.311851  0.936599  -0.389422
N    -0.907695  -0.067628  1.618371
C    -1.272264  -1.073662  2.621257
C    -2.781131  -1.263895  2.875212
O    -3.223040  -2.449131  2.907983
H    -1.218376  0.895013  1.735313
H    -1.028447  -2.036859  2.160599
C    -0.461677  -0.973433  3.954280
C    0.475749  -2.197567  4.175087
C    -0.357935  -3.422433  3.920576
O    -1.147772  -3.855481  4.822377
O    -0.431173  -3.882910  2.715410
H    -1.153891  -0.903992  4.803380
H    0.139054  -0.055005  3.953784
H    0.845999  -2.184532  5.206537
H    1.333238  -2.175833  3.490758
N    -3.599697  -0.243644  3.103807
C    -3.291604  1.182423  3.224194
H    -4.571944  -0.517257  3.253453
H    -3.385908  1.697962  2.257924
H    -2.297622  1.337415  3.660641
H    -4.013421  1.633048  3.913226
H    0.250547  -2.163797  0.974906
Pb    -2.594385  -4.741953  3.245747
