29
Energy: -609840.818284 eV PBE+vdW (tier 2 basis)
C    0.904211  -0.139017  0.135964
C    0.281466  -0.111800  1.487821
O    1.020126  0.151716  2.512949
H    1.721396  -0.874371  0.132633
H    1.354863  0.839736  -0.079668
H    0.190968  -0.388675  -0.656547
N    -1.008971  -0.374154  1.632595
C    -1.730590  -0.400876  2.911361
C    -2.980730  -1.332647  2.806493
O    -4.092703  -0.848781  2.987819
H    -1.543862  -0.557453  0.784217
H    -1.035456  -0.825968  3.652160
C    -2.166492  1.022399  3.310483
C    -2.665297  1.143303  4.750222
C    -1.629111  0.961904  5.815424
O    -0.390069  0.944999  5.591943
O    -1.975806  0.821190  7.068211
H    -2.989864  1.323455  2.650813
H    -1.342910  1.730395  3.128763
H    -3.496404  0.437821  4.919428
H    -3.105248  2.144096  4.909921
N    -2.768571  -2.640289  2.528135
C    -1.515567  -3.368849  2.363289
H    -3.632385  -3.175151  2.449560
H    -1.674082  -4.409443  2.664484
H    -0.728804  -2.960645  3.009950
H    -1.164320  -3.367691  1.321421
H    -2.946405  0.833829  7.200763
Pb    1.553673  1.077952  4.442021
