29
Energy: -609841.635727 eV PBE+vdW (tier 2 basis)
C    -0.192841  -1.449220  1.065891
C    -0.659541  -0.634743  2.219083
O    -0.074006  -0.718940  3.347197
H    0.900532  -1.349644  1.007383
H    -0.630065  -1.152928  0.107649
H    -0.394784  -2.513431  1.256592
N    -1.678923  0.242935  2.118193
C    -2.848701  0.234481  1.219983
C    -3.790026  1.325891  1.710716
O    -4.074796  1.446656  2.975570
H    -1.768912  0.820904  2.950862
H    -2.531579  0.472989  0.196282
C    -3.599522  -1.134478  1.178277
C    -4.238895  -1.647442  2.494619
C    -3.270298  -1.611497  3.650019
O    -2.487009  -2.580403  3.870262
O    -3.174831  -0.532517  4.368125
H    -2.889670  -1.880116  0.798759
H    -4.390576  -1.061753  0.418912
H    -4.549934  -2.686594  2.331045
H    -5.135292  -1.069832  2.755948
N    -4.373736  2.160119  0.888143
C    -4.195664  2.287283  -0.566867
H    -5.039012  2.799333  1.331119
H    -3.134971  2.387493  -0.823126
H    -4.713091  3.196210  -0.885071
H    -4.639166  1.431669  -1.090252
H    -3.745919  0.670632  3.586401
Pb    -1.055082  -1.428108  5.328796
