29
Energy: -609840.99573 eV PBE+vdW (tier 2 basis)
C    -0.705880  -0.380399  -0.064804
C    -0.373050  -0.256755  1.385914
O    0.845932  -0.387053  1.734136
H    -0.126142  0.361952  -0.630374
H    -1.770786  -0.254923  -0.285587
H    -0.378557  -1.369755  -0.415295
N    -1.381259  -0.031657  2.239681
C    -1.473537  0.069930  3.719304
C    -0.701096  1.264953  4.286391
O    0.565101  1.402086  4.143961
H    -2.286368  0.039655  1.781207
H    -2.535888  0.289981  3.872186
C    -1.235360  -1.246875  4.507765
C    0.195877  -1.771015  4.614566
C    0.470032  -3.059426  5.414715
O    1.600510  -3.439735  5.591484
O    -0.657842  -3.646772  5.838660
H    -1.875789  -2.013084  4.048743
H    -1.639658  -1.086670  5.518139
H    0.837465  -1.039621  5.142781
H    0.604336  -2.004927  3.618243
N    -1.350232  2.175030  4.991384
C    -2.786208  2.267946  5.295587
H    -0.753036  2.911609  5.371940
H    -2.941836  3.176060  5.884305
H    -3.121920  1.411665  5.892890
H    -3.380073  2.352938  4.377437
H    -0.420290  -4.462491  6.329010
Pb    2.284666  0.182535  3.346070
