29
Energy: -609841.409084 eV PBE+vdW (tier 2 basis)
C    0.383960  1.671707  0.994307
C    0.239709  0.643660  2.064507
O    1.165248  0.559118  2.953586
H    -0.425796  1.642270  0.258561
H    1.348337  1.526810  0.487810
H    0.417206  2.668933  1.455696
N    -0.832420  -0.140345  2.054769
C    -1.154152  -1.336889  2.858055
C    -1.336809  -1.024857  4.344787
O    -0.341564  -0.909515  5.152368
H    -1.415111  -0.116038  1.209235
H    -2.138109  -1.620680  2.473334
C    -0.228291  -2.542805  2.596289
C    -0.001461  -2.862897  1.103262
C    -1.240797  -2.791721  0.221690
O    -2.026533  -1.849675  0.220775
O    -1.349736  -3.851876  -0.574450
H    -0.679132  -3.409017  3.102435
H    0.759985  -2.404907  3.060743
H    0.458076  -3.853641  1.015839
H    0.716322  -2.150494  0.666778
N    -2.553551  -0.922918  4.842085
C    -3.850694  -1.041385  4.159595
H    -2.584474  -0.762784  5.851214
H    -4.611295  -0.607517  4.815020
H    -4.101843  -2.094997  3.982463
H    -3.853441  -0.486417  3.216045
H    -2.124672  -3.735010  -1.164455
Pb    1.749294  -0.174027  4.950468
