29
Energy: -609841.638902 eV PBE+vdW (tier 2 basis)
C    -0.918301  -0.579351  -0.457441
C    -0.784059  -0.538101  1.029932
O    0.156967  -1.201689  1.578355
H    0.016064  -0.230308  -0.917377
H    -1.755627  0.011603  -0.842398
H    -1.047543  -1.627378  -0.764504
N    -1.679964  0.181166  1.717901
C    -1.957050  0.323852  3.167719
C    -0.848378  1.051553  3.944520
O    0.386680  0.745991  3.864913
H    -2.365491  0.649340  1.130049
H    -2.817774  1.006028  3.175760
C    -2.489517  -0.959214  3.862432
C    -1.533866  -2.129554  4.133539
C    -0.555708  -1.854146  5.242130
O    -0.762470  -1.378505  6.316521
O    0.776453  -2.247502  4.875903
H    -3.316356  -1.326901  3.239820
H    -2.941150  -0.643001  4.813809
H    -1.028920  -2.491130  3.233616
H    -2.142665  -2.973622  4.499448
N    -1.244254  2.012312  4.761375
C    -0.379763  2.764275  5.673849
H    -2.232250  2.256286  4.766650
H    -0.903635  2.892423  6.626882
H    -0.155191  3.751201  5.249396
H    0.549591  2.213478  5.833051
H    1.294016  -2.258866  5.712372
Pb    1.807640  -0.827916  3.056260
