29
Energy: -609840.945071 eV PBE+vdW (tier 2 basis)
C    0.703492  2.203742  1.802032
C    0.175239  0.855721  2.152694
O    0.903775  0.057611  2.873201
H    1.637944  2.085040  1.235052
H    -0.004894  2.788914  1.207427
H    0.949692  2.756514  2.718927
N    -1.006913  0.484219  1.719281
C    -1.678549  -0.810316  1.817076
C    -2.470534  -0.865187  0.463157
O    -2.723370  0.215513  -0.073443
H    -1.531685  1.066388  1.028858
H    -0.936282  -1.615184  1.900174
C    -2.711809  -0.837291  2.967200
C    -2.161167  -0.702474  4.412133
C    -1.444817  -1.933157  4.891306
O    -0.197590  -2.057898  4.920287
O    -2.122570  -2.986169  5.282024
H    -3.310642  -1.754386  2.875633
H    -3.410707  -0.004053  2.810512
H    -3.011637  -0.507640  5.083070
H    -1.487949  0.158770  4.494985
N    -2.866456  -2.057876  -0.006933
C    -2.520642  -3.386578  0.489490
H    -3.404477  -1.999131  -0.869842
H    -2.990985  -4.126193  -0.164457
H    -1.436800  -3.564724  0.463750
H    -2.901401  -3.563349  1.505019
H    -3.089053  -2.835640  5.304796
Pb    1.837466  -1.175068  4.379339
