29
Energy: -609840.815747 eV PBE+vdW (tier 2 basis)
C    -1.008065  0.282881  -0.365360
C    -0.986429  -0.189206  1.055626
O    -0.210661  -1.064762  1.463537
H    -0.073492  0.829152  -0.558548
H    -1.852731  0.939872  -0.600831
H    -1.013837  -0.584443  -1.035567
N    -1.876463  0.398482  1.931807
C    -1.724685  0.233835  3.374196
C    -2.284907  -1.134390  3.849703
O    -3.267911  -1.248448  4.692484
H    -2.509434  1.104269  1.572627
H    -0.638862  0.130171  3.549662
C    -2.128587  1.489532  4.166771
C    -3.516633  2.172617  3.928774
C    -4.615048  1.349075  4.501085
O    -5.261468  0.520016  3.827603
O    -4.868108  1.368473  5.808267
H    -1.385238  2.258802  3.918220
H    -1.994679  1.281901  5.237651
H    -3.724405  2.336241  2.864665
H    -3.487674  3.161474  4.408174
N    -1.654247  -2.177679  3.379801
C    -1.960293  -3.570232  3.680832
H    -0.902306  -1.929659  2.668537
H    -1.080095  -4.174786  3.443219
H    -2.796339  -3.928502  3.061923
H    -2.203315  -3.690009  4.742465
H    -4.366737  2.051560  6.298494
Pb    -5.432125  -1.528955  4.919427
