29
Energy: -609841.793541 eV PBE+vdW (tier 2 basis)
C    -1.523035  -2.050497  1.320747
C    -0.768686  -0.923181  1.937149
O    0.412196  -0.659624  1.485196
H    -1.579332  -1.888161  0.235266
H    -2.531590  -2.156558  1.731698
H    -0.966053  -2.986000  1.471066
N    -1.340217  -0.223920  2.906648
C    -0.837313  1.017281  3.510325
C    0.301522  0.699177  4.504406
O    1.505093  0.579789  4.074597
H    -2.370379  -0.399746  3.102399
H    -0.368027  1.627420  2.719269
C    -1.999017  1.823826  4.124656
C    -3.158973  2.174538  3.173040
C    -4.200840  1.078721  3.040284
O    -3.965858  -0.122683  3.184484
O    -5.399319  1.557317  2.746682
H    -1.573872  2.759441  4.511205
H    -2.425781  1.286680  4.986670
H    -2.800968  2.417787  2.158968
H    -3.662085  3.083137  3.526256
N    0.037182  0.552839  5.784158
C    1.007350  0.224966  6.833202
H    -0.929968  0.677721  6.076979
H    0.879239  -0.820527  7.141846
H    0.826917  0.876920  7.694681
H    2.020356  0.379942  6.456620
H    -6.036129  0.818140  2.646221
Pb    2.386589  0.117257  2.065282
