29
Energy: -609841.981838 eV PBE+vdW (tier 2 basis)
C    0.879104  1.167862  -0.988947
C    0.023661  0.747880  0.162858
O    0.091552  -0.446433  0.584682
H    1.935944  1.043310  -0.715095
H    0.710800  2.199452  -1.314576
H    0.690877  0.487409  -1.831050
N    -0.805765  1.667552  0.686283
C    -1.842227  1.580817  1.733369
C    -1.270930  1.337603  3.139514
O    -0.257848  0.605903  3.364395
H    -0.745753  2.580215  0.242490
H    -2.230490  2.608077  1.772827
C    -3.105301  0.757634  1.344827
C    -3.040561  -0.761043  1.042393
C    -2.919427  -1.636639  2.264706
O    -1.836266  -1.931785  2.799991
O    -4.001171  -2.112636  2.846275
H    -3.489861  1.232746  0.432119
H    -3.866528  0.947720  2.115614
H    -2.209835  -0.995747  0.368604
H    -3.966295  -1.017156  0.507693
N    -1.847716  1.959077  4.161754
C    -2.930350  2.950109  4.165868
H    -1.423627  1.740961  5.064379
H    -3.018919  3.343348  5.182249
H    -3.892058  2.501377  3.889560
H    -2.703024  3.791490  3.499087
H    -4.820756  -1.908520  2.355130
Pb    0.437769  -1.439580  2.615004
