29
Energy: -609841.13019 eV PBE+vdW (tier 2 basis)
C    -0.996260  1.618050  0.904953
C    -0.287425  0.684912  1.816956
O    0.785410  1.065700  2.412362
H    -0.239017  2.083513  0.256238
H    -1.453167  2.441735  1.474165
H    -1.752362  1.129094  0.284555
N    -0.731046  -0.568042  2.036680
C    -2.125998  -0.889321  2.339927
C    -2.400615  -0.386478  3.787920
O    -1.453420  0.127532  4.509350
H    -0.050990  -1.176454  2.496949
H    -2.763227  -0.286358  1.677825
C    -2.427330  -2.401518  2.132150
C    -3.434079  -2.717767  1.023995
C    -4.846850  -2.257299  1.314572
O    -5.177742  -1.562996  2.275741
O    -5.705160  -2.682867  0.398322
H    -2.768652  -2.844066  3.076884
H    -1.483263  -2.905524  1.884122
H    -3.466726  -3.803732  0.853226
H    -3.128766  -2.291885  0.054816
N    -3.624203  -0.501527  4.224001
C    -4.127671  -0.089834  5.531549
H    -4.300259  -0.934506  3.539195
H    -4.600464  -0.952287  6.016952
H    -4.886983  0.690572  5.395687
H    -3.313702  0.285903  6.154661
H    -6.607045  -2.368585  0.619187
Pb    0.620716  0.958754  4.676671
