29
Energy: -609841.697997 eV PBE+vdW (tier 2 basis)
C    -0.804107  -0.848984  -0.219575
C    -0.804712  0.271556  0.762402
O    -0.309578  1.408672  0.389826
H    0.226040  -1.061486  -0.536441
H    -1.349555  -0.525083  -1.117884
H    -1.263774  -1.758801  0.177774
N    -1.332466  0.074256  1.959050
C    -1.639288  1.088687  2.976639
C    -0.387842  1.420926  3.811950
O    0.619073  1.988304  3.255113
H    -1.814876  -0.862209  2.127978
H    -1.866082  2.034709  2.453149
C    -2.927591  0.707670  3.744011
C    -3.046784  -0.642157  4.492502
C    -3.296794  -1.864532  3.625357
O    -2.777039  -2.054542  2.526059
O    -4.115835  -2.727489  4.204504
H    -3.750301  0.775755  3.018427
H    -3.124693  1.515532  4.463690
H    -3.867563  -0.565632  5.216109
H    -2.153942  -0.900400  5.087373
N    -0.340872  1.168880  5.102616
C    0.800718  1.485509  5.971066
H    -1.156352  0.743804  5.534181
H    1.697287  0.960334  5.622449
H    0.558895  1.161661  6.986210
H    0.989301  2.565593  5.967468
H    -4.216512  -3.522059  3.637722
Pb    1.051067  2.898340  1.240263
