29
Energy: -609841.763518 eV PBE+vdW (tier 2 basis)
C    0.641657  0.082066  -0.114866
C    0.410244  0.514513  1.300498
O    1.342078  0.982234  2.007745
H    1.039364  0.926712  -0.693691
H    -0.254279  -0.296143  -0.617903
H    1.409305  -0.704509  -0.118889
N    -0.832809  0.344503  1.796209
C    -1.429666  0.581498  3.133859
C    -2.209471  1.904739  3.117190
O    -1.645289  3.055456  2.978947
H    -1.481963  -0.081110  1.138877
H    -2.188600  -0.210365  3.197416
C    -0.537012  0.362485  4.397909
C    0.043373  1.565117  5.186102
C    1.115951  2.277590  4.419161
O    2.330668  1.940015  4.537032
O    0.792743  3.175739  3.535738
H    0.266236  -0.334748  4.129312
H    -1.172384  -0.173974  5.113962
H    0.488071  1.164555  6.105178
H    -0.743316  2.272731  5.481356
N    -3.519114  1.862676  3.222751
C    -4.410592  3.029384  3.245813
H    -3.958651  0.946332  3.280477
H    -3.845480  3.916672  3.540696
H    -5.214993  2.836838  3.962898
H    -4.842906  3.184247  2.248885
H    -0.605406  3.094511  3.159176
Pb    2.893238  2.676234  2.427163
