29
Energy: -609842.004853 eV PBE+vdW (tier 2 basis)
C    0.588758  0.191358  -0.108646
C    0.105092  -0.113704  1.266733
O    0.885480  0.030312  2.258442
H    0.941050  1.231881  -0.137595
H    -0.177412  0.045835  -0.877299
H    1.457382  -0.442724  -0.333404
N    -1.170360  -0.530477  1.434793
C    -1.684547  -0.752002  2.776898
C    -1.339269  -2.164327  3.287459
O    -0.315405  -2.301546  4.036002
H    -1.765616  -0.623149  0.615244
H    -1.056210  -0.094969  3.377163
C    -3.087908  -0.241482  3.105801
C    -3.251745  -0.116792  4.643296
C    -2.246233  0.774568  5.351077
O    -1.002057  0.648328  5.336265
O    -2.823575  1.728878  6.046168
H    -3.892273  -0.886178  2.724375
H    -3.221160  0.741289  2.632022
H    -3.167552  -1.108946  5.117715
H    -4.255285  0.255923  4.873935
N    -2.085452  -3.195704  2.938155
C    -1.839571  -4.593095  3.312418
H    -2.893679  -3.015588  2.346324
H    -0.980838  -4.639381  3.985124
H    -1.637003  -5.183065  2.410378
H    -2.727502  -4.995773  3.813270
H    -2.157784  2.265615  6.529726
Pb    1.048672  -0.511090  4.535162
