29
Energy: -609841.741188 eV PBE+vdW (tier 2 basis)
C    0.390248  0.443268  0.839990
C    0.142697  -0.447049  2.004737
O    1.103056  -1.089624  2.541376
H    1.264481  1.066777  1.076318
H    -0.454273  1.092734  0.590754
H    0.670779  -0.159729  -0.036021
N    -1.077478  -0.582996  2.563717
C    -2.417915  -0.453562  1.959313
C    -3.417297  -0.951985  2.999697
O    -3.243553  -2.084581  3.612261
H    -1.040181  -1.105505  3.436111
H    -2.629527  0.606145  1.753379
C    -2.578826  -1.238356  0.620557
C    -2.438109  -2.782258  0.663145
C    -1.188687  -3.218514  1.384864
O    -0.088173  -3.326684  0.769732
O    -1.224410  -3.390531  2.672522
H    -1.850251  -0.823627  -0.087376
H    -3.567894  -0.996494  0.207600
H    -2.388773  -3.141562  -0.372037
H    -3.311606  -3.249991  1.135934
N    -4.488384  -0.249752  3.267140
C    -5.571278  -0.643030  4.179760
H    -4.571158  0.662743  2.821292
H    -6.529119  -0.416136  3.699464
H    -5.487425  -0.067476  5.110409
H    -5.500583  -1.710803  4.397529
H    -2.450755  -2.662358  3.263221
Pb    1.273414  -3.400514  2.676339
