29
Energy: -609841.495899 eV PBE+vdW (tier 2 basis)
C    0.514393  0.369162  -0.224342
C    0.043840  1.074641  1.001687
O    0.557130  2.226782  1.269034
H    0.062816  -0.620207  -0.345520
H    1.608267  0.274583  -0.185799
H    0.279793  0.984313  -1.104821
N    -0.879780  0.487772  1.750952
C    -1.395756  0.830220  3.090572
C    -2.006642  2.234801  3.176332
O    -1.298970  3.284453  3.385136
H    -1.005932  -0.528223  1.596879
H    -2.233638  0.131351  3.221061
C    -0.367764  0.538561  4.215147
C    -0.407607  -0.898340  4.763977
C    -0.299398  -2.044443  3.770316
O    -0.663921  -2.015157  2.598563
O    0.196900  -3.132007  4.352867
H    -0.564389  1.209878  5.062789
H    0.644213  0.775235  3.851997
H    -1.356417  -1.063855  5.302746
H    0.375602  -1.019248  5.522908
N    -3.320271  2.325236  3.106715
C    -4.107185  3.556168  3.216038
H    -3.841210  1.462003  2.961565
H    -4.959212  3.370276  3.879101
H    -4.482234  3.846077  2.225918
H    -3.485009  4.353186  3.628392
H    0.182918  -3.877236  3.715824
Pb    0.671093  3.967181  2.595589
