29
Energy: -609841.228694 eV PBE+vdW (tier 2 basis)
C    0.416143  -0.789900  0.138408
C    0.265640  -1.004471  1.604628
O    1.206195  -1.595629  2.246101
H    0.602562  -1.750915  -0.359225
H    1.309636  -0.169727  -0.029498
H    -0.449433  -0.300107  -0.319606
N    -0.828089  -0.551885  2.219502
C    -1.076140  -0.455948  3.670908
C    -1.607109  -1.797891  4.213420
O    -0.827275  -2.827343  4.197859
H    -1.519741  -0.099755  1.623555
H    -0.092514  -0.329305  4.153430
C    -1.900996  0.805484  3.975420
C    -3.214643  0.996787  3.165978
C    -4.417655  1.310636  4.041974
O    -5.112584  2.281201  3.984483
O    -4.620950  0.278795  4.947747
H    -1.244971  1.666566  3.795701
H    -2.098407  0.817371  5.055734
H    -3.486546  0.095327  2.590001
H    -3.123768  1.823135  2.453917
N    -2.812129  -1.910408  4.712124
C    -3.356228  -3.160339  5.256061
H    -3.429772  -1.082465  4.779259
H    -3.265378  -3.967557  4.521065
H    -4.410566  -2.994930  5.490985
H    -2.819405  -3.443396  6.170330
H    -5.400020  0.508880  5.494964
Pb    1.326468  -3.214504  3.766409
