29
Energy: -609842.169141 eV PBE+vdW (tier 2 basis)
C    0.746419  1.190084  -1.162137
C    -0.061557  0.804817  0.035238
O    0.027986  -0.378054  0.486756
H    0.571132  2.214902  -1.505015
H    0.515554  0.491715  -1.978732
H    1.813188  1.062772  -0.932000
N    -0.869637  1.738814  0.564176
C    -1.874473  1.688667  1.646310
C    -1.264068  1.480562  3.039440
O    -0.300889  0.685597  3.273529
H    -0.828270  2.636128  0.088075
H    -2.257135  2.717936  1.663353
C    -3.147233  0.852413  1.329951
C    -3.083070  -0.673235  1.078267
C    -2.941556  -1.518788  2.312178
O    -1.861910  -1.915271  2.798977
O    -4.088228  -1.833069  2.873104
H    -3.565395  1.294519  0.415530
H    -3.884150  1.060986  2.119168
H    -2.277891  -0.931663  0.383872
H    -4.035168  -0.951589  0.608154
N    -1.761602  2.189261  4.046244
C    -2.784943  3.242705  4.030386
H    -1.316563  1.995753  4.944204
H    -3.759888  2.855746  3.711546
H    -2.482713  4.080676  3.389106
H    -2.888620  3.621386  5.050843
H    -3.950595  -2.402088  3.661927
Pb    0.408272  -1.349682  2.510546
