29
Energy: -609841.435076 eV PBE+vdW (tier 2 basis)
C    -0.681922  -0.459175  0.181754
C    -0.342711  -0.188727  1.602055
O    0.858001  -0.277011  2.013223
H    -0.156871  -1.375689  -0.123937
H    -0.284003  0.343170  -0.458293
H    -1.755010  -0.580809  0.007460
N    -1.298114  0.152614  2.507652
C    -2.279633  1.209709  2.284862
C    -1.542547  2.501276  1.842006
O    -0.296885  2.663649  2.061789
H    -0.922219  0.152173  3.457757
H    -2.951627  0.913784  1.467528
C    -3.161518  1.435324  3.549125
C    -2.524448  1.237651  4.957359
C    -1.226987  1.973222  5.201407
O    -0.144223  1.499178  4.807954
O    -1.201306  3.137934  5.813289
H    -4.000889  0.729905  3.504840
H    -3.600271  2.439301  3.486424
H    -2.323141  0.171329  5.133446
H    -3.282463  1.530060  5.696929
N    -2.207391  3.452537  1.202587
C    -3.616820  3.511537  0.804602
H    -1.638702  4.266223  0.960994
H    -3.676151  3.932564  -0.204841
H    -4.182371  4.157836  1.488331
H    -4.070450  2.516837  0.790970
H    -2.072977  3.405705  6.166191
Pb    1.539120  1.672392  3.110711
