29
Energy: -609841.701213 eV PBE+vdW (tier 2 basis)
C    -3.724117  -0.652570  -0.060935
C    -2.766430  -0.503045  1.071205
O    -1.530667  -0.719512  0.887701
H    -3.392514  -0.017467  -0.893700
H    -4.754016  -0.394247  0.206778
H    -3.691323  -1.689731  -0.422810
N    -3.242080  -0.126737  2.281826
C    -2.323131  0.074720  3.391034
C    -1.972272  -1.240332  4.106317
O    -0.846006  -1.772266  3.814917
H    -4.243090  0.020169  2.384865
H    -1.393139  0.287853  2.872782
C    -2.506917  1.337435  4.257496
C    -1.552580  2.471233  3.789725
C    -0.073537  2.104773  3.791993
O    0.406005  1.162857  3.133315
O    0.774806  2.816709  4.502434
H    -2.305331  1.099310  5.310497
H    -3.536148  1.718487  4.217880
H    -1.725297  3.359862  4.409947
H    -1.798650  2.760660  2.755383
N    -2.769548  -1.832808  4.975656
C    -4.090454  -1.417269  5.444736
H    -2.405267  -2.708265  5.358198
H    -4.065564  -1.256176  6.529459
H    -4.822038  -2.202937  5.220304
H    -4.404334  -0.490415  4.958514
H    0.351303  3.558627  4.977050
Pb    0.484333  -1.028920  2.068431
