29
Energy: -609841.904442 eV PBE+vdW (tier 2 basis)
C    -3.806201  -0.506176  -0.215667
C    -2.885813  -0.383413  0.949283
O    -1.645852  -0.612202  0.804636
H    -4.846504  -0.268078  0.029622
H    -3.749364  -1.529172  -0.612399
H    -3.457943  0.162579  -1.015012
N    -3.394325  -0.019667  2.149922
C    -2.490003  0.182239  3.270053
C    -2.127516  -1.141789  3.969024
O    -0.961127  -1.621107  3.750510
H    -4.389799  0.174732  2.219209
H    -1.564084  0.450961  2.762926
C    -2.704453  1.397874  4.179368
C    -1.382373  1.750814  4.911425
C    -0.203582  2.085546  4.017733
O    0.314105  1.334169  3.161643
O    0.272838  3.289944  4.238052
H    -3.482824  1.249900  4.937375
H    -3.022323  2.243416  3.552764
H    -1.061065  0.910576  5.548956
H    -1.554963  2.603204  5.576927
N    -2.953851  -1.796058  4.764292
C    -4.327067  -1.477525  5.156486
H    -2.568301  -2.664236  5.143149
H    -4.961883  -2.351908  4.971190
H    -4.717500  -0.635505  4.581291
H    -4.366306  -1.232687  6.225373
H    1.056851  3.468528  3.673447
Pb    0.356227  -0.855964  2.024420
