29
Energy: -609841.491876 eV PBE+vdW (tier 2 basis)
C    0.845120  -0.153492  0.259398
C    0.398296  -0.057225  1.678578
O    1.181791  -0.354104  2.624750
H    1.691387  0.530364  0.103276
H    0.056036  0.082868  -0.462232
H    1.217308  -1.169527  0.070063
N    -0.878068  0.346808  1.920942
C    -1.297721  0.563356  3.291839
C    -2.470478  -0.231345  3.827096
O    -2.338415  -0.708343  5.039100
H    -1.425877  0.664435  1.126796
H    -0.471040  0.084562  3.818754
C    -1.325341  2.049107  3.767068
C    -0.861829  2.211439  5.247861
C    0.363638  1.356061  5.416325
O    1.502795  1.784964  5.049981
O    0.221134  0.104269  5.733993
H    -2.317142  2.503392  3.646612
H    -0.631830  2.597302  3.116322
H    -1.640142  1.904617  5.957467
H    -0.622441  3.265497  5.429560
N    -3.613149  -0.453293  3.233143
C    -4.066232  0.042051  1.929322
H    -4.272522  -1.029626  3.763514
H    -3.666904  1.043507  1.736319
H    -5.157589  0.118405  1.957719
H    -3.784859  -0.654941  1.129981
H    -1.428626  -0.510546  5.425003
Pb    2.380937  -0.330439  4.680950
