29
Energy: -609842.22046 eV PBE+vdW (tier 2 basis)
C    -1.166691  -0.241316  0.134098
C    -0.887738  -0.250730  1.603138
O    0.293398  -0.457075  2.005136
H    -0.779303  -1.167907  -0.309865
H    -0.607467  0.586046  -0.325454
H    -2.228210  -0.136166  -0.112752
N    -1.924986  -0.052196  2.437132
C    -1.983640  -0.007336  3.912382
C    -1.172631  1.180806  4.467481
O    0.089772  1.118977  4.597492
H    -2.817309  0.098115  1.974452
H    -3.041858  0.204464  4.105646
C    -1.630970  -1.313249  4.700840
C    -1.410364  -2.622525  3.928187
C    -0.002802  -3.154182  4.000143
O    1.023406  -2.470327  4.195137
O    0.063995  -4.454800  3.839533
H    -2.454515  -1.469753  5.406490
H    -0.755881  -1.116263  5.331579
H    -1.651658  -2.531478  2.856404
H    -2.075875  -3.415726  4.290590
N    -1.844390  2.259207  4.835149
C    -1.252649  3.475875  5.398231
H    -2.855522  2.250464  4.722604
H    -1.850725  3.794994  6.258530
H    -1.251293  4.273956  4.644910
H    -0.228597  3.266897  5.715357
H    0.993808  -4.768856  3.872751
Pb    1.743691  -0.250918  3.752681
