29
Energy: -609840.897159 eV PBE+vdW (tier 2 basis)
C    -0.582780  -0.189072  -0.466880
C    -1.082347  -0.242752  0.942883
O    -1.916709  -1.076903  1.331733
H    -1.436391  -0.217904  -1.154193
H    0.009977  -1.095791  -0.655264
H    0.038181  0.687366  -0.681967
N    -0.572944  0.676636  1.830263
C    -0.798463  0.544545  3.268516
C    -2.219114  1.039160  3.634424
O    -2.424655  2.086514  4.374181
H    0.057349  1.397862  1.492834
H    -0.819575  -0.540007  3.474886
C    0.377326  1.170543  4.034551
C    0.571728  0.719848  5.519797
C    -0.366947  1.455924  6.414440
O    -1.483723  1.003140  6.746379
O    -0.103334  2.702956  6.790631
H    0.352386  2.268075  3.963179
H    1.287136  0.843762  3.513372
H    1.611129  0.926880  5.811225
H    0.399016  -0.357503  5.630290
N    -3.199084  0.332739  3.134287
C    -4.613949  0.620954  3.316094
H    -2.867104  -0.431090  2.463342
H    -5.193195  -0.057489  2.683307
H    -4.845882  1.657619  3.040392
H    -4.920879  0.434189  4.359408
H    0.797025  3.002555  6.550450
Pb    -3.256100  2.460098  6.384630
