29
Energy: -609842.073372 eV PBE+vdW (tier 2 basis)
C    -0.568544  0.624273  0.080853
C    -0.373304  0.279632  1.521122
O    0.711572  -0.259169  1.890535
H    -1.530166  1.103240  -0.130487
H    -0.488367  -0.297759  -0.512424
H    0.247333  1.282751  -0.245705
N    -1.381239  0.546158  2.374406
C    -1.484682  0.170897  3.797676
C    -0.539107  1.041587  4.645517
O    0.704013  0.799157  4.754194
H    -2.206359  0.972238  1.961662
H    -2.503822  0.456323  4.082420
C    -1.374443  -1.365594  3.978733
C    -1.156782  -1.895098  5.404221
C    0.254498  -2.365200  5.693968
O    1.218523  -2.193872  4.930103
O    0.495714  -3.012504  6.813472
H    -0.594310  -1.768736  3.325038
H    -2.315997  -1.773631  3.591083
H    -1.825991  -2.750456  5.585491
H    -1.423752  -1.160742  6.183152
N    -1.040788  2.085777  5.292862
C    -2.420424  2.589826  5.326618
H    -0.344260  2.625221  5.809172
H    -2.742124  2.938028  4.337488
H    -2.445360  3.442974  6.010167
H    -3.116266  1.833230  5.708588
H    -0.304840  -3.173119  7.351385
Pb    2.207829  -0.513758  3.621904
