29
Energy: -609840.943416 eV PBE+vdW (tier 2 basis)
C    -0.411908  -0.196194  -0.359592
C    -0.271310  -0.175357  1.122781
O    0.877853  0.097714  1.639381
H    0.310645  -0.910211  -0.779467
H    -0.155048  0.792804  -0.764335
H    -1.420621  -0.466828  -0.688763
N    -1.314616  -0.454039  1.893672
C    -1.312983  -0.460798  3.362668
C    -2.386431  -1.440508  3.934729
O    -3.025019  -1.102544  4.925740
H    -2.203263  -0.631176  1.425484
H    -0.327730  -0.847787  3.668574
C    -1.528765  0.969354  3.906250
C    -1.210074  1.137164  5.393072
C    0.231352  1.029133  5.769300
O    1.175629  1.007006  4.934923
O    0.590077  0.956251  7.024641
H    -2.582209  1.240820  3.761459
H    -0.939474  1.680479  3.307415
H    -1.796404  0.402387  5.972763
H    -1.554225  2.127063  5.741974
N    -2.533265  -2.617434  3.288320
C    -3.477371  -3.641595  3.744095
H    -1.874001  -2.877634  2.562166
H    -3.822502  -4.220485  2.881943
H    -4.329499  -3.148421  4.220403
H    -3.006606  -4.315810  4.471569
H    -0.172358  0.962872  7.639916
Pb    2.347077  1.005302  3.013085
