29
Energy: -609841.764766 eV PBE+vdW (tier 2 basis)
C    -0.379195  0.404420  -0.268125
C    -0.498352  -0.062218  1.142165
O    0.534088  -0.449823  1.769380
H    0.372165  1.204347  -0.316094
H    -1.324816  0.766367  -0.685080
H    -0.001105  -0.421180  -0.887271
N    -1.716288  -0.052311  1.731541
C    -1.858034  -0.452130  3.123542
C    -1.991617  -1.976834  3.274177
O    -0.932707  -2.633770  3.548533
H    -2.517030  0.254083  1.184046
H    -0.859860  -0.273671  3.512302
C    -2.733839  0.434873  4.031327
C    -1.847246  1.390254  4.878730
C    -0.786477  0.696651  5.726647
O    0.108726  -0.031718  5.258131
O    -0.775560  0.874952  7.030478
H    -3.337714  -0.190795  4.702018
H    -3.440532  1.044720  3.452641
H    -2.494412  2.010506  5.511598
H    -1.307062  2.082073  4.212629
N    -3.158246  -2.572711  3.110180
C    -3.398642  -4.017526  3.198834
H    -3.964078  -1.985643  2.905076
H    -3.772761  -4.385124  2.235865
H    -4.147213  -4.214367  3.975159
H    -2.463448  -4.522044  3.449823
H    -1.480684  1.475532  7.342176
Pb    1.149941  -1.618914  3.711575
