26
Energy: -37173.2859452 eV PBE+vdW (tier 2 basis)
C    -0.774488  -1.107220  -0.162538
C    -0.535673  -0.337799  1.092267
O    0.561867  0.218094  1.325083
H    -1.832797  -1.272830  -0.387489
H    -0.260219  -2.078826  -0.100047
H    -0.309213  -0.560132  -0.992661
N    -1.547814  -0.214916  2.029320
C    -2.284125  -1.406905  2.475653
C    -3.774931  -1.134839  2.598520
O    -4.589688  -2.031938  3.097600
H    -1.240517  0.369050  2.814609
H    -2.173404  -2.182040  1.701707
C    -1.670749  -1.957424  3.812747
C    -0.167172  -1.685314  3.745954
O    0.283441  -0.657702  4.355861
O    0.558890  -2.362644  2.949751
H    -1.847071  -3.037578  3.903780
H    -2.087228  -1.438048  4.684471
N    -4.285442  -0.009775  2.191310
C    -5.701668  0.381227  2.229371
H    -3.613010  0.644425  1.784584
H    -6.277441  -0.354673  2.794361
H    -6.081359  0.444467  1.202003
H    -5.777932  1.365658  2.704707
H    -4.143126  -2.844120  3.403423
Ca    1.977870  -0.595197  2.899651
