26
Energy: -37174.2750198 eV PBE+vdW (tier 2 basis)
C    -0.110233  0.056077  -0.332641
C    -0.451978  0.669846  0.986744
O    0.450996  1.105987  1.744920
H    -0.980366  -0.281263  -0.904987
H    0.563054  -0.795480  -0.164030
H    0.451388  0.789786  -0.927436
N    -1.762030  0.742254  1.318969
C    -2.396692  1.332307  2.511795
C    -1.745621  2.667586  2.942162
O    -0.830319  2.717470  3.812150
H    -2.407764  0.367983  0.628461
H    -3.404158  1.601080  2.166511
C    -2.679346  0.334539  3.666016
C    -1.563936  -0.464052  4.318490
O    -1.899399  -1.540462  5.000166
O    -0.367281  -0.164776  4.288860
H    -3.432703  -0.377237  3.295614
H    -3.179133  0.886851  4.481246
N    -2.209067  3.782604  2.389876
C    -3.271353  3.950490  1.391081
H    -1.763186  4.632977  2.735815
H    -3.296811  5.005103  1.103121
H    -4.254358  3.690852  1.805789
H    -3.068041  3.359847  0.490257
H    -2.856598  -1.736791  4.989374
Ca    0.989935  1.503421  3.810676
