26
Energy: -37173.5863333 eV PBE+vdW (tier 2 basis)
C    0.025438  0.386110  0.031123
C    0.020117  0.014580  1.475321
O    1.112662  -0.304172  2.054694
H    0.391305  -0.474157  -0.548407
H    0.737017  1.206036  -0.134263
H    -0.959376  0.677951  -0.346802
N    -1.142959  0.023182  2.130402
C    -1.472626  -0.494487  3.477409
C    -0.782563  0.254581  4.626821
O    0.471089  0.155708  4.835708
H    -1.968044  0.192789  1.557507
H    -2.551294  -0.307995  3.558680
C    -1.292429  -2.016889  3.587002
C    -2.295376  -2.711032  2.660894
O    -2.155177  -4.038182  2.721145
O    -3.096569  -2.105881  1.979453
H    -1.474577  -2.351731  4.619051
H    -0.278217  -2.346729  3.322781
N    -1.560501  0.959676  5.427927
C    -1.127015  1.688549  6.621557
H    -2.551481  1.006413  5.199140
H    -1.114869  2.766635  6.416107
H    -0.128112  1.354803  6.910400
H    -1.833728  1.488235  7.434274
H    -2.823315  -4.456223  2.138061
Ca    2.267599  -0.301770  3.800017
