26
Energy: -37172.3238256 eV PBE+vdW (tier 2 basis)
C    0.432207  0.353754  0.418216
C    0.003754  0.034016  1.833078
O    0.770354  0.021446  2.766337
H    0.684788  1.422083  0.359545
H    -0.293211  0.106402  -0.367225
H    1.363857  -0.189456  0.218663
N    -1.357330  -0.320895  2.089439
C    -2.536463  -0.065034  1.306503
C    -2.733119  -1.079350  0.150946
O    -3.644405  -0.892967  -0.735386
H    -1.504152  -0.416219  3.094602
H    -3.397451  -0.265248  1.965987
C    -2.682395  1.450211  0.874590
C    -3.904050  1.656706  0.051927
O    -3.805061  2.062907  -1.240657
O    -5.052342  1.345327  0.399450
H    -1.782880  1.802206  0.357599
H    -2.787690  2.027178  1.804658
N    -1.989714  -2.158251  0.184568
C    -2.045976  -3.299252  -0.725521
H    -1.326217  -2.182165  0.965751
H    -1.035434  -3.514473  -1.091584
H    -2.701357  -3.069835  -1.568519
H    -2.421782  -4.179776  -0.189069
H    -2.898249  2.313875  -1.509672
Ca    -5.459365  0.023636  -1.353947
