26
Energy: -37173.6304819 eV PBE+vdW (tier 2 basis)
C    -1.301141  2.135390  0.242630
C    -0.700923  2.241514  1.602721
O    0.340091  2.961311  1.789579
H    -1.539568  3.146376  -0.116926
H    -2.205323  1.519399  0.221425
H    -0.560475  1.717062  -0.452998
N    -1.275670  1.574422  2.603141
C    -0.999641  1.732937  4.043262
C    0.375689  1.136795  4.437247
O    1.426406  1.824671  4.219603
H    -2.238338  1.219889  2.431470
H    -0.905803  2.810173  4.261792
C    -2.181044  1.168462  4.862833
C    -3.550217  1.586784  4.327916
O    -4.342933  2.049308  5.287757
O    -3.863703  1.456210  3.154070
H    -2.073792  1.458737  5.913487
H    -2.210513  0.067135  4.814952
N    0.441868  -0.051351  5.002144
C    1.671905  -0.720398  5.434747
H    -0.429056  -0.554773  5.151472
H    2.003361  -1.432596  4.667932
H    1.467084  -1.263901  6.362588
H    2.451228  0.025211  5.609065
H    -5.230597  2.238805  4.913818
Ca    2.111105  3.301429  2.841271
