26
Energy: -37173.1146228 eV PBE+vdW (tier 2 basis)
C    -0.137463  -0.078836  -0.481612
C    -0.336500  0.225965  0.967167
O    -0.651600  1.357241  1.375548
H    0.663678  0.568046  -0.865546
H    -1.047742  0.188555  -1.034037
H    0.120968  -1.124441  -0.680077
N    -0.139455  -0.799556  1.871766
C    -0.385577  -0.482364  3.260417
C    0.202340  -1.363775  4.363829
O    -0.289122  -1.190155  5.538030
H    -0.161221  -1.756913  1.534449
H    0.149390  0.474400  3.415875
C    -1.909460  -0.204216  3.532660
C    -2.021324  1.120647  4.244658
O    -1.762173  2.193523  3.581105
O    -2.255786  1.175128  5.484655
H    -2.379571  -1.006503  4.109458
H    -2.423692  -0.141450  2.567609
N    1.209450  -2.202949  4.212370
C    2.050781  -2.523068  3.048158
H    1.467908  -2.675485  5.080160
H    1.616961  -3.348978  2.469949
H    3.024856  -2.845930  3.428138
H    2.194876  -1.644854  2.415661
H    -1.402915  1.950715  2.641638
Ca    -1.436606  -0.095747  6.982972
