26
Energy: -37173.1336448 eV PBE+vdW (tier 2 basis)
C    0.215386  0.577407  0.097456
C    0.146482  0.198020  1.544292
O    0.974615  0.563545  2.387308
H    -0.523561  0.068173  -0.530793
H    1.225183  0.376034  -0.279455
H    0.057332  1.662610  0.019658
N    -0.913254  -0.597910  1.937209
C    -1.179671  -0.834721  3.349146
C    -0.260695  -1.938874  3.943214
O    -0.735478  -3.018418  4.460688
H    -1.530236  -0.993727  1.234585
H    -0.886831  0.093687  3.870927
C    -2.700492  -1.076262  3.532987
C    -3.176609  -1.063922  4.970298
O    -3.588619  0.045433  5.531765
O    -3.190258  -2.092356  5.675990
H    -2.991379  -2.040233  3.092988
H    -3.219943  -0.288649  2.969541
N    1.019505  -1.673744  3.887052
C    2.106175  -2.541116  4.328980
H    1.242398  -0.748809  3.434158
H    2.900608  -2.518946  3.575105
H    1.750298  -3.567124  4.453598
H    2.518448  -2.169976  5.276621
H    -3.599237  0.813379  4.926210
Ca    -2.054090  -3.933099  5.784678
