26
Energy: -37173.3482586 eV PBE+vdW (tier 2 basis)
C    0.934949  -1.240335  0.116386
C    -0.032617  -0.130284  0.342977
O    -0.032880  0.884298  -0.411984
H    0.913967  -2.011957  0.889905
H    1.937207  -0.783696  0.120238
H    0.801134  -1.686787  -0.877321
N    -0.885900  -0.134322  1.410230
C    -1.874923  -1.171869  1.802869
C    -1.615344  -2.553279  1.210583
O    -1.809507  -2.785665  -0.046686
H    -1.273832  0.798795  1.570180
H    -1.877134  -1.256861  2.897685
C    -3.289238  -0.660561  1.340263
C    -3.124215  0.052538  0.006534
O    -2.639890  -0.604985  -1.004612
O    -3.270587  1.301245  -0.073518
H    -3.679372  0.050535  2.077091
H    -4.002249  -1.493780  1.264501
N    -1.261668  -3.536033  2.002642
C    -1.071171  -4.936095  1.602393
H    -1.110777  -3.312385  2.985410
H    -1.652645  -5.574735  2.277108
H    -0.008778  -5.196581  1.689110
H    -1.406852  -5.073213  0.572491
H    -2.178397  -1.934952  -0.545781
Ca    -1.743100  1.464470  -1.703368
