26
Energy: -37172.8524503 eV PBE+vdW (tier 2 basis)
C    0.620806  0.715193  0.395413
C    0.224527  -0.343874  1.364641
O    0.829977  -1.469148  1.368277
H    1.700251  0.900948  0.470630
H    0.078755  1.655830  0.537031
H    0.430489  0.345204  -0.623234
N    -0.772667  -0.104026  2.223616
C    -1.412815  -1.108819  3.078667
C    -2.938873  -1.254410  2.752731
O    -3.268547  -2.297737  2.205356
H    -1.234786  0.797762  2.127340
H    -1.056969  -2.078813  2.722096
C    -1.061399  -0.997692  4.574380
C    0.206879  -1.725225  4.975527
O    0.681491  -1.584475  6.188499
O    0.828131  -2.489944  4.213587
H    -1.874140  -1.453187  5.168019
H    -0.993302  0.046391  4.912877
N    -3.794161  -0.244301  3.042206
C    -3.597348  0.956109  3.847986
H    -4.754343  -0.460930  2.777294
H    -4.349422  1.697493  3.559346
H    -2.617459  1.420241  3.673458
H    -3.709127  0.760800  4.924650
H    0.149703  -0.988032  6.753559
Ca    1.536050  -3.199284  2.295958
