26
Energy: -37173.631488 eV PBE+vdW (tier 2 basis)
C    -0.621997  0.938559  -0.619035
C    -0.367384  1.463810  0.754278
O    0.449261  2.424037  0.935123
H    -1.088698  1.741223  -1.210013
H    -1.276269  0.060897  -0.637740
H    0.329018  0.697025  -1.110371
N    -1.026181  0.911385  1.781114
C    -1.117841  1.401203  3.173024
C    0.144920  0.985971  3.973427
O    1.281677  1.365755  3.512338
H    -1.637202  0.130531  1.549953
H    -1.088268  2.502724  3.129915
C    -2.510324  0.950409  3.673593
C    -2.911966  1.380911  5.080567
O    -3.939636  2.223314  5.069326
O    -2.366181  0.961286  6.090182
H    -2.569720  -0.149873  3.661294
H    -3.253367  1.335398  2.964846
N    0.031318  0.301894  5.082667
C    1.150682  -0.119402  5.924595
H    -0.923996  0.243887  5.508295
H    2.074721  -0.143504  5.342973
H    0.930859  -1.118163  6.316621
H    1.260586  0.572003  6.770844
H    -4.204176  2.425691  5.992741
Ca    2.176165  2.685031  2.134441
