26
Energy: -37173.7050214 eV PBE+vdW (tier 2 basis)
C    0.873911  -0.639260  0.116970
C    0.215622  -0.341964  1.417290
O    0.874417  0.090625  2.407889
H    0.175183  -0.973685  -0.656693
H    1.641882  -1.410153  0.271894
H    1.398461  0.261971  -0.229557
N    -1.130708  -0.538598  1.532504
C    -1.723938  -0.233612  2.819695
C    -1.626526  -1.388066  3.838019
O    -0.740153  -1.258807  4.740846
H    -1.653482  -0.907192  0.743017
H    -0.957396  0.446750  3.171635
C    -2.919542  0.711219  2.966689
C    -2.561989  1.706785  4.083637
O    -3.575176  2.462161  4.425216
O    -1.431987  1.793591  4.596837
H    -3.879900  0.238510  3.207640
H    -3.080883  1.297555  2.048154
N    -2.400906  -2.456976  3.780311
C    -3.442330  -2.781172  2.806995
H    -2.217308  -3.154621  4.504715
H    -4.380898  -2.997354  3.331134
H    -3.149477  -3.665569  2.227413
H    -3.610575  -1.945147  2.122324
H    -3.323468  3.108705  5.120250
Ca    0.600167  0.493305  4.623177
