26
Energy: -37173.615185 eV PBE+vdW (tier 2 basis)
C    1.094181  0.674892  -0.003504
C    0.671922  0.122432  1.317306
O    1.542510  -0.356685  2.115288
H    1.887785  1.419428  0.139999
H    0.274495  1.122154  -0.574934
H    1.532590  -0.144337  -0.593141
N    -0.630357  0.139678  1.625176
C    -1.357686  -0.508997  2.732321
C    -1.085652  0.106281  4.120210
O    0.103437  0.321136  4.538238
H    -1.232231  0.563070  0.922854
H    -2.413477  -0.313046  2.507618
C    -1.211151  -2.044405  2.751320
C    -2.451540  -2.681008  3.380506
O    -2.332829  -4.007600  3.425739
O    -3.411332  -2.041776  3.770217
H    -0.314636  -2.394219  3.280124
H    -1.123604  -2.418714  1.720922
N    -2.144086  0.338669  4.865345
C    -2.140095  0.842631  6.237016
H    -3.035677  -0.000280  4.491223
H    -1.142990  1.203975  6.496183
H    -2.439557  0.041525  6.925087
H    -2.862703  1.663017  6.314561
H    -3.153547  -4.392310  3.799781
Ca    2.134232  -0.071510  4.117546
