26
Energy: -37173.590061 eV PBE+vdW (tier 2 basis)
C    -0.227796  1.572271  -0.308929
C    0.114297  0.846306  0.941076
O    1.298283  0.741679  1.360494
H    0.101030  0.930783  -1.144667
H    0.336591  2.507842  -0.387156
H    -1.300747  1.747631  -0.437630
N    -0.869059  0.221510  1.673280
C    -2.094948  0.871587  2.141104
C    -1.821183  2.369760  2.452567
O    -0.650382  2.733476  2.772594
H    -0.478850  -0.462161  2.319243
H    -2.886487  0.790731  1.384078
C    -2.595175  0.136041  3.409665
C    -1.615382  0.055723  4.580148
O    -2.040563  -0.448609  5.716397
O    -0.430549  0.411780  4.518590
H    -2.869976  -0.897221  3.135637
H    -3.526280  0.604555  3.761826
N    -2.808678  3.250859  2.392863
C    -4.223092  3.065133  2.055999
H    -2.530075  4.200087  2.649085
H    -4.833181  3.022964  2.967825
H    -4.379103  2.155241  1.469874
H    -4.552941  3.919556  1.455486
H    -2.977275  -0.729996  5.707298
Ca    1.152521  1.615473  3.422254
