26
Energy: -37173.5023108 eV PBE+vdW (tier 2 basis)
C    -0.240364  -0.875418  -0.138501
C    -0.716832  -0.570148  1.237235
O    -0.667260  -1.459227  2.147328
H    -1.024396  -1.482420  -0.620108
H    0.672503  -1.479916  -0.102566
H    -0.075435  0.018194  -0.749728
N    -1.202831  0.654161  1.488005
C    -2.058304  1.094361  2.610167
C    -1.278430  1.238310  3.931192
O    -0.810471  0.215936  4.529296
H    -1.216763  1.275483  0.683297
H    -2.390116  2.097754  2.312111
C    -3.329821  0.239484  2.831532
C    -4.074861  -0.045732  1.525946
O    -5.290980  0.513724  1.529738
O    -3.595745  -0.700267  0.623805
H    -3.980063  0.764342  3.541838
H    -3.080227  -0.738271  3.263468
N    -1.156334  2.453168  4.433274
C    -0.503365  2.797244  5.698394
H    -1.546356  3.225970  3.897527
H    0.453545  3.295983  5.498772
H    -0.333318  1.888530  6.279419
H    -1.152255  3.479438  6.258703
H    -5.749098  0.284117  0.693316
Ca    -0.334422  -1.833800  4.177541
