26
Energy: -37172.8734655 eV PBE+vdW (tier 2 basis)
C    0.229091  0.834670  0.336185
C    0.094237  0.364654  1.743560
O    1.088424  -0.180179  2.334722
H    1.085143  1.517223  0.253442
H    -0.669789  1.333238  -0.040956
H    0.450452  -0.032780  -0.303323
N    -1.076793  0.513044  2.372266
C    -1.416064  -0.070556  3.672530
C    -2.652370  -1.034035  3.698631
O    -2.483618  -2.067921  4.330970
H    -1.825227  0.940634  1.831070
H    -0.618921  -0.783082  3.900388
C    -1.492890  0.945427  4.829033
C    -0.159678  1.320481  5.439401
O    -0.084970  2.319749  6.282885
O    0.894601  0.696866  5.210565
H    -2.077599  0.489493  5.648959
H    -2.033017  1.859930  4.542092
N    -3.814027  -0.692125  3.096943
C    -4.184394  0.525678  2.387238
H    -4.526727  -1.415664  3.178899
H    -5.273119  0.635510  2.425642
H    -3.902146  0.497436  1.322067
H    -3.770976  1.423506  2.867046
H    -0.942585  2.762337  6.445931
Ca    2.253158  -0.502715  4.039849
