26
Energy: -37173.53158 eV PBE+vdW (tier 2 basis)
C    0.685091  -0.379963  -0.071183
C    0.121300  -0.236117  1.297968
O    0.841247  0.116255  2.276031
H    1.163526  0.566335  -0.359288
H    -0.063116  -0.653019  -0.822385
H    1.478192  -1.140804  -0.054107
N    -1.208871  -0.489207  1.489411
C    -1.706243  -0.342436  2.842521
C    -1.499577  -1.592150  3.723428
O    -0.544726  -1.528466  4.559086
H    -1.774965  -0.808359  0.708423
H    -0.926096  0.314247  3.207498
C    -2.899328  0.557920  3.186209
C    -2.447370  1.461632  4.361081
O    -3.326556  2.238119  4.946149
O    -1.276214  1.488106  4.765401
H    -3.816885  0.023343  3.467557
H    -3.152476  1.214407  2.338329
N    -2.250389  -2.674835  3.613975
C    -3.355969  -2.930807  2.693110
H    -1.989979  -3.438223  4.242102
H    -3.085927  -3.735671  1.997946
H    -3.600961  -2.032356  2.119219
H    -4.243683  -3.237390  3.259123
H    -4.225320  2.173947  4.566022
Ca    0.744294  0.277490  4.546374
