26
Energy: -37173.8225744 eV PBE+vdW (tier 2 basis)
C    0.156314  -0.328671  0.172237
C    0.068830  -0.133687  1.646739
O    1.105000  0.172206  2.324808
H    0.925239  -1.078357  -0.056516
H    0.487233  0.615684  -0.284615
H    -0.793081  -0.629778  -0.282060
N    -1.116515  -0.269384  2.252894
C    -1.360130  0.002943  3.679139
C    -0.769095  -1.135149  4.551917
O    0.438364  -0.988978  4.964128
H    -1.902180  -0.587850  1.688862
H    -0.746081  0.878466  3.933875
C    -2.814458  0.439542  3.932376
C    -3.906778  -0.519514  3.485828
O    -5.059728  0.109639  3.306719
O    -3.737476  -1.723025  3.320553
H    -2.981712  1.414864  3.455354
H    -2.952234  0.613673  5.011377
N    -1.490804  -2.195936  4.810979
C    -1.064427  -3.341573  5.612008
H    -2.418347  -2.225783  4.336140
H    -0.823160  -4.187725  4.955124
H    -1.889496  -3.635200  6.269986
H    -0.190735  -3.075728  6.211713
H    -5.758795  -0.539404  3.076250
Ca    2.191252  -0.151274  4.120186
