26
Energy: -37173.406976 eV PBE+vdW (tier 2 basis)
C    -0.573358  -3.649789  0.889295
C    -0.490158  -2.169110  0.999754
O    0.597961  -1.545912  0.830404
H    -1.588742  -4.042852  0.994594
H    0.092795  -4.122839  1.623610
H    -0.191044  -3.929344  -0.104429
N    -1.602412  -1.427442  1.277981
C    -2.575722  -1.748215  2.350679
C    -3.411000  -0.492424  2.570282
O    -2.836366  0.573932  3.035477
H    -1.406646  -0.430300  1.186416
H    -3.226714  -2.574485  2.038004
C    -1.860078  -2.142219  3.694115
C    -0.509713  -1.447476  3.775331
O    -0.442806  -0.169584  3.551433
O    0.549711  -2.123334  3.868167
H    -1.699231  -3.224589  3.729379
H    -2.485199  -1.877924  4.559928
N    -4.692485  -0.480788  2.312641
C    -5.601745  0.654082  2.525368
H    -5.096713  -1.327377  1.914635
H    -6.490104  0.293478  3.055702
H    -5.901751  1.062517  1.552134
H    -5.097454  1.424060  3.112974
H    -1.842122  0.385581  3.296092
Ca    1.661095  -0.673648  2.581032
