26
Energy: -37173.753026 eV PBE+vdW (tier 2 basis)
C    -2.038573  -2.963563  0.006773
C    -1.638195  -1.982470  1.050436
O    -0.468714  -1.497862  1.088452
H    -3.087366  -3.269266  0.078293
H    -1.394762  -3.851067  0.083547
H    -1.852365  -2.524621  -0.983226
N    -2.559950  -1.597191  1.980272
C    -2.117881  -0.638855  2.974207
C    -1.407812  -1.287290  4.181342
O    -0.139682  -1.238744  4.192149
H    -3.493329  -1.998996  1.961167
H    -1.298566  -0.208315  2.409404
C    -2.880890  0.655916  3.255729
C    -1.823971  1.773273  3.312625
O    -2.315084  2.909080  3.739922
O    -0.636720  1.617038  2.974476
H    -3.476764  0.676706  4.177057
H    -3.568322  0.902338  2.430785
N    -2.101601  -1.869890  5.142335
C    -1.490600  -2.536236  6.301678
H    -3.116091  -1.869672  5.077847
H    -0.884329  -3.387965  5.971704
H    -2.290398  -2.888833  6.957254
H    -0.853139  -1.831234  6.847110
H    -1.634653  3.617275  3.740667
Ca    0.827754  -0.252554  2.464994
