26
Energy: -37172.9806184 eV PBE+vdW (tier 2 basis)
C    0.002692  -0.661899  -0.161624
C    -0.382325  -0.674560  1.286269
O    -0.294218  -1.652298  2.031498
H    -0.297281  -1.608626  -0.623995
H    1.098502  -0.601629  -0.232417
H    -0.427088  0.178181  -0.718994
N    -0.876747  0.495879  1.837203
C    -1.037914  0.480451  3.272701
C    -1.889939  -0.715265  3.750682
O    -1.523124  -1.301985  4.835397
H    -0.878577  1.367201  1.316433
H    -0.052650  0.280199  3.730407
C    -1.537435  1.838536  3.805920
C    -1.312148  2.055886  5.291074
O    -1.699382  3.183013  5.838112
O    -0.764196  1.225428  6.037382
H    -2.605036  2.004375  3.590229
H    -0.992809  2.646428  3.286889
N    -3.037881  -1.072079  3.202240
C    -3.693971  -0.609948  1.976775
H    -3.455778  -1.892315  3.643022
H    -4.765702  -0.808127  2.075998
H    -3.310554  -1.157788  1.106011
H    -3.548105  0.461164  1.823095
H    -2.108098  3.811775  5.209563
Ca    -0.419290  -0.875102  6.539858
