26
Energy: -37172.8040568 eV PBE+vdW (tier 2 basis)
C    -0.178725  0.787241  0.027402
C    -0.201482  0.842709  1.514493
O    0.664849  1.524420  2.155313
H    -0.444700  1.763362  -0.405112
H    -0.825907  0.011330  -0.390719
H    0.860065  0.592456  -0.277433
N    -1.137927  0.167050  2.223007
C    -2.564365  0.230119  1.906737
C    -3.038762  1.690569  2.222311
O    -2.208419  2.533301  2.720263
H    -0.932617  0.114042  3.222747
H    -2.695973  0.064186  0.828166
C    -3.308650  -0.872051  2.688887
C    -4.702615  -1.290101  2.231548
O    -5.136269  -0.584890  1.126255
O    -5.339233  -2.150338  2.765334
H    -3.385245  -0.625924  3.758560
H    -2.703426  -1.788866  2.628086
N    -4.283449  1.998913  1.948071
C    -4.931762  3.290380  2.177389
H    -4.848142  1.244598  1.530688
H    -5.153580  3.767508  1.214378
H    -4.279870  3.935881  2.769108
H    -5.872452  3.125750  2.715256
H    -6.001305  -0.965723  0.863094
Ca    -0.225139  3.184755  3.203152
