26
Energy: -37173.3027105 eV PBE+vdW (tier 2 basis)
C    0.176155  -0.253610  0.173618
C    -0.562982  0.628876  1.124307
O    -0.610419  1.861561  1.001919
H    -0.143724  -0.029980  -0.851969
H    0.053825  -1.322278  0.379545
H    1.245233  -0.002623  0.231243
N    -1.201380  0.020070  2.202612
C    -1.946391  0.908105  3.064967
C    -2.251284  0.415012  4.475715
O    -3.073918  1.099919  5.177327
H    -1.499171  -0.945838  2.077965
H    -1.244731  1.743179  3.245696
C    -3.220402  1.519982  2.381737
C    -3.159709  3.010818  2.591554
O    -2.275745  3.688472  1.940249
O    -3.870207  3.571933  3.471200
H    -4.149636  1.101911  2.782275
H    -3.184887  1.295996  1.309882
N    -1.615677  -0.636194  4.948320
C    -1.727483  -1.177396  6.305154
H    -0.926838  -1.064092  4.329890
H    -1.796235  -2.268943  6.246960
H    -2.623862  -0.778717  6.784742
H    -0.839695  -0.904120  6.889737
H    -1.644571  3.056571  1.433563
Ca    -4.255915  2.872348  5.448243
