26
Energy: -37173.7599705 eV PBE+vdW (tier 2 basis)
C    0.515999  -0.516478  0.074423
C    0.057753  -0.191023  1.451468
O    -0.015002  1.005864  1.858596
H    1.541074  -0.142937  -0.059404
H    -0.112549  0.024582  -0.646335
H    0.488718  -1.587664  -0.150037
N    -0.295381  -1.211622  2.286110
C    -0.735017  -0.840114  3.616623
C    0.425547  -0.642230  4.616462
O    0.765927  0.556437  4.857982
H    -0.221745  -2.173103  1.965014
H    -1.042774  0.174819  3.391887
C    -2.057062  -1.333445  4.205698
C    -2.731484  -0.102889  4.837887
O    -3.781992  -0.416914  5.553272
O    -2.330653  1.063452  4.673446
H    -1.986255  -2.130602  4.956622
H    -2.732320  -1.703029  3.417481
N    1.017267  -1.689144  5.164328
C    2.148482  -1.629362  6.096633
H    0.671535  -2.614456  4.919482
H    2.409030  -0.583851  6.274433
H    3.006535  -2.157957  5.664748
H    1.868241  -2.108568  7.041956
H    -4.216706  0.382336  5.923089
Ca    -0.342170  2.141900  3.790138
