26
Energy: -37172.832365 eV PBE+vdW (tier 2 basis)
C    -0.416926  -0.386939  -0.011295
C    -0.289891  -0.298164  1.478193
O    0.790965  -0.217397  2.070101
H    -0.084480  0.568714  -0.441214
H    -1.436190  -0.591581  -0.357289
H    0.265306  -1.158529  -0.386970
N    -1.464587  -0.293488  2.214971
C    -1.386365  0.011376  3.634225
C    -0.997925  -1.258021  4.441382
O    -1.869672  -1.957840  5.090232
H    -2.362797  -0.403304  1.755712
H    -0.538271  0.705796  3.742924
C    -2.629034  0.765430  4.172941
C    -3.750694  -0.159894  4.517871
O    -4.248109  -0.186081  5.779760
O    -4.208644  -1.032137  3.769983
H    -2.972408  1.463865  3.393347
H    -2.343594  1.373983  5.040580
N    0.268416  -1.581448  4.373473
C    0.904520  -2.747757  4.976909
H    0.806876  -1.003234  3.687660
H    1.871385  -2.441673  5.391076
H    1.081056  -3.515455  4.211714
H    0.276104  -3.152842  5.773829
H    -3.875848  0.503392  6.366803
Ca    -3.819536  -2.723440  5.225943
