26
Energy: -37173.1813869 eV PBE+vdW (tier 2 basis)
C    0.773837  -0.701342  0.254514
C    0.453498  -0.543669  1.700840
O    1.367199  -0.633964  2.590282
H    1.219794  -1.693354  0.093964
H    1.529055  0.041017  -0.038463
H    -0.101276  -0.595180  -0.394922
N    -0.810540  -0.303448  2.070976
C    -1.177405  -0.148937  3.478453
C    -2.657483  -0.252695  3.933140
O    -2.889288  0.228913  5.062623
H    -1.502888  -0.166152  1.339746
H    -0.695501  -0.996822  3.995121
C    -0.600651  1.188060  4.052853
C    0.024519  0.867300  5.390016
O    -0.747831  0.625383  6.384796
O    1.278126  0.723179  5.484424
H    -1.398848  1.931461  4.161289
H    0.160598  1.595200  3.382223
N    -3.620046  -0.854249  3.231545
C    -3.584087  -1.575211  1.958005
H    -4.517326  -0.834535  3.717961
H    -4.472278  -2.212353  1.910013
H    -2.709564  -2.231669  1.890447
H    -3.629207  -0.892059  1.096967
H    -1.726983  0.575173  6.008653
Ca    2.692619  -0.243991  4.224239
