26
Energy: -37173.2508944 eV PBE+vdW (tier 2 basis)
C    2.687686  0.228031  3.551566
C    1.455400  -0.573664  3.822393
O    1.505288  -1.846649  3.793066
H    3.178276  -0.125763  2.636521
H    3.393580  0.049222  4.377331
H    2.504938  1.304930  3.475662
N    0.326776  0.091085  4.095524
C    -0.953222  -0.350316  4.683916
C    -1.723603  -1.390916  3.835967
O    -1.172498  -1.977114  2.844138
H    0.416744  1.102109  4.033954
H    -0.727048  -0.853730  5.640825
C    -1.756527  0.929939  4.977529
C    -2.383813  1.483560  3.703842
O    -2.917685  2.688399  3.903566
O    -2.385984  0.863210  2.656249
H    -1.107991  1.682058  5.450468
H    -2.546969  0.758038  5.716577
N    -2.920366  -1.814307  4.220526
C    -3.765413  -1.451705  5.362534
H    -3.326747  -2.487439  3.571375
H    -4.445820  -2.288597  5.547497
H    -4.368862  -0.560772  5.146998
H    -3.168629  -1.301069  6.267951
H    -3.331052  3.003791  3.072532
Ca    0.525540  -3.146333  2.438493
