26
Energy: -37173.3266176 eV PBE+vdW (tier 2 basis)
C    -1.003822  -2.726876  0.308834
C    -0.566637  -1.448054  0.936908
O    0.623816  -1.071519  0.910949
H    -0.483642  -2.830237  -0.652616
H    -2.083700  -2.796214  0.144244
H    -0.676030  -3.572266  0.933590
N    -1.504919  -0.629609  1.560544
C    -2.423569  -1.206527  2.563494
C    -3.825362  -0.641714  2.332787
O    -4.069028  -0.020039  1.212431
H    -1.055555  0.228959  1.899355
H    -2.489472  -2.287621  2.369361
C    -1.870268  -0.992960  4.009721
C    -0.346656  -1.074706  3.914364
O    0.309757  0.020321  3.860647
O    0.212670  -2.198832  3.704141
H    -2.244994  -1.776469  4.680976
H    -2.147549  -0.005588  4.398131
N    -4.792024  -0.788226  3.194308
C    -6.181285  -0.326903  3.030570
H    -4.575545  -1.283333  4.058456
H    -6.838585  -1.200658  2.942338
H    -6.262629  0.293442  2.135904
H    -6.462383  0.251970  3.917404
H    -3.228743  0.027433  0.693660
Ca    1.933155  -1.057773  2.773498
