26
Energy: -37173.1674529 eV PBE+vdW (tier 2 basis)
C    -0.024432  -0.263709  0.219012
C    -0.160984  -0.172315  1.708580
O    0.759019  -0.255386  2.513301
H    0.774187  -0.971110  -0.027426
H    0.281358  0.719957  -0.167727
H    -0.952723  -0.557796  -0.284678
N    -1.457042  0.017221  2.219264
C    -1.514832  0.364458  3.623164
C    -1.129046  -0.848689  4.497954
O    -0.592187  -0.648465  5.642571
H    -2.205832  0.302292  1.593852
H    -0.726263  1.109714  3.827908
C    -2.882130  0.974025  3.993946
C    -2.910325  1.758870  5.290532
O    -4.024349  2.340840  5.662577
O    -1.924394  1.900456  6.036964
H    -3.676501  0.210610  4.035099
H    -3.178818  1.679066  3.198045
N    -1.402228  -2.051361  4.049677
C    -1.074724  -3.315624  4.706750
H    -1.763033  -2.083978  3.094665
H    -1.928503  -3.996231  4.620332
H    -0.851701  -3.134761  5.760438
H    -0.201903  -3.768892  4.219046
H    -4.766856  2.217836  5.037065
Ca    -0.150580  0.972099  6.885883
