26
Energy: -37173.0160546 eV PBE+vdW (tier 2 basis)
C    -0.583457  0.886073  0.036975
C    -0.527969  0.322496  1.415906
O    0.471786  -0.387589  1.781602
H    0.313580  1.491351  -0.150777
H    -1.473497  1.497419  -0.144344
H    -0.564254  0.057289  -0.685632
N    -1.536134  0.556679  2.255642
C    -1.696545  -0.000465  3.603045
C    -3.210026  -0.342591  3.880134
O    -3.744545  0.132432  4.874713
H    -2.303355  1.125781  1.900259
H    -1.124410  -0.938349  3.637454
C    -1.236241  0.945207  4.721903
C    0.155607  0.777634  5.242196
O    0.546781  1.479131  6.277237
O    1.003762  -0.000908  4.747635
H    -1.972285  0.810541  5.544363
H    -1.364340  1.999670  4.427053
N    -3.844642  -1.147379  2.999957
C    -3.310082  -1.918506  1.882685
H    -4.823731  -1.297084  3.238932
H    -3.345148  -1.362276  0.935121
H    -3.915691  -2.822953  1.764585
H    -2.280135  -2.243507  2.076663
H    -0.161510  2.039160  6.656540
Ca    1.987071  -0.953938  3.113617
