26
Energy: -37173.323625 eV PBE+vdW (tier 2 basis)
C    1.041153  0.072895  0.303308
C    0.341805  -0.522833  1.477458
O    0.862373  -1.529479  2.085191
H    2.065691  0.351713  0.583316
H    0.523071  0.947442  -0.101815
H    1.121850  -0.692449  -0.482445
N    -0.810370  -0.001801  1.868186
C    -1.786279  -0.508681  2.828442
C    -3.154594  -0.065174  2.183858
O    -3.122308  0.891084  1.410443
H    -1.268411  0.737056  1.296980
H    -1.711028  -1.601951  2.907129
C    -1.685951  0.161718  4.216628
C    -0.550275  -0.258898  5.116271
O    -0.274137  0.453797  6.182684
O    0.137187  -1.281483  4.931326
H    -2.612326  -0.047909  4.781708
H    -1.665002  1.256225  4.092144
N    -4.250800  -0.731026  2.572131
C    -5.596702  -0.398536  2.093439
H    -4.148060  -1.564669  3.142084
H    -5.566046  0.591553  1.631337
H    -6.294456  -0.390105  2.937669
H    -5.932058  -1.132702  1.350556
H    -0.845762  1.241583  6.287329
Ca    1.438423  -2.558536  3.779253
