26
Energy: -37174.3732307 eV PBE+vdW (tier 2 basis)
C    0.467070  -2.447754  1.620108
C    0.200653  -1.078835  2.161496
O    1.132072  -0.404050  2.664754
H    1.226706  -2.372662  0.829764
H    -0.419255  -2.949883  1.219191
H    0.901378  -3.064196  2.418927
N    -1.070570  -0.621305  2.074210
C    -1.694749  0.656954  2.476295
C    -0.968548  1.915361  1.939226
O    0.139414  2.316397  2.384667
H    -1.715012  -1.268032  1.627638
H    -2.654438  0.631728  1.942743
C    -2.149259  0.731724  3.961659
C    -1.165415  0.763989  5.119948
O    -1.648942  0.558804  6.329154
O    0.039994  1.002429  5.027179
H    -2.833842  -0.114799  4.126959
H    -2.774951  1.635023  4.072808
N    -1.600226  2.584315  0.981692
C    -1.077034  3.808690  0.367250
H    -2.485052  2.228154  0.632352
H    -0.234524  3.574370  -0.295591
H    -0.741384  4.502273  1.145577
H    -1.877376  4.271963  -0.215490
H    -2.608107  0.373042  6.350053
Ca    1.696397  1.434301  3.639431
