26
Energy: -37173.4588399 eV PBE+vdW (tier 2 basis)
C    -2.206797  -2.045778  1.294510
C    -1.036904  -1.508185  2.060828
O    0.105187  -1.904273  1.993619
H    -3.168227  -1.926012  1.811071
H    -2.033426  -3.098004  1.046705
H    -2.278137  -1.495353  0.342223
N    -1.326733  -0.417986  2.984220
C    -0.130596  0.432934  3.254261
C    0.846375  -0.374203  4.120164
O    0.372966  -1.114788  5.044444
H    -2.125556  0.139504  2.666460
H    0.360660  0.664009  2.298737
C    -0.506510  1.785639  3.892818
C    -1.318256  1.789702  5.170058
O    -1.380860  2.981054  5.709484
O    -1.901422  0.801802  5.655600
H    -1.077067  2.388531  3.165078
H    0.403234  2.376627  4.074041
N    2.147676  -0.251079  3.951209
C    2.857655  0.456020  2.877926
H    2.710372  -0.812453  4.591382
H    2.613988  1.524754  2.869270
H    2.630719  0.002880  1.904246
H    3.930329  0.358604  3.064596
H    -1.943453  2.984797  6.514831
Ca    -1.712215  -1.386744  5.360219
