26
Energy: -37173.3552085 eV PBE+vdW (tier 2 basis)
C    0.862346  -0.966940  1.299102
C    0.089927  0.271789  1.592179
O    0.680814  1.389098  1.775154
H    1.548512  -1.163457  2.135784
H    1.483162  -0.812378  0.405947
H    0.227294  -1.845921  1.147659
N    -1.249100  0.213452  1.665869
C    -2.040501  1.408544  1.944097
C    -3.495790  1.248560  2.440737
O    -4.212027  2.267270  2.359627
H    -1.704168  -0.650276  1.376591
H    -1.527883  1.893055  2.791965
C    -2.047393  2.392610  0.729331
C    -1.817532  3.770044  1.302568
O    -2.776588  4.335961  1.938698
O    -0.660350  4.282265  1.267889
H    -3.004438  2.338306  0.197351
H    -1.245884  2.147367  0.027004
N    -3.912707  0.092167  2.953022
C    -5.264530  -0.098770  3.496511
H    -3.247222  -0.661340  3.093355
H    -5.576625  -1.131082  3.311831
H    -5.948810  0.590909  2.995502
H    -5.275430  0.101805  4.575288
H    -3.539508  3.621122  2.055954
Ca    1.264223  3.448932  1.631943
