26
Energy: -37173.4890846 eV PBE+vdW (tier 2 basis)
C    0.915177  -0.654848  -0.199497
C    0.503027  -0.501955  1.224114
O    1.366548  -0.543729  2.158138
H    1.466699  -1.596474  -0.323012
H    1.613774  0.156926  -0.449854
H    0.074844  -0.631324  -0.900756
N    -0.793392  -0.305444  1.510318
C    -1.303455  0.004145  2.853398
C    -1.322166  -1.269291  3.739167
O    -0.256403  -1.513499  4.405891
H    -1.443450  -0.266891  0.728503
H    -0.541620  0.627031  3.341886
C    -2.573168  0.857567  2.786482
C    -3.042947  1.146941  4.204431
O    -4.088868  1.971347  4.222380
O    -2.498784  0.658036  5.179054
H    -3.390674  0.400966  2.213178
H    -2.343846  1.808410  2.283254
N    -2.303148  -2.151993  3.765512
C    -3.607105  -2.151995  3.097783
H    -2.135332  -2.921693  4.414703
H    -4.324836  -1.516740  3.632191
H    -3.984260  -3.178801  3.104480
H    -3.519100  -1.836092  2.054053
H    -4.353006  2.140534  5.151137
Ca    1.806492  -1.131135  4.159064
