18
Energy: -236054.376455 eV PBE+vdW (tier 2 basis)
N    0.425873  0.012332  0.097018
C    0.200835  0.065945  1.584766
C    1.492730  0.345650  2.313252
O    2.607841  0.329600  1.747714
H    -0.215154  0.688798  -0.324870
H    -0.508885  0.869223  1.827560
C    -0.392451  -1.316137  1.999509
C    -0.996483  -1.844789  0.695189
C    -0.003357  -1.359843  -0.357818
H    -1.119664  -1.205190  2.809805
H    0.402265  -1.986343  2.358660
H    -1.984694  -1.401245  0.508261
H    -1.113987  -2.934280  0.698561
H    -0.408639  -1.309247  -1.375457
H    0.878783  -2.032354  -0.373721
O    1.338548  0.571321  3.590420
H    2.197998  0.713672  4.044388
Ba    3.036441  0.199885  -0.689237
