18
Energy: -236054.333959 eV PBE+vdW (tier 2 basis)
N    0.133634  0.311955  0.200911
C    0.102366  0.140217  1.690886
C    1.519675  0.094270  2.236374
O    2.530773  0.204301  1.510660
H    -0.565923  1.017808  -0.038088
H    -0.388245  1.002480  2.166458
C    -0.684249  -1.166343  1.947256
C    -0.321773  -2.020882  0.729510
C    -0.298083  -1.006083  -0.417440
H    -1.756473  -0.931032  1.962835
H    -0.434579  -1.633071  2.905705
H    -1.044719  -2.822744  0.544674
H    0.660495  -2.498642  0.862087
H    -1.282742  -0.886550  -0.886268
H    0.393849  -1.311741  -1.227717
O    1.582328  -0.063027  3.531338
H    2.509925  -0.076552  3.854342
Ba    2.585742  0.715635  -0.915525
