18
Energy: -236055.060083 eV PBE+vdW (tier 2 basis)
N    -0.280188  0.255420  -0.007346
C    0.098550  0.023159  1.453365
C    1.599499  -0.271282  1.516565
O    2.125804  -0.475784  2.653353
H    -0.601722  1.214926  -0.176481
H    -0.088069  0.939332  2.027709
C    -0.799959  -1.147118  1.910749
C    -1.133066  -1.893903  0.611931
C    -1.346068  -0.771651  -0.394218
H    -1.709127  -0.744430  2.374955
H    -0.296543  -1.765167  2.661217
H    -2.028359  -2.517946  0.706614
H    -0.307523  -2.548641  0.297633
H    -2.320054  -0.284160  -0.269936
H    -1.209132  -1.041921  -1.445887
O    2.278725  -0.292480  0.431823
H    0.595382  0.118002  -0.548381
Ba    4.451851  -0.703354  1.788339
