18
Energy: -236054.224576 eV PBE+vdW (tier 2 basis)
N    0.288204  -0.006986  -0.047311
C    0.143036  0.058839  1.449090
C    1.501547  0.209445  2.106201
O    2.555516  0.128703  1.446768
H    -0.354835  0.686295  -0.438123
H    -0.471312  0.932541  1.713776
C    -0.560646  -1.264144  1.896396
C    -1.213228  -1.777289  0.607258
C    -0.209925  -1.364922  -0.466494
H    -1.284846  -1.085022  2.698644
H    0.178729  -1.987629  2.269271
H    -2.177868  -1.282143  0.427801
H    -1.391454  -2.858233  0.632189
H    -0.627880  -1.315707  -1.479136
H    0.639239  -2.076244  -0.477263
O    1.599279  0.396690  3.397391
H    0.737723  0.450211  3.858728
Ba    2.893723  0.105596  -0.974185
