34
Energy: -172327.612172 eV PBE+vdW (tier 2 basis)
C    1.063985  2.834730  0.985473
C    0.788992  1.835881  2.055138
O    1.588250  1.731430  3.038412
H    0.854139  3.849222  1.357304
H    0.499957  2.647185  0.067249
H    2.140658  2.808644  0.767376
N    -0.295393  1.021111  1.994535
C    -1.661000  1.448389  1.688971
C    -2.157385  2.285510  2.893713
O    -1.653290  2.165186  4.056636
H    -0.250031  0.227400  2.636551
H    -1.640704  2.081995  0.791021
C    -2.525121  0.185221  1.443734
C    -3.938106  0.377168  0.877886
C    -3.997281  0.933359  -0.552877
C    -5.409073  0.856511  -1.168755
N    -5.841643  -0.490438  -1.404388
H    -2.594271  -0.369805  2.393419
H    -1.944118  -0.445136  0.753306
H    -4.556821  0.987492  1.555469
H    -4.412311  -0.615329  0.882662
H    -3.295281  0.382474  -1.199849
H    -3.682206  1.988527  -0.599909
H    -5.394445  1.431767  -2.119670
H    -6.149969  1.348789  -0.523499
H    -6.836857  -0.694605  -1.391792
H    -5.307261  -1.069744  -2.047660
N    -3.163436  3.124216  2.696574
C    -3.772385  3.945336  3.749074
H    -3.562030  3.178194  1.763640
H    -2.994850  4.487942  4.297544
H    -4.332207  3.316406  4.452064
H    -4.451267  4.661371  3.279156
Cd    0.369016  1.707088  4.896841
