34
Energy: -172327.415028 eV PBE+vdW (tier 2 basis)
C    -0.333638  0.701236  0.249459
C    -0.239310  0.359107  1.697307
O    0.889716  0.487462  2.272402
H    -1.321460  1.061114  -0.046078
H    -0.067085  -0.178840  -0.356460
H    0.423389  1.466265  0.037653
N    -1.305950  -0.029598  2.448094
C    -2.297121  -1.080742  2.164531
C    -1.578120  -2.438854  2.375590
O    -0.310320  -2.521476  2.285123
H    -1.093224  0.035587  3.444851
H    -3.056045  -0.972585  2.954703
C    -3.023631  -0.991104  0.807416
C    -3.900926  0.267076  0.695820
C    -4.477523  0.531748  -0.702431
C    -5.562898  -0.465955  -1.153204
N    -6.155898  -0.084178  -2.395615
H    -3.642897  -1.893567  0.713237
H    -2.299664  -1.049913  -0.016634
H    -3.313943  1.150061  0.988712
H    -4.718730  0.205848  1.432041
H    -3.677304  0.541349  -1.458567
H    -4.913213  1.542078  -0.702185
H    -6.337773  -0.516898  -0.353773
H    -5.169358  -1.486086  -1.266046
H    -6.540962  -0.787281  -3.018107
H    -6.528353  0.854457  -2.512056
N    -2.280423  -3.534268  2.637651
C    -3.727358  -3.711428  2.760609
H    -1.710151  -4.375299  2.739877
H    -4.217683  -2.772098  3.032859
H    -3.919825  -4.441742  3.553810
H    -4.155402  -4.092256  1.823978
Cd    1.488124  -1.467172  3.121575
