34
Energy: -172328.262707 eV PBE+vdW (tier 2 basis)
C    -0.927786  1.961078  1.174432
C    -0.884695  0.502411  1.503110
O    0.174376  -0.143127  1.244586
H    -0.120630  2.465407  1.724191
H    -1.882748  2.434581  1.426024
H    -0.717779  2.097351  0.105664
N    -1.971343  -0.046728  2.079206
C    -2.070035  -1.380926  2.693127
C    -2.451373  -2.420697  1.617176
O    -1.561168  -2.970508  0.893724
H    -2.762068  0.576686  2.224070
H    -1.057958  -1.659663  3.028083
C    -2.973469  -1.316401  3.936667
C    -2.954969  -2.588292  4.798998
C    -3.806691  -2.428468  6.065469
C    -3.746230  -3.698700  6.970856
N    -4.509625  -3.585450  8.169412
H    -4.008168  -1.055292  3.650318
H    -2.616844  -0.467370  4.539331
H    -1.914207  -2.813299  5.082825
H    -3.311151  -3.455839  4.220886
H    -4.857876  -2.235115  5.804215
H    -3.458405  -1.565761  6.652351
H    -2.695465  -3.889871  7.237763
H    -4.113286  -4.563878  6.398971
H    -4.135405  -3.121899  8.989818
H    -5.496502  -3.816122  8.190710
N    -3.724326  -2.722753  1.426458
C    -4.199152  -3.652997  0.395698
H    -4.412325  -2.301749  2.043795
H    -3.817050  -3.352462  -0.586225
H    -5.291587  -3.629175  0.386068
H    -3.856078  -4.671563  0.614275
Cd    0.504015  -2.241411  0.729947
