34
Energy: -172327.171255 eV PBE+vdW (tier 2 basis)
C    1.370435  2.414632  0.700341
C    1.412149  1.002635  1.185961
O    2.473937  0.289790  1.088438
H    0.365582  2.736125  0.410395
H    2.017254  2.511422  -0.179990
H    1.750396  3.073399  1.497759
N    0.372530  0.380263  1.762639
C    -1.055366  0.735247  1.889588
C    -1.739324  0.802405  0.492638
O    -1.412669  1.686536  -0.302259
H    0.605604  -0.571322  2.046013
H    -1.476158  -0.118178  2.438718
C    -1.302587  2.025464  2.697392
C    -2.781741  2.355614  2.955032
C    -3.512150  1.400782  3.911196
C    -4.952078  1.865362  4.220341
N    -5.016578  3.051242  5.007535
H    -0.863681  2.875104  2.160249
H    -0.761614  1.930379  3.650924
H    -3.323648  2.419097  1.998179
H    -2.815713  3.369739  3.379880
H    -2.954688  1.299644  4.856247
H    -3.593919  0.386968  3.491871
H    -5.452288  1.030146  4.764726
H    -5.534658  2.021635  3.302116
H    -5.784261  3.706634  4.890946
H    -4.527067  3.101158  5.897906
N    -2.691393  -0.115168  0.251730
C    -3.419514  -0.181198  -1.015561
H    -2.829623  -0.864298  0.921651
H    -2.894938  -0.818582  -1.739506
H    -3.501275  0.828363  -1.430411
H    -4.417910  -0.590662  -0.833174
Cd    4.545952  0.947564  0.826735
