34
Energy: -172328.253976 eV PBE+vdW (tier 2 basis)
C    -0.666942  1.635888  -0.794802
C    -0.827222  1.585222  0.689472
O    -0.023162  0.822448  1.333349
H    -1.375681  2.311118  -1.285668
H    -0.811365  0.619069  -1.189797
H    0.361649  1.926756  -1.044734
N    -1.798976  2.320122  1.250187
C    -2.472930  2.246556  2.569917
C    -1.796861  2.964700  3.743774
O    -0.532013  2.920226  4.025030
H    -2.290811  2.906956  0.580943
H    -3.386846  2.827835  2.398728
C    -2.942015  0.827710  2.978248
C    -4.228374  0.388560  2.260728
C    -5.437715  1.338714  2.370176
C    -5.855908  1.788054  3.780282
N    -5.345961  3.143392  4.141269
H    -3.113230  0.841200  4.064753
H    -2.155031  0.079587  2.800861
H    -4.504708  -0.591790  2.674754
H    -4.022560  0.207681  1.194778
H    -6.285443  0.812889  1.910553
H    -5.303067  2.230770  1.733492
H    -5.501032  1.081769  4.544328
H    -6.954539  1.783819  3.848204
H    -5.758296  3.837472  3.509854
H    -5.700795  3.390207  5.070378
N    -2.615955  3.617336  4.528420
C    -2.217193  4.264435  5.777614
H    -3.673045  3.524115  4.311246
H    -1.756082  5.238479  5.569060
H    -1.499241  3.646025  6.327745
H    -3.113572  4.421820  6.384427
Cd    0.629728  1.345447  3.272511
