34
Energy: -172327.221377 eV PBE+vdW (tier 2 basis)
C    0.712670  1.159073  0.884635
C    0.156870  1.068822  2.273639
O    0.607050  1.953492  3.096618
H    0.703956  2.205663  0.559318
H    0.158781  0.543602  0.169543
H    1.762335  0.833596  0.905006
N    -0.712338  0.146534  2.629874
C    -1.363570  -0.919587  1.856956
C    -2.626134  -1.203737  2.721398
O    -2.591055  -0.908974  3.922816
H    -1.104531  0.110282  3.592993
H    -1.647873  -0.541082  0.865014
C    -0.430439  -2.155813  1.760046
C    -0.935678  -3.377328  0.978355
C    -1.056147  -3.175563  -0.540308
C    -1.435420  -4.475513  -1.283653
N    -0.407162  -5.460897  -1.281722
H    -0.202079  -2.469777  2.789658
H    0.520780  -1.815516  1.322300
H    -1.891752  -3.731680  1.392824
H    -0.219807  -4.191708  1.165009
H    -0.109090  -2.790279  -0.951629
H    -1.823205  -2.429080  -0.797956
H    -1.673137  -4.189253  -2.335451
H    -2.352044  -4.925272  -0.877900
H    -0.639394  -6.450254  -1.279146
H    0.526747  -5.228846  -1.611717
N    -3.677483  -1.779771  2.115196
C    -4.914667  -2.120535  2.813411
H    -3.655844  -1.885636  1.106030
H    -5.675873  -1.343169  2.660323
H    -4.703242  -2.204494  3.882902
H    -5.297573  -3.073859  2.433269
Cd    0.158167  2.532008  5.124378
