34
Energy: -172327.416209 eV PBE+vdW (tier 2 basis)
C    0.783296  -0.191229  -0.022415
C    0.374728  -0.629907  1.349105
O    0.877579  -1.667160  1.926213
H    0.271201  0.721370  -0.344251
H    0.547877  -0.986013  -0.745727
H    1.867029  -0.009370  -0.047011
N    -0.534695  0.066561  2.004544
C    -1.112847  -0.292910  3.304309
C    -2.527861  0.323461  3.258828
O    -2.715414  1.290258  2.501990
H    -1.032205  0.850624  1.559087
H    -1.165080  -1.390398  3.353096
C    -0.298881  0.220326  4.522566
C    -0.472235  1.689953  4.936876
C    0.081074  2.739708  3.961279
C    0.046275  4.160859  4.561948
N    -1.263196  4.694530  4.704415
H    0.761652  -0.008510  4.340649
H    -0.590753  -0.404202  5.379891
H    0.038930  1.802103  5.905299
H    -1.533196  1.906670  5.139127
H    -0.483066  2.747126  3.016951
H    1.128841  2.519362  3.710110
H    0.638753  4.813201  3.874306
H    0.559108  4.214147  5.532894
H    -1.475170  5.363085  5.440067
H    -1.923357  4.655335  3.931183
N    -3.457362  -0.202271  4.065450
C    -4.818799  0.317613  4.172623
H    -3.196128  -0.981527  4.662282
H    -5.518272  -0.520412  4.259297
H    -5.045632  0.897724  3.273218
H    -4.925264  0.963833  5.054308
Cd    2.264736  -3.129356  1.069592
