34
Energy: -172327.493574 eV PBE+vdW (tier 2 basis)
C    0.008809  0.063999  0.530354
C    -0.055646  -0.228704  1.990775
O    1.027055  -0.215411  2.662035
H    0.937478  0.609895  0.330202
H    -0.854796  0.634302  0.171624
H    0.069485  -0.884423  -0.028487
N    -1.218817  -0.496359  2.638152
C    -2.296688  -1.412999  2.227883
C    -1.726306  -2.859761  2.273478
O    -0.589902  -3.129776  2.783511
H    -1.125073  -0.414919  3.650468
H    -3.024796  -1.359289  3.053716
C    -3.053609  -1.027117  0.942692
C    -3.652690  0.384684  1.017749
C    -4.548039  0.761574  -0.174780
C    -3.841298  0.906006  -1.525880
N    -2.826396  1.930037  -1.526040
H    -3.883696  -1.740088  0.816937
H    -2.409633  -1.157066  0.062401
H    -2.850922  1.130598  1.125205
H    -4.259322  0.462995  1.932872
H    -5.053364  1.709780  0.063925
H    -5.354373  0.022873  -0.293868
H    -4.619136  1.128913  -2.289909
H    -3.380748  -0.036047  -1.863820
H    -2.261755  2.012900  -2.369152
H    -3.097635  2.840031  -1.155111
N    -2.472569  -3.845383  1.805092
C    -2.096427  -5.263063  1.866020
H    -3.366393  -3.611979  1.383098
H    -2.940249  -5.857021  1.506400
H    -1.863841  -5.547236  2.898441
H    -1.221305  -5.454048  1.233580
Cd    1.120672  -2.124189  3.774737
