34
Energy: -172327.224705 eV PBE+vdW (tier 2 basis)
C    0.225219  -1.302567  -0.923724
C    -0.197390  -1.055322  0.505868
O    0.569670  -0.143224  1.232971
H    1.199645  -1.805825  -0.956016
H    0.296060  -0.350583  -1.463124
H    -0.501672  -1.946404  -1.430531
N    -1.512552  -0.485568  0.699275
C    -2.234316  -1.102085  1.789573
C    -1.425350  -2.373824  1.967062
O    -0.297689  -2.326753  1.209249
H    -1.651857  0.495466  0.462409
H    -2.154743  -0.500259  2.714036
C    -3.744092  -1.302384  1.444928
C    -4.719388  -0.759913  2.495333
C    -4.722902  -1.439641  3.873324
C    -5.138327  -2.921079  3.865980
N    -3.975501  -3.828756  4.183075
H    -3.908111  -2.370747  1.241211
H    -3.940002  -0.795515  0.490369
H    -5.731514  -0.823516  2.067489
H    -4.536047  0.315224  2.642592
H    -5.419226  -0.887208  4.517052
H    -3.741658  -1.332285  4.366343
H    -5.521024  -3.235456  2.887091
H    -5.921059  -3.127378  4.604050
H    -3.692204  -3.718631  5.163884
H    -4.233375  -4.814718  4.057309
N    -1.742655  -3.371076  2.690536
C    -0.843952  -4.529674  2.747616
H    -3.094068  -3.600114  3.550959
H    -1.283897  -5.297323  3.393195
H    0.136201  -4.255434  3.160916
H    -0.686387  -4.963035  1.750465
Cd    2.649821  -0.167530  1.389210
