34
Energy: -172327.602587 eV PBE+vdW (tier 2 basis)
C    -0.901127  2.154139  -1.541791
C    -0.241256  1.368912  -0.461663
O    1.013043  1.165033  -0.509612
H    -0.647783  3.220315  -1.440273
H    -1.987424  2.026996  -1.562949
H    -0.475143  1.831625  -2.501983
N    -0.957535  0.848879  0.566640
C    -1.949675  1.580951  1.354581
C    -1.166851  2.521242  2.304382
O    0.065331  2.317670  2.568316
H    -0.441003  0.158693  1.114749
H    -2.557317  2.186316  0.666964
C    -2.853095  0.597010  2.128140
C    -3.715856  -0.268103  1.198190
C    -4.473929  -1.402466  1.910980
C    -5.674069  -0.972601  2.764711
N    -6.753006  -0.437810  1.982964
H    -3.480881  1.170916  2.823135
H    -2.210694  -0.038750  2.760962
H    -3.071135  -0.725753  0.433459
H    -4.430834  0.372410  0.657265
H    -3.786841  -1.971958  2.554119
H    -4.824608  -2.117763  1.151478
H    -5.403926  -0.233881  3.535034
H    -6.015264  -1.867256  3.333615
H    -7.076435  -0.980734  1.184566
H    -7.499638  0.054362  2.466999
N    -1.779731  3.541456  2.888635
C    -3.179510  3.958287  2.802953
H    -1.183192  4.079561  3.519395
H    -3.215059  5.052875  2.782119
H    -3.743122  3.605182  3.676397
H    -3.648177  3.581149  1.889546
Cd    1.890915  1.623092  1.481064
