34
Energy: -172328.182905 eV PBE+vdW (tier 2 basis)
C    1.177761  2.555134  2.188479
C    -0.021740  2.005373  2.892821
O    -1.017964  2.767803  3.073746
H    1.550717  3.429840  2.737086
H    0.865377  2.912526  1.197177
H    1.984720  1.824300  2.069109
N    0.009554  0.716596  3.281548
C    -1.118303  -0.094815  3.766323
C    -1.234954  0.030623  5.300072
O    -1.755175  1.063539  5.832546
H    0.877751  0.218337  3.101968
H    -2.037276  0.364570  3.365735
C    -1.037445  -1.526378  3.208711
C    -1.228181  -1.583077  1.681952
C    -1.425050  -2.991518  1.100863
C    -0.164975  -3.876137  1.106877
N    -0.393690  -5.133137  0.463778
H    -1.832072  -2.115997  3.690960
H    -0.076421  -1.988855  3.495386
H    -0.386072  -1.090321  1.170806
H    -2.122292  -0.994481  1.423483
H    -1.756281  -2.890860  0.058283
H    -2.240244  -3.504918  1.635814
H    0.175306  -4.035152  2.155626
H    0.665856  -3.374216  0.589221
H    0.375004  -5.625161  0.020728
H    -1.180982  -5.711687  0.741105
N    -0.778087  -0.937297  6.074993
C    -0.825098  -0.901198  7.541858
H    -0.386044  -1.761811  5.630138
H    -0.417506  -1.840736  7.922565
H    -1.860368  -0.785063  7.882807
H    -0.228331  -0.062713  7.919623
Cd    -2.431492  2.834883  4.736812
