34
Energy: -172328.266763 eV PBE+vdW (tier 2 basis)
C    -1.171722  1.918523  0.920442
C    -1.053793  0.481854  1.319496
O    0.021799  -0.131640  1.049536
H    -0.370460  2.484089  1.416756
H    -2.138035  2.363224  1.181143
H    -1.002327  2.009027  -0.160251
N    -2.092180  -0.080857  1.966436
C    -2.110793  -1.383558  2.651753
C    -2.482636  -2.495735  1.646884
O    -1.593839  -3.049479  0.923880
H    -2.902404  0.516777  2.112537
H    -1.076628  -1.601366  2.964340
C    -2.974518  -1.291992  3.920738
C    -2.868527  -2.510902  4.849274
C    -3.710558  -2.334370  6.120279
C    -3.588298  -3.533101  7.078417
N    -4.369625  -3.357574  8.264551
H    -4.029341  -1.095087  3.656857
H    -2.640700  -0.394855  4.464127
H    -1.812018  -2.661621  5.123992
H    -3.183828  -3.426922  4.324347
H    -4.772427  -2.203260  5.863180
H    -3.397960  -1.417944  6.645844
H    -2.513828  -3.675442  7.333013
H    -3.910906  -4.463467  6.589637
H    -4.711616  -4.173530  8.762289
H    -4.228355  -2.532652  8.840991
N    -3.746929  -2.858984  1.517519
C    -4.216644  -3.864085  0.557136
H    -4.430806  -2.434383  2.137183
H    -3.839877  -4.857495  0.829683
H    -3.864102  -3.614300  -0.449603
H    -5.309289  -3.870871  0.571403
Cd    0.426169  -2.239019  0.650194
