34
Energy: -172328.079098 eV PBE+vdW (tier 2 basis)
C    0.621167  2.995867  1.924366
C    -0.321156  2.315959  2.866211
O    -1.197577  3.019670  3.452238
H    0.032295  3.480197  1.132641
H    1.344525  2.313037  1.466102
H    1.153119  3.794386  2.457609
N    -0.201515  0.984333  3.026638
C    -1.149965  0.080492  3.693796
C    -0.819261  -0.028010  5.198128
O    -1.179510  0.888762  6.006132
H    0.556887  0.542270  2.513799
H    -2.130267  0.583144  3.668169
C    -1.335170  -1.225454  2.884893
C    -0.104124  -2.091783  2.551665
C    -0.323694  -3.044517  1.362050
C    -1.365430  -4.172884  1.635187
N    -1.477392  -5.115881  0.569475
H    -1.803345  -0.913486  1.938731
H    -2.095245  -1.821193  3.410706
H    0.213301  -2.702531  3.414480
H    0.769305  -1.469121  2.296000
H    0.634930  -3.518073  1.110087
H    -0.638337  -2.473942  0.475322
H    -2.358751  -3.734440  1.810021
H    -1.068715  -4.711175  2.549595
H    -0.780256  -5.842590  0.446893
H    -2.068630  -4.927321  -0.232449
N    -0.154031  -1.069834  5.663356
C    0.210870  -1.242220  7.074355
H    0.123164  -1.789657  5.002530
H    0.894931  -0.445591  7.390275
H    0.702784  -2.211419  7.186711
H    -0.686936  -1.211254  7.702226
Cd    -2.105972  2.781260  5.420060
