34
Energy: -172329.38461 eV PBE+vdW (tier 2 basis)
C    0.259389  1.249246  0.563055
C    -0.183160  0.309087  1.645774
O    0.429078  -0.790361  1.747508
H    1.293847  1.556151  0.771870
H    -0.365058  2.143455  0.466552
H    0.273899  0.710543  -0.392691
N    -1.208821  0.736673  2.418963
C    -1.956095  0.210468  3.592495
C    -1.021517  -0.142456  4.770830
O    -0.073850  -0.989749  4.703557
H    -1.544887  1.652439  2.135589
H    -2.535707  1.082936  3.911856
C    -3.019701  -0.889692  3.268636
C    -2.346645  -2.230406  3.003534
C    -3.016791  -3.549899  2.630657
C    -2.034526  -4.696713  2.954015
N    -0.596462  -4.461535  2.505088
H    -3.605982  -0.541527  2.407016
H    -3.710211  -0.956107  4.121989
H    -1.807044  -2.448904  3.945065
H    -1.646979  -2.018081  2.175521
H    -3.312690  -3.562739  1.573090
H    -3.926478  -3.734989  3.218084
H    -2.375053  -5.637480  2.501859
H    -1.985847  -4.845971  4.040656
H    -0.032872  -5.251323  2.836437
H    -0.546409  -4.510829  1.480541
N    -1.232530  0.468812  5.931938
C    -2.211217  1.507205  6.277999
H    -0.591582  0.176379  6.670439
H    -2.035241  2.428178  5.708108
H    -2.086534  1.739798  7.339161
H    -3.239422  1.156456  6.128783
Cd    0.300318  -2.465314  3.118175
