34
Energy: -172327.282031 eV PBE+vdW (tier 2 basis)
C    1.054678  -0.226340  -0.089160
C    0.767235  -0.169720  1.383911
O    1.609313  -0.519817  2.228383
H    1.463021  -1.215181  -0.331884
H    1.842894  0.504194  -0.318678
H    0.184471  -0.025203  -0.722435
N    -0.467411  0.299465  1.748619
C    -1.081548  0.336969  3.073848
C    -0.315574  1.170575  4.133949
O    -1.080097  1.924296  4.829662
H    -1.071002  0.602731  0.989535
H    -2.004382  0.913562  2.931412
C    -1.557035  -1.025396  3.672944
C    -0.559708  -2.172803  3.903107
C    -0.451378  -3.156182  2.725322
C    0.534067  -4.303980  2.999014
N    0.084907  -5.225342  3.987732
H    -2.374931  -1.368941  3.021800
H    -2.036434  -0.760232  4.627478
H    -0.899599  -2.738782  4.784480
H    0.437778  -1.791756  4.166024
H    -0.113647  -2.652584  1.810727
H    -1.443280  -3.576186  2.494245
H    1.530966  -3.935816  3.282538
H    0.683308  -4.844616  2.032166
H    0.753969  -5.774930  4.520524
H    -0.856400  -5.609211  3.937067
N    0.984207  1.035128  4.266397
C    1.829302  1.751834  5.209545
H    1.414885  0.367896  3.570949
H    2.867504  1.450186  5.037977
H    1.577900  1.497969  6.250515
H    1.775542  2.840543  5.052410
Cd    -0.827413  3.365789  6.465647
