34
Energy: -172328.192262 eV PBE+vdW (tier 2 basis)
C    -0.674484  0.442704  -0.346905
C    -0.755035  -0.059694  1.062058
O    0.181711  -0.805823  1.472531
H    -0.593296  -0.416849  -1.025372
H    0.249784  1.025531  -0.460455
H    -1.529074  1.059290  -0.644185
N    -1.818974  0.328842  1.790907
C    -2.268583  0.027345  3.172479
C    -1.267150  0.474586  4.256674
O    -0.223952  -0.171601  4.588741
H    -2.457803  0.932827  1.281326
H    -3.119289  0.710600  3.293811
C    -2.920277  -1.376771  3.374664
C    -2.263952  -2.701159  2.929732
C    -1.320992  -3.428328  3.920350
C    -1.790065  -4.920025  4.298790
N    -3.059977  -4.866515  4.916238
H    -3.869504  -1.308069  2.824991
H    -3.206353  -1.443822  4.435463
H    -1.802920  -2.602409  1.936671
H    -3.108380  -3.382883  2.760016
H    -1.213526  -2.904368  4.882492
H    -0.301028  -3.672491  3.484936
H    -1.015567  -5.346267  4.949937
H    -1.821560  -5.499145  3.367657
H    -3.854836  -5.274913  4.439124
H    -3.110778  -4.926670  5.927076
N    -1.560884  1.591552  4.907053
C    -0.733932  2.149429  5.982271
H    -2.415543  2.085471  4.667477
H    -1.121444  3.139271  6.235880
H    0.306217  2.235066  5.649154
H    -0.773824  1.503843  6.868305
Cd    0.578270  -1.750553  3.362114
