34
Energy: -172329.897443 eV PBE+vdW (tier 2 basis)
C    -0.453526  0.285980  0.043880
C    -0.672788  -0.117031  1.468177
O    0.115072  -0.960868  1.984454
H    -0.453134  -0.612167  -0.587303
H    0.546249  0.734065  -0.042148
H    -1.197407  0.995619  -0.332634
N    -1.705884  0.454748  2.121419
C    -2.128325  0.354211  3.537309
C    -0.959384  0.696801  4.493549
O    -0.136444  -0.182924  4.898358
H    -2.251179  1.104843  1.562876
H    -2.860500  1.163947  3.637561
C    -2.851415  -0.967315  3.975089
C    -2.886390  -2.152105  2.987106
C    -3.179456  -3.518829  3.636616
C    -2.225090  -4.014856  4.726534
N    -0.770883  -4.066271  4.297762
H    -3.886942  -0.706199  4.226874
H    -2.412058  -1.274417  4.937718
H    -1.963765  -2.221490  2.384369
H    -3.658706  -1.969990  2.227633
H    -3.237712  -4.271411  2.835982
H    -4.179569  -3.504831  4.094793
H    -2.520765  -5.029335  5.026829
H    -2.264681  -3.391044  5.629214
H    -0.674894  -4.680280  3.480291
H    -0.221937  -4.513099  5.040319
N    -0.863315  1.950939  4.904839
C    0.173005  2.464678  5.804490
H    -1.579028  2.607484  4.603313
H    -0.238920  2.595999  6.813169
H    0.520467  3.433089  5.429071
H    1.004807  1.757677  5.839220
Cd    -0.000503  -2.063616  3.843266
