34
Energy: -172327.489645 eV PBE+vdW (tier 2 basis)
C    0.067605  -0.121309  -0.316241
C    0.023172  -0.279973  1.164161
O    1.106288  -0.403993  1.817166
H    0.441866  0.880719  -0.575192
H    -0.899139  -0.298060  -0.796388
H    0.807469  -0.831946  -0.710243
N    -1.158685  -0.306781  1.831567
C    -2.252067  0.654017  1.647352
C    -1.714113  2.023849  2.124966
O    -0.847434  2.079697  3.061708
H    -1.074868  -0.638886  2.794242
H    -2.518839  0.687868  0.583747
C    -3.448031  0.172836  2.507556
C    -4.810935  0.848243  2.303365
C    -5.530758  0.460986  1.004928
C    -6.961038  1.028132  0.947713
N    -7.661831  0.631090  -0.235202
H    -3.155780  0.273365  3.565129
H    -3.547509  -0.905718  2.310754
H    -4.726877  1.942132  2.394388
H    -5.435667  0.542115  3.155614
H    -5.577377  -0.637388  0.930146
H    -4.989926  0.809278  0.110712
H    -6.958306  2.126848  0.995166
H    -7.506021  0.687820  1.857456
H    -7.743793  -0.358113  -0.456210
H    -8.429624  1.204652  -0.572188
N    -2.153498  3.163406  1.607143
C    -3.129165  3.409962  0.546821
H    -1.735613  3.993321  2.032905
H    -4.031044  3.877016  0.961493
H    -3.406342  2.480815  0.044469
H    -2.687636  4.092040  -0.189365
Cd    1.054069  1.003014  3.543332
