34
Energy: -172327.457976 eV PBE+vdW (tier 2 basis)
C    -0.474540  0.164558  -0.154515
C    -0.411615  -0.113786  1.307256
O    0.707368  -0.372735  1.851376
H    -0.029306  1.147780  -0.369199
H    -1.489599  0.113975  -0.558685
H    0.159942  -0.572642  -0.666359
N    -1.533870  -0.107947  2.071975
C    -2.549816  0.951199  2.064588
C    -1.853599  2.227860  2.592387
O    -0.921195  2.134752  3.462195
H    -1.397633  -0.523184  2.995606
H    -2.900514  1.099699  1.035658
C    -3.710916  0.498601  2.985307
C    -4.965914  1.380983  3.022925
C    -5.893859  1.279196  1.797532
C    -6.811907  0.042941  1.802285
N    -7.788942  0.084574  2.851104
H    -3.306154  0.410243  4.006349
H    -3.970532  -0.522266  2.665727
H    -4.687845  2.430040  3.196604
H    -5.540408  1.094858  3.915873
H    -5.326271  1.263087  0.853940
H    -6.523376  2.180206  1.745077
H    -6.243014  -0.893301  1.899973
H    -7.308963  -0.012311  0.808607
H    -8.409697  0.888989  2.907012
H    -8.210804  -0.785938  3.162326
N    -2.215562  3.437022  2.185489
C    -3.243325  3.851316  1.230571
H    -1.690663  4.192014  2.632068
H    -2.800171  4.561712  0.522904
H    -4.071734  4.345819  1.752776
H    -3.632587  2.995867  0.674766
Cd    0.917687  0.888029  3.674767
