34
Energy: -172327.408556 eV PBE+vdW (tier 2 basis)
C    -0.453496  2.032270  0.864330
C    -0.416595  1.097138  2.023895
O    0.693917  0.936760  2.629158
H    0.311223  2.800862  1.032249
H    -1.428814  2.500849  0.717809
H    -0.160785  1.496938  -0.052479
N    -1.511932  0.449581  2.505192
C    -2.508102  -0.353001  1.775205
C    -1.822715  -1.699555  1.426127
O    -0.552628  -1.784647  1.354465
H    -1.336310  0.080699  3.441223
H    -3.301045  -0.556734  2.511250
C    -3.166716  0.318026  0.553562
C    -4.025675  1.532217  0.941598
C    -4.523419  2.366350  -0.251945
C    -5.635191  1.729708  -1.096466
N    -6.868420  1.583056  -0.375887
H    -2.402762  0.586988  -0.188706
H    -3.789702  -0.442025  0.062598
H    -3.448705  2.195186  1.602979
H    -4.886272  1.193042  1.539655
H    -3.686880  2.607316  -0.925238
H    -4.884283  3.335002  0.126116
H    -5.349289  0.745845  -1.499728
H    -5.784014  2.373630  -1.992700
H    -7.230917  2.396491  0.117975
H    -7.595511  0.999690  -0.782119
N    -2.553996  -2.778716  1.179405
C    -4.007873  -2.939606  1.159117
H    -2.003058  -3.605165  0.941431
H    -4.390912  -2.888533  0.131428
H    -4.497407  -2.176615  1.771392
H    -4.252238  -3.923414  1.573929
Cd    1.217071  -1.207792  2.594121
