34
Energy: -172327.150283 eV PBE+vdW (tier 2 basis)
C    -0.934434  -1.217758  0.007989
C    -0.156546  -0.387564  0.981468
O    1.045466  -0.662755  1.282578
H    -1.955167  -0.872528  -0.173284
H    -0.984320  -2.247788  0.387269
H    -0.398739  -1.241932  -0.950897
N    -0.694505  0.683283  1.588166
C    -2.080880  1.187860  1.556569
C    -1.945809  2.726845  1.564063
O    -1.900811  3.358376  2.645133
H    -0.073307  1.127177  2.267735
H    -2.539665  0.870617  0.612451
C    -2.887742  0.637556  2.745515
C    -4.411244  0.861754  2.707996
C    -4.925075  2.310839  2.780691
C    -4.357274  3.168000  3.909692
N    -4.539980  2.709195  5.210877
H    -2.448235  1.030091  3.674801
H    -2.712168  -0.447503  2.766314
H    -4.839399  0.273256  3.533973
H    -4.831443  0.402454  1.800689
H    -6.022849  2.294255  2.869363
H    -4.710636  2.847744  1.845620
H    -4.633477  4.234115  3.840803
H    -3.211376  3.235061  3.647139
H    -4.450762  3.336822  6.005597
H    -4.683387  1.726670  5.426139
N    -1.803623  3.370462  0.396195
C    -1.679329  2.797499  -0.941611
H    -1.668949  4.376873  0.492743
H    -0.780565  2.172055  -1.030989
H    -1.593372  3.619647  -1.657306
H    -2.567455  2.210178  -1.208498
Cd    2.559300  -2.173589  0.554745
