34
Energy: -172329.780071 eV PBE+vdW (tier 2 basis)
C    0.303471  -0.897873  1.167241
C    -0.356083  -0.931804  2.511661
O    -0.076847  -1.875873  3.299943
H    -0.022684  -0.066636  0.533841
H    0.099970  -1.845284  0.650472
H    1.391182  -0.839901  1.308551
N    -1.227851  0.056923  2.789847
C    -2.124444  0.329802  3.937308
C    -1.358081  0.697969  5.217350
O    -0.543762  -0.089332  5.806726
H    -1.326325  0.734467  2.039433
H    -2.614288  1.253868  3.612446
C    -3.332533  -0.638825  4.167538
C    -3.255499  -1.902372  5.052115
C    -2.930336  -3.247660  4.360869
C    -2.510663  -4.350049  5.338981
N    -1.056152  -4.227649  5.763971
H    -3.710217  -0.904222  3.169114
H    -4.107971  0.005451  4.605823
H    -4.244386  -2.021151  5.518269
H    -2.618185  -1.707598  5.940078
H    -2.167755  -3.147749  3.571431
H    -3.832725  -3.590456  3.836542
H    -2.643433  -5.341518  4.889693
H    -3.118381  -4.315068  6.251731
H    -0.935176  -4.565934  6.723287
H    -0.480234  -4.843199  5.180418
N    -1.560194  1.891881  5.757532
C    -2.393363  3.002582  5.278614
H    -1.034187  2.049433  6.618335
H    -2.028593  3.389494  4.319012
H    -2.326319  3.808562  6.014536
H    -3.446359  2.707509  5.197566
Cd    -0.363902  -2.175008  5.429932
