34
Energy: -172327.494202 eV PBE+vdW (tier 2 basis)
C    -0.142806  1.114246  0.537967
C    -0.786507  0.653325  1.801457
O    -0.037830  0.391387  2.797273
H    -0.777383  1.778845  -0.052357
H    0.139398  0.241855  -0.071979
H    0.790662  1.624243  0.805176
N    -2.134127  0.548466  1.959982
C    -3.107220  -0.128085  1.086916
C    -2.883095  -1.653274  1.266365
O    -1.762767  -2.097498  1.677842
H    -2.379117  0.459681  2.947438
H    -4.090704  0.122145  1.513445
C    -3.119314  0.299306  -0.393696
C    -3.558945  1.756541  -0.598459
C    -3.522035  2.169668  -2.075125
C    -3.994833  3.620759  -2.286770
N    -3.975239  4.008211  -3.661201
H    -3.820718  -0.363147  -0.919785
H    -2.142145  0.104985  -0.855406
H    -2.922428  2.432961  -0.006495
H    -4.578917  1.882895  -0.200807
H    -4.156659  1.492135  -2.668532
H    -2.501585  2.076383  -2.476807
H    -3.375160  4.329780  -1.719363
H    -5.024912  3.718038  -1.872892
H    -4.444520  3.438397  -4.359704
H    -3.835667  4.981732  -3.913544
N    -3.853154  -2.511164  0.975911
C    -5.199684  -2.263334  0.460015
H    -3.592337  -3.489317  1.110595
H    -5.540716  -1.256004  0.716825
H    -5.883275  -2.985157  0.919484
H    -5.231469  -2.395939  -0.629455
Cd    -0.343061  -1.725588  3.380630
