34
Energy: -172328.454544 eV PBE+vdW (tier 2 basis)
C    -0.593834  -0.488897  -0.232627
C    -0.387471  -0.477822  1.245655
O    0.816858  -0.578888  1.669952
H    -0.129470  -1.385199  -0.663241
H    -0.067107  0.377984  -0.659518
H    -1.649629  -0.438320  -0.519345
N    -1.457105  -0.344414  2.043839
C    -1.520435  0.063591  3.468592
C    -1.610253  -1.174804  4.386817
O    -0.563795  -1.932078  4.555094
H    -2.352755  -0.308589  1.559777
H    -0.564875  0.563895  3.711115
C    -2.652186  1.084762  3.618331
C    -2.741498  1.731674  5.011213
C    -4.147658  2.254727  5.348988
C    -5.277088  1.240614  5.147512
N    -4.946332  -0.091866  5.716257
H    -3.596511  0.582125  3.355478
H    -2.503189  1.862558  2.855961
H    -2.024882  2.561819  5.075741
H    -2.431116  1.015403  5.786303
H    -4.383648  3.141475  4.743332
H    -4.141052  2.600784  6.392824
H    -5.495942  1.091679  4.080477
H    -6.202537  1.638356  5.591908
H    -4.809737  -0.013861  6.728878
H    -5.740514  -0.725154  5.589813
N    -2.717156  -1.504024  4.996208
C    -2.802764  -2.703875  5.836997
H    -3.594051  -0.841692  5.103679
H    -2.557707  -3.599865  5.255521
H    -3.828662  -2.782933  6.206912
H    -2.112260  -2.638179  6.687728
Cd    1.223368  -1.462988  3.552829
