34
Energy: -172328.688091 eV PBE+vdW (tier 2 basis)
C    -0.320224  -0.334157  0.272219
C    -0.331730  0.092848  1.711650
O    0.763533  0.044458  2.361846
H    0.117217  0.477015  -0.329458
H    -1.316606  -0.565893  -0.117037
H    0.347885  -1.195524  0.154334
N    -1.444953  0.502403  2.374312
C    -2.457237  1.376506  1.801760
C    -2.135884  2.858378  2.201389
O    -1.328521  3.173478  3.131180
H    -2.169737  -1.329014  3.055908
H    -2.429636  1.343353  0.698228
C    -3.863298  0.973967  2.292145
C    -4.309665  -0.385987  1.711887
C    -4.942836  -1.365986  2.711734
C    -4.070280  -1.746911  3.903532
N    -2.673881  -2.157781  3.458569
H    -4.595538  1.748538  2.031767
H    -3.834153  0.960818  3.393088
H    -3.452038  -0.872954  1.217526
H    -5.032187  -0.221621  0.902521
H    -5.244511  -2.278262  2.175074
H    -5.871650  -0.948634  3.127751
H    -4.494100  -2.591030  4.459193
H    -3.920691  -0.918715  4.606780
H    -2.715239  -2.894488  2.741116
H    -2.124201  -2.528195  4.244173
N    -2.761705  3.810012  1.528068
C    -2.606614  5.246263  1.787311
H    -3.409973  3.530922  0.796462
H    -2.973301  5.795583  0.916197
H    -1.550068  5.480177  1.951657
H    -3.181760  5.542005  2.673540
Cd    -0.084724  1.511702  3.867172
