34
Energy: -172327.399557 eV PBE+vdW (tier 2 basis)
C    0.144242  -0.294138  0.212282
C    -0.059659  0.166276  1.612926
O    0.895128  0.735816  2.233499
H    -0.640352  -0.972151  -0.135529
H    1.115244  -0.808381  0.166749
H    0.229826  0.571156  -0.461908
N    -1.241189  -0.022712  2.252903
C    -2.565609  0.300706  1.706999
C    -2.609293  1.838297  1.569592
O    -1.986362  2.582933  2.404496
H    -1.184394  0.097752  3.266020
H    -2.665756  -0.167212  0.719222
C    -3.622094  -0.290095  2.672144
C    -5.108705  -0.178477  2.289950
C    -5.806569  1.102787  2.758059
C    -7.328268  1.135583  2.466223
N    -7.651578  1.108611  1.059717
H    -3.464948  0.153023  3.669887
H    -3.353991  -1.352743  2.757823
H    -5.615342  -1.035219  2.758657
H    -5.231147  -0.328810  1.206484
H    -5.360747  2.005325  2.314575
H    -5.693757  1.201384  3.848402
H    -7.750612  2.046304  2.905896
H    -7.792842  0.271893  2.978807
H    -7.750791  0.200634  0.613185
H    -8.335494  1.782139  0.725640
N    -3.286775  2.423068  0.590188
C    -4.145139  1.841675  -0.441838
H    -3.240556  3.443562  0.614434
H    -5.199337  1.856732  -0.128787
H    -3.851831  0.811691  -0.663238
H    -4.036206  2.438406  -1.353545
Cd    0.086739  2.554020  3.208587
