34
Energy: -172327.17773 eV PBE+vdW (tier 2 basis)
C    -0.723780  0.165417  0.589533
C    -0.091495  0.028675  1.933548
O    0.912991  0.743314  2.287066
H    -1.421498  -0.643766  0.357492
H    0.066049  0.167166  -0.174960
H    -1.237693  1.135894  0.532606
N    -0.534237  -0.818941  2.870720
C    -1.780127  -1.619359  2.970496
C    -1.677328  -2.843962  2.007004
O    -2.020599  -2.734891  0.830244
H    0.038039  -0.800890  3.715661
H    -1.769732  -1.984808  4.007429
C    -3.061532  -0.797111  2.763819
C    -4.351910  -1.435559  3.315854
C    -4.918813  -2.599280  2.494103
C    -6.382087  -2.940507  2.982802
N    -6.983685  -3.998498  2.259511
H    -3.191086  -0.572343  1.697012
H    -2.917748  0.159476  3.287280
H    -5.100580  -0.630344  3.352533
H    -4.199092  -1.746339  4.361811
H    -4.315884  -3.513109  2.586708
H    -4.962985  -2.343902  1.426409
H    -6.985794  -2.027584  2.857485
H    -6.343876  -3.206333  4.048000
H    -7.421534  -3.841341  1.356299
H    -6.954178  -4.958147  2.589624
N    -1.184322  -3.972272  2.554601
C    -1.024532  -5.214590  1.803143
H    -0.987677  -3.988492  3.550025
H    -1.892197  -5.874767  1.936944
H    -0.126262  -5.734106  2.153101
H    -0.926315  -4.973172  0.740447
Cd    2.466009  1.774737  1.118509
