34
Energy: -172328.276019 eV PBE+vdW (tier 2 basis)
C    -0.285499  0.623202  -0.587604
C    -0.623569  1.541233  0.544084
O    -0.233237  2.745640  0.482324
H    -0.674718  1.058795  -1.518274
H    -0.691012  -0.386702  -0.464601
H    0.805933  0.570358  -0.695741
N    -1.345376  1.044435  1.565829
C    -1.980251  1.797045  2.659560
C    -0.994373  1.935504  3.841783
O    -0.052828  2.791519  3.800509
H    -1.574541  0.054977  1.510541
H    -2.142180  2.823520  2.291501
C    -3.353720  1.196620  3.001335
C    -4.398050  1.361634  1.885014
C    -5.769371  0.810787  2.297438
C    -6.838772  1.022798  1.209433
N    -8.115747  0.507261  1.597797
H    -3.721658  1.697094  3.909755
H    -3.247713  0.125067  3.249063
H    -4.057994  0.860091  0.965234
H    -4.489974  2.431793  1.638269
H    -6.115085  1.301356  3.219467
H    -5.688815  -0.265057  2.521946
H    -6.490362  0.539712  0.268834
H    -6.955879  2.090987  0.978760
H    -8.960850  0.932162  1.229710
H    -8.206050  -0.468658  1.865606
N    -1.131515  1.141974  4.890125
C    -0.266482  1.138827  6.073189
H    -1.914706  0.493371  4.887918
H    -0.853149  1.417784  6.956697
H    0.544550  1.855128  5.928922
H    0.146868  0.133846  6.217965
Cd    0.421125  4.071896  2.090608
