34
Energy: -172328.815161 eV PBE+vdW (tier 2 basis)
C    0.767509  -0.582835  0.596957
C    -0.008954  -0.055720  1.762999
O    -0.039112  -0.738671  2.825511
H    0.389828  -1.582136  0.342728
H    0.719250  0.057574  -0.289874
H    1.816391  -0.706255  0.898835
N    -0.640050  1.128814  1.597502
C    -1.510809  1.864422  2.537715
C    -0.663083  2.442269  3.694597
O    -0.203694  1.724099  4.633173
H    -0.509257  1.562563  0.688455
H    -1.883907  2.720720  1.961880
C    -2.749741  1.017793  2.960816
C    -3.431468  1.424262  4.280971
C    -4.398232  0.382611  4.860619
C    -3.880149  -1.026883  5.138188
N    -4.471184  -1.699192  6.146263
H    -2.462021  -0.045474  2.969504
H    -3.472680  1.077598  2.135283
H    -3.996883  2.354604  4.133058
H    -2.687661  1.667255  5.057690
H    -5.250853  0.235271  4.175821
H    -4.822295  0.790046  5.789371
H    -2.523027  -0.854480  5.437715
H    -3.718665  -1.659436  4.258933
H    -4.427387  -2.712167  6.207413
H    -4.831794  -1.215025  6.964199
N    -0.411911  3.744235  3.657438
C    0.406373  4.462275  4.637891
H    -0.774122  4.281124  2.874108
H    1.428953  4.586269  4.258726
H    0.434341  3.893815  5.570737
H    -0.035454  5.448216  4.813408
Cd    -0.845004  -0.354092  4.820653
