34
Energy: -172327.433971 eV PBE+vdW (tier 2 basis)
C    0.164019  0.109827  0.160546
C    0.019533  0.185928  1.641301
O    1.050594  0.527340  2.311557
H    -0.779285  0.155765  -0.393642
H    0.718050  -0.803172  -0.106833
H    0.805840  0.949713  -0.140908
N    -1.146529  -0.017804  2.309531
C    -2.087305  -1.149987  2.240249
C    -1.477762  -2.291949  3.091716
O    -0.222442  -2.347238  3.324888
H    -1.103655  0.380274  3.249426
H    -2.997093  -0.797909  2.750449
C    -2.494025  -1.616175  0.829708
C    -3.382474  -0.593422  0.108280
C    -3.891242  -1.048635  -1.269770
C    -2.824149  -1.245260  -2.349608
N    -2.044907  -0.052945  -2.594614
H    -3.051528  -2.556738  0.942307
H    -1.599375  -1.881302  0.250259
H    -2.857730  0.368975  0.010723
H    -4.260573  -0.386745  0.739182
H    -4.623686  -0.306903  -1.623214
H    -4.450483  -1.991232  -1.175926
H    -3.338260  -1.574448  -3.278623
H    -2.129896  -2.065144  -2.106521
H    -2.576494  0.802292  -2.756416
H    -1.281145  -0.148835  -3.261559
N    -2.256021  -3.249682  3.575032
C    -3.698949  -3.449602  3.428488
H    -1.751766  -3.965419  4.101461
H    -4.208161  -2.506609  3.209501
H    -4.089037  -3.841956  4.373763
H    -3.912093  -4.175903  2.633228
Cd    1.374413  -0.933880  3.926650
