34
Energy: -172327.167076 eV PBE+vdW (tier 2 basis)
C    0.121318  0.408520  0.254536
C    0.055797  -0.205348  1.614849
O    1.109732  -0.625198  2.213434
H    -0.806377  0.287500  -0.312820
H    0.925019  -0.070513  -0.317628
H    0.348289  1.481439  0.361620
N    -1.080182  -0.353845  2.313415
C    -2.502670  -0.201079  1.946095
C    -2.914211  -1.246086  0.867998
O    -2.426238  -1.177663  -0.262117
H    -0.914887  -0.773293  3.228172
H    -3.029228  -0.442649  2.879639
C    -2.876468  1.229958  1.511726
C    -4.374421  1.459094  1.246578
C    -5.274474  1.430765  2.488439
C    -6.724886  1.846320  2.133212
N    -7.587435  1.898185  3.262926
H    -2.337602  1.477593  0.589435
H    -2.518495  1.920027  2.290431
H    -4.736677  0.737599  0.497605
H    -4.459524  2.446254  0.768783
H    -4.881686  2.117375  3.254928
H    -5.320105  0.430268  2.945164
H    -7.164293  1.175441  1.383605
H    -6.668777  2.853283  1.658530
H    -7.353369  2.470374  4.070072
H    -8.550765  1.582405  3.202622
N    -3.825662  -2.160304  1.242411
C    -4.308129  -3.206662  0.340868
H    -4.102127  -2.204185  2.217417
H    -3.675346  -4.101962  0.400623
H    -4.285543  -2.827912  -0.685796
H    -5.333426  -3.471926  0.616861
Cd    3.199218  -0.089895  1.835238
