34
Energy: -172328.463217 eV PBE+vdW (tier 2 basis)
C    0.770468  0.224528  0.447513
C    -0.158764  0.949513  1.391234
O    0.501226  1.468829  2.405634
H    1.591130  -0.239764  1.003300
H    1.221418  0.943580  -0.252533
H    0.238820  -0.555284  -0.108906
N    -1.435650  1.010180  1.095604
C    -2.386999  1.844736  1.834135
C    -2.954795  1.116608  3.075049
O    -2.441167  1.280269  4.243495
H    -1.810386  0.685880  -0.492093
H    -1.895275  2.756297  2.247682
C    -3.502788  2.359662  0.904054
C    -3.102069  3.465305  -0.090051
C    -2.151583  3.133367  -1.255277
C    -2.559402  1.932147  -2.110262
N    -1.942625  0.648151  -1.586696
H    -4.304446  2.773760  1.532790
H    -3.950476  1.503804  0.368052
H    -2.679017  4.312232  0.471411
H    -4.039760  3.846350  -0.520722
H    -1.112967  3.007784  -0.912279
H    -2.128007  4.011551  -1.914329
H    -2.233649  2.042890  -3.150072
H    -3.647170  1.789619  -2.121887
H    -1.007348  0.521251  -1.989247
H    -2.491822  -0.176474  -1.853355
N    -3.988997  0.310235  2.950569
C    -4.595056  -0.442510  4.055443
H    -4.427974  0.246946  2.036448
H    -5.229615  -1.225347  3.632149
H    -5.203761  0.222306  4.681152
H    -3.810806  -0.894415  4.670928
Cd    -0.470683  2.064014  4.139067
