34
Energy: -172327.153969 eV PBE+vdW (tier 2 basis)
C    0.091726  0.354623  0.341604
C    -0.123856  -0.015558  1.773789
O    0.845624  -0.416389  2.518831
H    0.544765  -0.495411  -0.185967
H    0.796039  1.197988  0.289580
H    -0.822536  0.642857  -0.183408
N    -1.316836  0.028360  2.349324
C    -2.642934  0.278141  1.771457
C    -3.466091  0.765890  2.996016
O    -3.296158  0.188092  4.069740
H    -1.372370  -0.247081  3.340057
H    -2.567552  1.055840  1.002110
C    -3.214481  -1.033968  1.176675
C    -4.625239  -0.995018  0.559147
C    -5.779951  -1.144356  1.560128
C    -7.131033  -1.394215  0.827635
N    -8.213845  -1.626622  1.714808
H    -3.169081  -1.804125  1.961391
H    -2.508049  -1.348223  0.393578
H    -4.671893  -1.831373  -0.154026
H    -4.758431  -0.087529  -0.050574
H    -5.905252  -0.252780  2.189346
H    -5.578433  -1.988957  2.236539
H    -6.981088  -2.291859  0.186300
H    -7.388428  -0.562426  0.160480
H    -9.101177  -1.143963  1.612926
H    -8.185358  -2.386901  2.389195
N    -4.342728  1.782255  2.836439
C    -4.516555  2.664996  1.685742
H    -4.798610  2.053683  3.706535
H    -5.407469  3.276414  1.857702
H    -4.675099  2.096940  0.761951
H    -3.661980  3.344228  1.554749
Cd    3.001070  -0.182137  2.391391
