34
Energy: -172328.149878 eV PBE+vdW (tier 2 basis)
C    1.072185  0.869231  0.487400
C    0.711730  0.177863  1.763380
O    1.506719  0.281052  2.747382
H    1.177569  1.944201  0.691452
H    0.332279  0.726142  -0.307278
H    2.053546  0.513384  0.147610
N    -0.449259  -0.500683  1.809370
C    -1.119551  -1.049523  3.000395
C    -0.602394  -2.478547  3.281165
O    0.468729  -2.669946  3.945917
H    -0.986790  -0.520026  0.945502
H    -0.797413  -0.443655  3.862879
C    -2.644239  -0.906754  2.851707
C    -3.441973  -1.228845  4.129861
C    -3.509039  -0.087679  5.162121
C    -4.540099  1.005108  4.830114
N    -5.889991  0.513018  4.876402
H    -2.996507  -1.528494  2.010574
H    -2.839969  0.129087  2.535136
H    -3.032955  -2.128941  4.613194
H    -4.468168  -1.493820  3.838247
H    -2.529485  0.399261  5.291922
H    -3.754823  -0.512297  6.146754
H    -4.370114  1.441545  3.834597
H    -4.396227  1.838480  5.550888
H    -6.216879  0.105335  5.749800
H    -6.607488  1.039194  4.385263
N    -1.265028  -3.517922  2.807960
C    -0.840521  -4.912300  2.978402
H    -2.147160  -3.344798  2.334143
H    -0.975836  -5.227441  4.020626
H    0.215669  -5.016385  2.708598
H    -1.451245  -5.540628  2.325273
Cd    1.916351  -1.097914  4.377837
