34
Energy: -172327.529409 eV PBE+vdW (tier 2 basis)
C    1.196655  2.401945  0.300802
C    1.127996  2.319890  1.785594
O    2.047270  2.853279  2.486716
H    0.525961  1.698409  -0.201046
H    2.233548  2.193264  0.001139
H    0.987273  3.430047  -0.030925
N    0.116155  1.668928  2.411654
C    -1.304169  1.818444  2.100780
C    -1.770476  3.146955  2.749092
O    -1.078022  3.729280  3.651099
H    0.300371  1.477386  3.397318
H    -1.403350  1.909556  1.010246
C    -2.109819  0.584591  2.571848
C    -2.208825  0.399766  4.092826
C    -2.741640  -0.982368  4.517094
C    -4.196105  -1.289632  4.140890
N    -5.143126  -0.426509  4.794827
H    -1.625018  -0.288320  2.109365
H    -3.113816  0.643056  2.131832
H    -2.839542  1.190132  4.529699
H    -1.216373  0.505399  4.562024
H    -2.630944  -1.078830  5.607866
H    -2.110464  -1.772338  4.084332
H    -4.387853  -2.352845  4.408989
H    -4.370182  -1.237458  3.055324
H    -6.106538  -0.459141  4.469452
H    -5.072997  -0.341820  5.807504
N    -2.923973  3.692587  2.390905
C    -3.914558  3.220739  1.421704
H    -3.150374  4.553023  2.892039
H    -3.443963  2.622691  0.635478
H    -4.379457  4.094746  0.954081
H    -4.695575  2.629433  1.916700
Cd    1.085127  4.016646  4.107924
