34
Energy: -172329.429663 eV PBE+vdW (tier 2 basis)
C    -0.383168  -0.986323  0.086058
C    -0.821328  -0.282136  1.327472
O    -0.295630  0.825195  1.635035
H    -0.492799  -0.307038  -0.769699
H    -0.939237  -1.909384  -0.108503
H    0.687542  -1.218510  0.170223
N    -1.784274  -0.862549  2.084485
C    -2.335156  -0.232026  3.276286
C    -1.424090  -0.418680  4.510379
O    -0.664599  0.555038  4.849369
H    -2.171270  -1.745959  1.763208
H    -2.231992  0.840220  3.077755
C    -3.857658  -0.369628  3.470018
C    -4.607965  0.809135  2.809883
C    -4.128240  2.214367  3.271922
C    -3.288323  2.997693  2.236723
N    -2.083649  3.693246  2.839413
H    -4.074896  -0.376854  4.547970
H    -4.229585  -1.326219  3.076970
H    -5.673270  0.694059  3.042499
H    -4.538686  0.730759  1.714114
H    -3.566607  2.123056  4.219634
H    -5.001991  2.821977  3.536668
H    -3.902110  3.763540  1.743529
H    -2.907908  2.343231  1.440452
H    -1.699773  4.356454  2.156438
H    -2.373192  4.263617  3.642135
N    -1.397226  -1.529980  5.222018
C    -2.177144  -2.756564  5.059800
H    -0.745133  -1.507994  6.008919
H    -1.501519  -3.616581  5.127841
H    -2.674527  -2.780357  4.087916
H    -2.932213  -2.834140  5.852189
Cd    -0.552368  2.159981  3.395602
