34
Energy: -172329.707941 eV PBE+vdW (tier 2 basis)
C    -0.025492  -0.661581  0.790205
C    -0.497554  -0.810703  2.202331
O    0.065574  -1.650627  2.954057
H    -0.596773  0.068960  0.208205
H    -0.072178  -1.638823  0.291887
H    1.032084  -0.363781  0.803656
N    -1.521793  -0.026963  2.600675
C    -2.184140  0.085130  3.915995
C    -1.177486  0.543129  4.999870
O    -0.462016  -0.282794  5.657549
H    -1.887432  0.596173  1.887062
H    -2.882320  0.914300  3.763831
C    -3.054699  -1.114122  4.416657
C    -3.597412  -2.135482  3.396057
C    -2.813646  -3.451697  3.204695
C    -2.619093  -4.309796  4.472150
N    -1.183877  -4.332708  4.969313
H    -3.904974  -0.643514  4.929005
H    -2.555327  -1.639621  5.253265
H    -3.726168  -1.659822  2.413969
H    -4.613833  -2.400223  3.718553
H    -1.838363  -3.278126  2.722632
H    -3.371625  -4.051816  2.473909
H    -2.909893  -5.351601  4.286520
H    -3.234868  -3.949290  5.306366
H    -0.617348  -4.903722  4.331293
H    -1.142879  -4.814321  5.874639
N    -1.061876  1.833113  5.271319
C    -1.779297  2.967401  4.676538
H    -0.376176  2.048274  5.996730
H    -1.595367  3.032705  3.597496
H    -1.397186  3.881362  5.139334
H    -2.855913  2.910692  4.879771
Cd    -0.339646  -2.311667  4.999811
