34
Energy: -172329.886639 eV PBE+vdW (tier 2 basis)
C    -2.738265  -0.129529  -0.572678
C    -2.420229  0.615074  0.687610
O    -1.376275  0.307512  1.325412
H    -3.675450  0.180492  -1.046122
H    -2.787015  -1.203079  -0.346712
H    -1.911694  0.008977  -1.282657
N    -3.288014  1.571993  1.068248
C    -3.352516  2.472539  2.245020
C    -2.177557  3.467661  2.300745
O    -0.967116  3.145081  2.535114
H    -4.072318  1.688607  0.433108
H    -4.232628  3.082055  2.003720
C    -3.748112  1.836080  3.618035
C    -2.736344  1.211182  4.601699
C    -2.422333  -0.296843  4.460574
C    -1.165290  -0.729737  5.222551
N    0.113751  -0.387796  4.474917
H    -4.546566  1.110857  3.401279
H    -4.242506  2.656922  4.156847
H    -3.157633  1.349633  5.608279
H    -1.824097  1.841072  4.660076
H    -2.343251  -0.622063  3.410364
H    -3.272028  -0.863716  4.864979
H    -1.168884  -1.812072  5.398435
H    -1.111483  -0.234425  6.200000
H    0.863373  -0.160744  5.135041
H    0.438795  -1.214681  3.963441
N    -2.468480  4.746348  2.113690
C    -1.476006  5.825281  2.165668
H    -3.429648  5.000611  1.905472
H    -0.934984  5.793822  3.118037
H    -2.000653  6.779425  2.074312
H    -0.758734  5.721560  1.342448
Cd    -0.300812  1.177902  2.998050
