34
Energy: -172329.874863 eV PBE+vdW (tier 2 basis)
C    -0.839261  0.421460  -0.111411
C    -0.809753  -0.118787  1.283584
O    0.140696  -0.878959  1.620603
H    -0.797423  -0.416064  -0.820014
H    0.067605  1.020035  -0.274601
H    -1.719270  1.035692  -0.327897
N    -1.817625  0.236034  2.107023
C    -2.066712  -0.097666  3.527319
C    -0.959768  0.513728  4.424306
O    0.164718  -0.057923  4.586149
H    -2.512365  0.848056  1.689336
H    -2.999926  0.432810  3.748683
C    -2.296366  -1.603412  3.883055
C    -2.546796  -2.614741  2.744957
C    -2.197737  -4.071994  3.126986
C    -0.805147  -4.583335  2.749462
N    0.348707  -4.050039  3.587384
H    -3.147876  -1.632260  4.577050
H    -1.469707  -1.949368  4.531506
H    -1.995237  -2.343411  1.833648
H    -3.605655  -2.565652  2.462178
H    -2.888681  -4.740339  2.593733
H    -2.399665  -4.259683  4.194154
H    -0.570678  -4.343140  1.703936
H    -0.783008  -5.677464  2.849345
H    0.215554  -4.340291  4.563190
H    1.208668  -4.521573  3.284305
N    -1.229245  1.661460  5.024201
C    -0.308653  2.400004  5.893096
H    -2.148002  2.071011  4.873816
H    0.590943  1.802878  6.055374
H    -0.801002  2.600549  6.851472
H    -0.040113  3.352450  5.419780
Cd    0.590781  -1.871063  3.493296
