34
Energy: -172327.261178 eV PBE+vdW (tier 2 basis)
C    0.633189  1.825959  1.838639
C    0.543736  0.394740  1.411989
O    1.596374  -0.322805  1.238344
H    1.238999  1.892708  2.752899
H    -0.335722  2.292204  2.035280
H    1.137943  2.405245  1.052050
N    -0.615263  -0.206432  1.187992
C    -1.982243  0.292515  1.348902
C    -2.828939  -0.988613  1.533705
O    -2.367189  -2.090727  1.249691
H    -0.596755  -1.211982  0.958951
H    -2.045844  0.898589  2.265023
C    -2.473989  1.147684  0.149944
C    -2.527383  0.483988  -1.239370
C    -3.553535  -0.639861  -1.483509
C    -5.009175  -0.234932  -1.267476
N    -5.902216  -1.354749  -1.233619
H    -1.809414  2.021315  0.081174
H    -3.453199  1.567612  0.426347
H    -1.533344  0.085729  -1.490895
H    -2.704139  1.291930  -1.964840
H    -3.327308  -1.518423  -0.863059
H    -3.433064  -0.977028  -2.524030
H    -5.329831  0.483351  -2.056586
H    -5.152233  0.338503  -0.329392
H    -5.652063  -2.194698  -1.753248
H    -6.904125  -1.176405  -1.193320
N    -4.115406  -0.808876  1.943757
C    -5.083441  -1.880363  1.936197
H    -4.417884  0.117300  2.233567
H    -5.543997  -1.971163  0.921289
H    -5.877292  -1.673018  2.660373
H    -4.589123  -2.833289  2.154661
Cd    3.716596  0.091597  1.489283
