34
Energy: -172328.199356 eV PBE+vdW (tier 2 basis)
C    -0.995531  -0.909660  0.476118
C    -0.559498  -0.575426  1.869833
O    0.493312  -1.128087  2.305558
H    -1.095759  -2.000172  0.392074
H    -0.205198  -0.609959  -0.225328
H    -1.938994  -0.435867  0.185100
N    -1.324560  0.287308  2.566398
C    -1.282822  0.707075  3.985576
C    -0.173503  1.746232  4.244326
O    1.064023  1.455001  4.266878
H    -2.114414  0.653516  2.043280
H    -2.237927  1.229050  4.131476
C    -1.250863  -0.444688  5.013586
C    -2.375607  -1.481271  4.896461
C    -3.771904  -0.946727  5.242547
C    -4.829017  -2.072719  5.321037
N    -4.615023  -2.969941  6.420319
H    -1.265480  0.021227  6.011023
H    -0.286751  -0.993844  4.964204
H    -2.138886  -2.302437  5.588800
H    -2.378150  -1.927639  3.889927
H    -4.128150  -0.221734  4.494379
H    -3.747289  -0.415258  6.207501
H    -4.840756  -2.656609  4.391035
H    -5.819887  -1.579231  5.398226
H    -4.767507  -2.614118  7.360937
H    -4.899598  -3.938360  6.307403
N    -0.547761  2.995239  4.473654
C    0.387620  4.089318  4.760174
H    -1.538514  3.217249  4.439596
H    -0.190064  4.964445  5.067662
H    0.973396  4.333308  3.865416
H    1.069764  3.796377  5.565748
Cd    1.850948  -0.538385  3.893645
