34
Energy: -172328.479203 eV PBE+vdW (tier 2 basis)
C    0.177856  -0.902053  0.570003
C    -0.423659  0.191092  1.418122
O    0.300730  0.400545  2.497356
H    0.503832  -1.732986  1.205186
H    1.072865  -0.521896  0.057052
H    -0.539168  -1.283405  -0.163953
N    -1.513170  0.792065  0.999369
C    -2.067962  1.977208  1.662224
C    -2.966969  1.633448  2.871986
O    -2.513460  1.660115  4.075566
H    -1.744669  0.636304  -0.691359
H    -1.258882  2.613944  2.091911
C    -2.791310  2.862849  0.629155
C    -1.852895  3.323601  -0.509367
C    -2.378963  3.079469  -1.934617
C    -2.852191  1.659800  -2.238910
N    -1.854592  0.620411  -1.781286
H    -3.230191  3.728354  1.142349
H    -3.638271  2.293772  0.212593
H    -0.873184  2.833654  -0.395312
H    -1.648085  4.396200  -0.405634
H    -1.595731  3.366835  -2.651745
H    -3.230458  3.742026  -2.148449
H    -3.015210  1.523244  -3.314238
H    -3.792760  1.410555  -1.732061
H    -2.152592  -0.319683  -2.067006
H    -0.932500  0.785552  -2.203373
N    -4.231542  1.316244  2.684044
C    -5.168725  0.960269  3.755742
H    -4.592366  1.369565  1.735947
H    -5.500155  1.861208  4.287323
H    -4.680922  0.285214  4.465868
H    -6.033217  0.463797  3.307446
Cd    -0.395483  1.499685  4.112068
