34
Energy: -172327.52221 eV PBE+vdW (tier 2 basis)
C    0.338606  0.650839  0.517660
C    -0.315807  -0.323867  1.436452
O    -0.195295  -1.567753  1.202970
H    -0.406276  1.041250  -0.195525
H    1.099960  0.124455  -0.067251
H    0.784811  1.496512  1.049486
N    -1.036843  0.069211  2.521040
C    -2.062072  1.127340  2.566457
C    -3.198928  0.721396  1.586996
O    -3.325640  -0.471347  1.161751
H    -1.230120  -0.706743  3.153259
H    -2.504988  1.029522  3.570528
C    -1.542627  2.572242  2.427339
C    -0.408383  2.953950  3.393778
C    -0.817785  3.050132  4.869288
C    0.336517  3.577614  5.745426
N    -0.031648  3.714418  7.119715
H    -2.388797  3.251609  2.617469
H    -1.227925  2.764082  1.393158
H    -0.023571  3.929524  3.061896
H    0.428793  2.246688  3.287751
H    -1.124297  2.072044  5.271342
H    -1.683857  3.723987  4.972089
H    0.662799  4.559374  5.332821
H    1.213268  2.917720  5.685851
H    0.678090  3.626322  7.840802
H    -0.833016  4.286439  7.372834
N    -4.085570  1.635525  1.228292
C    -5.250607  1.358552  0.379795
H    -3.959916  2.585357  1.564288
H    -5.836454  2.276745  0.291547
H    -5.868291  0.572916  0.829654
H    -4.928476  1.036144  -0.617332
Cd    -2.243744  -2.422787  1.077525
