34
Energy: -172327.022536 eV PBE+vdW (tier 2 basis)
C    0.213322  1.133396  0.436318
C    -0.048368  0.733307  1.850807
O    0.911713  0.700401  2.706107
H    0.622021  2.156645  0.439153
H    -0.658643  1.099971  -0.213836
H    0.962767  0.451296  0.013266
N    -1.247314  0.420648  2.354482
C    -2.539344  0.095959  1.720422
C    -2.385470  -1.184199  0.863560
O    -1.399552  -1.322910  0.145628
H    -1.197645  0.204739  3.350001
H    -3.198242  -0.096930  2.576225
C    -3.150151  1.251200  0.890126
C    -4.638417  1.076065  0.541647
C    -5.603064  1.288633  1.715187
C    -7.070964  0.957704  1.330108
N    -7.336974  -0.457210  1.241398
H    -2.597348  1.357382  -0.051509
H    -3.003247  2.182712  1.456488
H    -4.805982  0.094744  0.072590
H    -4.874104  1.812424  -0.240069
H    -5.573220  2.338177  2.040423
H    -5.338099  0.683930  2.596548
H    -7.315765  1.427994  0.369777
H    -7.720847  1.400432  2.106374
H    -7.645363  -0.928125  2.089334
H    -7.797046  -0.807410  0.404372
N    -3.371423  -2.127804  0.891293
C    -4.527488  -2.242410  1.749390
H    -3.206512  -2.880254  0.221503
H    -4.816097  -3.296819  1.816993
H    -5.403434  -1.676109  1.351158
H    -4.322009  -1.874401  2.761562
Cd    2.962716  1.407814  2.509955
