34
Energy: -172328.057985 eV PBE+vdW (tier 2 basis)
C    1.478456  -1.381601  2.079452
C    0.627330  -0.412676  2.840315
O    1.104459  0.073034  3.908607
H    1.007715  -1.751409  1.162428
H    1.711919  -2.232487  2.734135
H    2.433271  -0.899029  1.832212
N    -0.587306  -0.124181  2.333704
C    -1.714565  0.659030  2.890173
C    -1.422253  2.177935  2.841122
O    -0.776980  2.782647  3.757359
H    -0.797310  -0.603608  1.462928
H    -2.532159  0.481370  2.181396
C    -2.239114  0.172410  4.251230
C    -3.557168  0.840365  4.659532
C    -4.262071  0.164282  5.845860
C    -4.960177  -1.160832  5.499571
N    -4.027584  -2.220689  5.146302
H    -1.496062  0.284162  5.076425
H    -2.381130  -0.923975  4.194208
H    -4.238279  0.839426  3.790725
H    -3.389646  1.900405  4.902652
H    -5.029076  0.848372  6.233024
H    -3.556450  0.005691  6.678003
H    -5.647651  -1.015271  4.654710
H    -5.586046  -1.454567  6.364407
H    -3.501840  -2.598637  5.934391
H    -4.434671  -2.980097  4.602735
N    -1.880358  2.890127  1.823078
C    -2.657124  2.444578  0.659776
H    -1.651608  3.884143  1.871441
H    -2.112659  1.688486  0.081734
H    -2.812566  3.312913  0.013507
H    -3.642116  2.064453  0.957819
Cd    0.398621  1.662210  5.193564
