34
Energy: -172327.036992 eV PBE+vdW (tier 2 basis)
C    0.866587  -0.507327  0.863209
C    -0.135796  -1.054078  1.837238
O    0.085343  -2.254573  2.244394
H    1.620409  0.071697  1.418063
H    0.398745  0.145225  0.118129
H    1.379578  -1.332576  0.361268
N    -1.161183  -0.337712  2.252255
C    -1.528592  1.054280  1.953442
C    -2.259571  1.474693  3.259700
O    -2.834749  0.581953  3.897240
H    -1.814746  -0.692592  2.974560
H    -0.621408  1.643908  1.775771
C    -2.503387  1.090985  0.743032
C    -3.019479  2.471661  0.312643
C    -2.044991  3.328664  -0.520275
C    -2.076391  3.007792  -2.032832
N    -3.265474  3.448390  -2.679524
H    -3.360960  0.456973  1.012269
H    -2.005883  0.585411  -0.099791
H    -3.338423  3.042080  1.196374
H    -3.939891  2.319959  -0.269110
H    -1.003978  3.209557  -0.183968
H    -2.278041  4.395469  -0.388609
H    -1.942412  1.936886  -2.239205
H    -1.195327  3.520539  -2.485612
H    -3.569800  4.414956  -2.587879
H    -3.648114  2.939149  -3.470914
N    -2.292716  2.764217  3.649242
C    -1.530511  3.910127  3.173673
H    -2.847303  2.904325  4.494925
H    -0.836581  4.253483  3.953133
H    -2.208174  4.738256  2.927816
H    -0.950937  3.655860  2.283298
Cd    -0.711135  -3.539706  3.795405
