34
Energy: -172327.633115 eV PBE+vdW (tier 2 basis)
C    0.968330  1.969155  0.994817
C    0.449575  1.195303  2.157207
O    1.138913  1.120071  3.221491
H    0.464321  1.723892  0.055459
H    2.042957  1.761074  0.901406
H    0.883927  3.048065  1.196146
N    -0.746194  0.553405  2.094762
C    -1.990117  1.145405  1.600164
C    -2.431730  2.203246  2.645963
O    -2.060544  2.141127  3.861309
H    -0.890235  -0.112400  2.856053
H    -1.785730  1.650695  0.645037
C    -3.029983  0.020590  1.381986
C    -4.335821  0.444434  0.695630
C    -5.319276  -0.713098  0.449298
C    -4.894221  -1.696835  -0.656900
N    -5.900190  -2.678474  -0.911591
H    -3.258980  -0.444320  2.355359
H    -2.511799  -0.741421  0.781607
H    -4.111412  0.945122  -0.261529
H    -4.864052  1.178880  1.321132
H    -6.291083  -0.277808  0.172827
H    -5.487301  -1.276961  1.379078
H    -3.961531  -2.225353  -0.412613
H    -4.681352  -1.111927  -1.581980
H    -6.863532  -2.392034  -1.063682
H    -5.646895  -3.583547  -1.295136
N    -3.236838  3.176873  2.247353
C    -3.764337  4.223963  3.129064
H    -3.540936  3.179100  1.277456
H    -4.250607  4.982868  2.510985
H    -2.946900  4.684214  3.694641
H    -4.492370  3.803455  3.833578
Cd    -0.183193  1.573449  4.958378
