34
Energy: -172327.604099 eV PBE+vdW (tier 2 basis)
C    -0.382198  -0.769079  -0.499141
C    -0.043938  -0.344290  0.888374
O    1.171502  -0.308654  1.256762
H    -1.432199  -1.052093  -0.617958
H    0.259991  -1.621831  -0.758384
H    -0.125893  0.031476  -1.209692
N    -1.016123  -0.010709  1.775750
C    -2.128049  0.896252  1.489617
C    -1.554179  2.335427  1.511135
O    -0.440483  2.591061  2.078546
H    -0.676009  0.066621  2.735687
H    -2.499439  0.674376  0.478958
C    -3.268609  0.705960  2.510572
C    -3.942208  -0.669917  2.389066
C    -5.215408  -0.839868  3.231708
C    -4.980903  -0.926953  4.751760
N    -6.186780  -1.214166  5.461107
H    -4.015301  1.496951  2.353158
H    -2.862236  0.874266  3.521320
H    -3.222208  -1.466371  2.633104
H    -4.222538  -0.829164  1.336042
H    -5.714078  -1.764325  2.903796
H    -5.922776  -0.021049  3.031525
H    -4.559286  0.001070  5.163943
H    -4.222614  -1.722146  4.940976
H    -6.304811  -0.909624  6.421985
H    -6.777805  -1.987540  5.168438
N    -2.234077  3.332603  0.961696
C    -3.540972  3.317601  0.303125
H    -1.783627  4.244394  1.056095
H    -3.779705  2.320515  -0.077819
H    -3.509501  4.011160  -0.543990
H    -4.329057  3.643369  0.994511
Cd    1.583411  1.639926  2.260100
