34
Energy: -172328.24814 eV PBE+vdW (tier 2 basis)
C    -0.409813  -0.973500  0.212667
C    -0.132068  -0.708493  1.656729
O    1.004775  -1.093974  2.104180
H    -1.389483  -0.610011  -0.114933
H    -0.358830  -2.059933  0.046810
H    0.380618  -0.523304  -0.401797
N    -1.083013  -0.104433  2.384990
C    -1.308340  0.012136  3.848442
C    -0.573372  1.150198  4.565141
O    0.700079  1.380315  4.496528
H    -1.886837  0.179757  1.831210
H    -2.361913  0.303519  3.903901
C    -1.178556  -1.325966  4.624737
C    -2.470312  -2.161076  4.598104
C    -3.610827  -1.723225  5.538494
C    -4.427767  -0.464512  5.208767
N    -3.880424  0.799962  5.781116
H    -0.911282  -1.098929  5.668203
H    -0.353831  -1.928387  4.213796
H    -2.197998  -3.187853  4.879535
H    -2.842318  -2.235237  3.562664
H    -3.237087  -1.657901  6.574095
H    -4.325157  -2.558446  5.552061
H    -5.451677  -0.613300  5.586448
H    -4.528542  -0.331128  4.120299
H    -4.546823  1.557294  5.600930
H    -3.847828  0.709382  6.801513
N    -1.327100  1.875248  5.350645
C    -0.831149  2.927864  6.236315
H    -2.350341  1.548417  5.440997
H    -0.662306  3.851795  5.668393
H    0.110320  2.628066  6.709698
H    -1.588300  3.118020  7.002412
Cd    1.963499  -0.089363  3.694909
