34
Energy: -172328.087756 eV PBE+vdW (tier 2 basis)
C    -0.250086  0.028610  -0.151382
C    -0.125953  0.126556  1.335905
O    0.809289  0.836671  1.814189
H    0.693026  -0.345680  -0.570047
H    -0.397844  1.040252  -0.555175
H    -1.077725  -0.610952  -0.476150
N    -1.028311  -0.529545  2.089457
C    -1.257531  -0.381030  3.534521
C    -0.358118  -1.356804  4.323889
O    0.865748  -1.075420  4.541970
H    -1.716143  -1.077891  1.579604
H    -0.881254  0.617617  3.809569
C    -2.770498  -0.354563  3.853574
C    -3.654646  -1.545308  3.428347
C    -5.143490  -1.180671  3.286463
C    -5.838483  -0.798450  4.605703
N    -7.238672  -0.566057  4.411804
H    -3.151844  0.552683  3.360286
H    -2.866841  -0.168928  4.932952
H    -3.580221  -2.381465  4.145134
H    -3.334699  -1.958633  2.458010
H    -5.665974  -2.044717  2.849641
H    -5.259782  -0.352664  2.571171
H    -5.405918  0.110918  5.046849
H    -5.668952  -1.613557  5.345724
H    -7.806243  -1.290419  3.980020
H    -7.737565  0.028522  5.066079
N    -0.845356  -2.497507  4.776518
C    -0.055362  -3.485675  5.520440
H    -1.824690  -2.699590  4.597126
H    -0.712133  -4.314458  5.795519
H    0.361285  -3.031150  6.426696
H    0.766456  -3.860390  4.898929
Cd    1.914555  0.635626  3.679877
