34
Energy: -172327.247532 eV PBE+vdW (tier 2 basis)
C    -0.229178  0.135242  0.394153
C    0.364043  0.532898  1.709713
O    1.334628  1.358220  1.786088
H    -0.713470  1.011388  -0.060943
H    -0.964074  -0.671239  0.456648
H    0.578084  -0.189137  -0.275670
N    -0.093243  0.046540  2.866395
C    -1.137880  -0.965945  3.118743
C    -1.798788  -0.529029  4.444784
O    -1.174444  -0.660791  5.514099
H    0.416760  0.361300  3.695406
H    -1.872306  -0.924641  2.303644
C    -0.504304  -2.367983  3.205012
C    -1.459304  -3.555378  3.421808
C    -2.170470  -3.666498  4.785278
C    -1.289682  -3.514169  6.023294
N    -0.240413  -4.435667  6.157008
H    0.270668  -2.337305  3.985856
H    0.031781  -2.530936  2.258626
H    -0.872580  -4.468325  3.237191
H    -2.230824  -3.565674  2.637263
H    -2.683988  -4.639070  4.832601
H    -2.962339  -2.910505  4.873442
H    -1.875009  -3.484898  6.960872
H    -0.884290  -2.439487  5.993292
H    0.123990  -4.963070  5.369259
H    0.224200  -4.576224  7.049961
N    -3.022381  0.018029  4.369879
C    -3.757691  0.525261  5.524441
H    -3.436861  0.151358  3.451690
H    -3.299242  0.131457  6.435537
H    -4.804468  0.207792  5.457128
H    -3.720250  1.622688  5.553844
Cd    2.393396  2.619417  0.296958
