34
Energy: -172327.356398 eV PBE+vdW (tier 2 basis)
C    0.502737  0.127552  0.203362
C    0.179900  -0.078694  1.649429
O    1.100047  -0.250646  2.526013
H    1.063056  1.067210  0.090567
H    -0.372746  0.170490  -0.449322
H    1.145576  -0.694291  -0.139740
N    -1.070882  -0.096738  2.100300
C    -2.343181  0.011037  1.363211
C    -3.312666  0.690005  2.358854
O    -3.525090  0.128343  3.447158
H    -1.179902  -0.266925  3.104516
H    -2.194478  0.654706  0.486198
C    -2.836661  -1.383407  0.927943
C    -4.179535  -1.437573  0.185103
C    -5.481851  -1.300157  1.007661
C    -5.722205  -2.403117  2.037245
N    -4.955388  -2.303053  3.225508
H    -2.850246  -2.038631  1.814262
H    -2.060814  -1.802891  0.268708
H    -4.213962  -2.396267  -0.352322
H    -4.206121  -0.666642  -0.602117
H    -6.319581  -1.335890  0.298424
H    -5.556664  -0.319119  1.497903
H    -5.612756  -3.419587  1.612045
H    -6.808488  -2.374035  2.315512
H    -4.544848  -1.405855  3.522141
H    -4.926396  -3.081302  3.880345
N    -3.865083  1.846444  1.977430
C    -4.814893  2.603368  2.793207
H    -3.613302  2.226624  1.070228
H    -4.490434  3.647781  2.860760
H    -4.844340  2.165047  3.794180
H    -5.816902  2.569305  2.346764
Cd    3.284318  -0.097116  2.438413
