34
Energy: -172328.480081 eV PBE+vdW (tier 2 basis)
C    -0.179478  -0.867970  0.395059
C    -1.105920  -0.802604  1.564346
O    -1.936099  -1.766874  1.715640
H    -0.759914  -0.966202  -0.531176
H    0.426191  -1.781590  0.487365
H    0.489655  -0.003782  0.326254
N    -1.013061  0.241002  2.399812
C    -1.532445  0.387515  3.780458
C    -2.868121  1.158580  3.850692
O    -3.919031  0.661585  3.209706
H    -0.343258  0.954422  2.121230
H    -1.747900  -0.635134  4.141044
C    -0.418942  0.955431  4.675282
C    0.279125  2.230199  4.147901
C    0.814544  3.158757  5.256681
C    -0.145405  4.261427  5.687017
N    -1.439157  3.727023  6.257281
H    0.332635  0.169352  4.830686
H    -0.874212  1.117561  5.660704
H    -0.398966  2.812710  3.503029
H    1.130207  1.935746  3.517712
H    1.715034  3.676711  4.899268
H    1.144933  2.571490  6.128100
H    -0.428357  4.893123  4.834981
H    0.310485  4.905232  6.448959
H    -2.058258  4.501854  6.523229
H    -1.978013  3.089975  5.534347
N    -2.973759  2.251070  4.529893
C    -4.290880  2.889607  4.616881
H    -1.267240  3.181749  7.110459
H    -4.554728  3.370989  3.664509
H    -4.268778  3.665028  5.391445
H    -5.084155  2.170460  4.859130
Cd    -3.848730  -1.290442  2.510079
