34
Energy: -172328.189999 eV PBE+vdW (tier 2 basis)
C    -0.486135  0.079503  -0.177199
C    -0.406183  -0.088771  1.309319
O    0.651969  -0.592728  1.791990
H    -0.294052  -0.892880  -0.650483
H    0.316924  0.753701  -0.504141
H    -1.450137  0.465722  -0.524704
N    -1.472640  0.297534  2.033269
C    -1.805079  0.097132  3.462935
C    -1.072959  1.096709  4.376447
O    0.177067  1.058902  4.606061
H    -2.223050  0.703073  1.481650
H    -2.873008  0.351156  3.515386
C    -1.682824  -1.355497  3.969291
C    -2.585398  -2.345653  3.219217
C    -2.559557  -3.744433  3.847743
C    -3.523293  -4.719008  3.140044
N    -3.510459  -6.021396  3.731695
H    -1.952309  -1.338654  5.036648
H    -0.639731  -1.709796  3.926233
H    -2.282883  -2.406656  2.162324
H    -3.618906  -1.961433  3.225756
H    -2.843576  -3.691476  4.909089
H    -1.537835  -4.155591  3.811609
H    -3.244157  -4.773697  2.064284
H    -4.553276  -4.337964  3.172076
H    -4.355857  -6.582826  3.728454
H    -2.643256  -6.548533  3.776035
N    -1.808390  2.021504  4.974944
C    -1.268325  3.019490  5.905017
H    -2.804368  2.050488  4.777108
H    -0.682524  2.524240  6.687290
H    -2.105473  3.556569  6.357700
H    -0.625049  3.729195  5.370516
Cd    1.644726  -0.264929  3.698392
