34
Energy: -172327.483605 eV PBE+vdW (tier 2 basis)
C    0.333558  -0.689933  0.440631
C    0.060305  -0.228907  1.832614
O    1.037995  0.076737  2.584857
H    1.350123  -0.390807  0.165065
H    -0.388072  -0.291902  -0.279076
H    0.296759  -1.791180  0.404729
N    -1.202135  -0.125227  2.323155
C    -2.285910  -1.114451  2.191157
C    -1.804055  -2.432482  2.860243
O    -0.789456  -2.466213  3.626310
H    -1.238637  0.406061  3.192432
H    -3.078064  -0.731314  2.855050
C    -2.917592  -1.243846  0.790292
C    -3.401904  0.108706  0.240634
C    -4.323621  0.016452  -0.984367
C    -3.632963  -0.430474  -2.286444
N    -4.517272  -0.370316  -3.406089
H    -3.796982  -1.900942  0.884976
H    -2.230173  -1.748860  0.098080
H    -2.541090  0.756915  0.014149
H    -3.961414  0.628488  1.033495
H    -4.762981  1.011768  -1.148801
H    -5.166863  -0.661121  -0.782209
H    -3.238899  -1.455197  -2.221726
H    -2.750542  0.230216  -2.456078
H    -4.379018  -0.978239  -4.206957
H    -5.064432  0.468739  -3.578721
N    -2.505362  -3.536969  2.660819
C    -2.215045  -4.820035  3.311443
H    -3.301342  -3.494047  2.032069
H    -2.999480  -5.529420  3.036604
H    -2.200204  -4.696405  4.400212
H    -1.243611  -5.205723  2.980234
Cd    0.849705  -1.163687  4.422788
