34
Energy: -172327.443888 eV PBE+vdW (tier 2 basis)
C    0.351252  -0.438240  0.014796
C    0.166598  -0.245478  1.491650
O    1.094756  -0.366031  2.300218
H    1.089567  0.289875  -0.346639
H    -0.570077  -0.338188  -0.568856
H    0.784030  -1.432806  -0.155454
N    -1.108001  0.075707  1.917408
C    -1.568056  0.127664  3.294533
C    -0.946153  1.312355  4.110406
O    -1.801508  2.065020  4.678933
H    -1.801164  0.268087  1.200219
H    -2.638488  0.361369  3.248792
C    -1.387930  -1.178414  4.108540
C    -2.257312  -2.362079  3.627486
C    -1.732778  -3.095384  2.396875
C    -2.492668  -4.461061  2.108999
N    -2.184895  -5.505477  3.010636
H    -1.669553  -0.949519  5.146686
H    -0.326231  -1.459075  4.125967
H    -3.293707  -2.029172  3.459027
H    -2.299121  -3.058222  4.478040
H    -0.659537  -3.315772  2.490525
H    -1.872019  -2.509947  1.476529
H    -2.189620  -4.761212  1.093727
H    -3.573483  -4.268305  2.122646
H    -1.353185  -6.075953  2.891536
H    -2.795656  -5.750428  3.782940
N    0.363883  1.403379  4.167548
C    1.127260  2.417399  4.881408
H    0.864360  0.689777  3.582030
H    2.190704  2.235317  4.697277
H    0.963711  2.352350  5.967457
H    0.897096  3.429286  4.514554
Cd    -1.729198  3.831508  6.009404
