34
Energy: -172329.769973 eV PBE+vdW (tier 2 basis)
C    0.131653  -0.758340  0.683918
C    -0.601837  -0.987313  1.967599
O    -0.416136  -2.069350  2.590994
H    -0.124359  0.185959  0.192521
H    -0.074442  -1.591963  -0.000077
H    1.211030  -0.776736  0.889338
N    -1.436450  -0.013607  2.388031
C    -2.261822  0.071852  3.611998
C    -1.342990  0.094631  4.858948
O    -0.934025  -0.977884  5.410112
H    -1.500284  0.791826  1.772645
H    -2.729545  1.057586  3.530891
C    -3.413900  -0.973052  3.780396
C    -3.803227  -1.856080  2.575876
C    -4.518092  -3.167801  2.977497
C    -3.656267  -4.427442  3.091370
N    -2.738431  -4.494918  4.303679
H    -4.300021  -0.410702  4.105787
H    -3.207014  -1.598135  4.668474
H    -2.930232  -2.101952  1.954219
H    -4.464432  -1.277453  1.918974
H    -5.256293  -3.409423  2.199718
H    -5.115788  -3.027471  3.892776
H    -3.016068  -4.543945  2.206874
H    -4.309422  -5.309578  3.144367
H    -3.310424  -4.500133  5.156374
H    -2.263365  -5.404843  4.295951
N    -0.969997  1.257864  5.369204
C    -1.317639  2.612529  4.923220
H    -0.354701  1.180830  6.180292
H    -0.955107  2.802360  3.905680
H    -0.823415  3.320332  5.594212
H    -2.398560  2.788964  4.984237
Cd    -1.278276  -2.862522  4.417587
