34
Energy: -172329.184 eV PBE+vdW (tier 2 basis)
C    0.561237  1.196236  1.433895
C    -0.230468  0.508746  2.479367
O    0.268378  0.288081  3.632715
H    -0.008366  1.382202  0.518534
H    1.404777  0.531854  1.177422
H    1.005573  2.119259  1.826421
N    -1.496482  0.064616  2.230933
C    -2.619228  0.871222  1.733899
C    -2.533314  2.275778  2.351163
O    -2.028443  2.441837  3.505378
H    -1.777890  -0.679856  2.869220
H    -2.596527  0.933824  0.638179
C    -3.944978  0.160179  2.146682
C    -4.127461  -0.219110  3.632738
C    -4.646635  0.857599  4.611415
C    -4.290742  0.565753  6.072864
N    -2.907009  1.053726  6.479470
H    -4.001710  -0.754208  1.539612
H    -4.785436  0.787590  1.819533
H    -3.196608  -0.673810  4.037783
H    -4.825391  -1.067450  3.663757
H    -5.742185  0.893423  4.542793
H    -4.307471  1.869305  4.347940
H    -4.320947  -0.511677  6.279159
H    -5.004272  1.051622  6.751183
H    -2.968792  2.056193  6.692439
H    -2.643698  0.605075  7.363865
N    -3.019110  3.311050  1.679463
C    -3.600323  3.328480  0.330269
H    -2.957270  4.202126  2.171746
H    -2.885712  2.958943  -0.415442
H    -3.840522  4.365912  0.083093
H    -4.526087  2.743008  0.282308
Cd    -1.305479  0.894451  4.983060
