34
Energy: -172327.246004 eV PBE+vdW (tier 2 basis)
C    0.112479  -1.509592  -0.752567
C    0.627238  -1.076719  0.584077
O    1.867947  -1.213633  0.903281
H    0.621854  -0.931877  -1.537908
H    -0.965072  -1.378424  -0.878726
H    0.348656  -2.572032  -0.903746
N    -0.158725  -0.542405  1.504791
C    -1.591746  -0.227933  1.441914
C    -1.788371  0.873856  2.507033
O    -1.031927  0.882710  3.497484
H    0.274680  -0.227361  2.383394
H    -1.816308  0.159327  0.440865
C    -2.534445  -1.434000  1.736504
C    -2.821550  -1.752575  3.209021
C    -1.646762  -2.340665  4.023466
C    -1.773869  -2.080631  5.518268
N    -1.561607  -0.723765  5.874193
H    -2.129979  -2.317369  1.218890
H    -3.490705  -1.214006  1.240784
H    -3.662108  -2.459890  3.239092
H    -3.195402  -0.843495  3.706928
H    -0.682217  -1.932656  3.690418
H    -1.589909  -3.425791  3.864035
H    -1.053846  -2.716707  6.089429
H    -2.751190  -2.422796  5.924978
H    -1.251305  -0.034040  5.177337
H    -1.702401  -0.410338  6.831759
N    -2.796352  1.741988  2.357888
C    -3.783767  1.832014  1.283703
H    -2.890658  2.397893  3.132092
H    -3.326086  1.642681  0.306407
H    -4.184518  2.850079  1.269957
H    -4.617632  1.134175  1.438817
Cd    3.601175  -1.763206  -0.289278
