34
Energy: -172327.396698 eV PBE+vdW (tier 2 basis)
C    -0.386132  1.171713  0.355992
C    -0.321430  0.726770  1.781197
O    0.642593  1.082301  2.552322
H    -0.479525  2.267683  0.325541
H    -1.223103  0.745501  -0.203157
H    0.551397  0.904002  -0.148495
N    -1.233420  -0.073888  2.319134
C    -2.337227  -0.807758  1.709393
C    -3.293260  -1.070680  2.913092
O    -2.790178  -1.290187  4.015447
H    -1.125141  -0.315469  3.316753
H    -2.822403  -0.189462  0.941535
C    -1.837210  -2.151244  1.105087
C    -2.929666  -3.017501  0.466178
C    -2.326217  -4.288282  -0.142683
C    -3.448595  -5.217468  -0.748847
N    -2.938275  -6.416061  -1.304817
H    -1.331400  -2.708128  1.907894
H    -1.069591  -1.903382  0.355001
H    -3.459442  -2.446530  -0.313815
H    -3.678566  -3.294121  1.223132
H    -1.782493  -4.864180  0.619487
H    -1.615828  -4.046137  -0.945707
H    -3.978216  -4.653989  -1.530328
H    -4.151481  -5.467049  0.060094
H    -2.757250  -7.232791  -0.728535
H    -2.631207  -6.465978  -2.271608
N    -4.611996  -1.062303  2.653949
C    -5.621244  -1.259142  3.693738
H    -4.925948  -0.785060  1.729510
H    -6.478804  -1.789079  3.266043
H    -5.960591  -0.297366  4.100944
H    -5.181533  -1.849660  4.503061
Cd    1.846678  2.894099  2.681422
