34
Energy: -172327.446787 eV PBE+vdW (tier 2 basis)
C    -1.394782  0.603847  -0.989460
C    -0.290638  0.897415  -0.032468
O    0.832581  1.278574  -0.497193
H    -1.211080  1.170124  -1.909748
H    -2.383102  0.836700  -0.584712
H    -1.364640  -0.463953  -1.261794
N    -0.434258  0.782390  1.312381
C    -1.050299  -0.324207  2.064249
C    -0.170598  -1.588052  1.845057
O    0.967676  -1.537179  1.273933
H    0.309997  1.255682  1.824621
H    -0.902582  -0.045946  3.120720
C    -2.568292  -0.509676  1.865725
C    -3.360202  0.757139  2.221011
C    -4.890869  0.606281  2.166711
C    -5.520388  0.684831  0.769651
N    -5.240621  -0.454614  -0.072290
H    -2.897191  -1.311384  2.545716
H    -2.798927  -0.861963  0.851093
H    -3.051127  1.594801  1.576094
H    -3.090005  1.060311  3.245058
H    -5.335317  1.419290  2.756434
H    -5.205359  -0.324270  2.666878
H    -5.197734  1.594787  0.241743
H    -6.618581  0.797116  0.909211
H    -5.463180  -0.345452  -1.060198
H    -5.553917  -1.357017  0.283492
N    -0.606422  -2.746046  2.310898
C    0.159222  -3.997121  2.255497
H    -1.526320  -2.773535  2.740479
H    -0.373787  -4.751297  2.839757
H    1.157957  -3.845765  2.679584
H    0.256279  -4.341438  1.218864
Cd    2.360504  -0.055605  0.383175
