34
Energy: -172327.27801 eV PBE+vdW (tier 2 basis)
C    0.900689  -0.300522  0.857075
C    0.162501  -0.719645  2.083937
O    0.770638  -1.304135  3.049450
H    1.689203  0.409043  1.161441
H    0.281060  0.169124  0.094745
H    1.375593  -1.182304  0.409466
N    -1.145685  -0.505879  2.297484
C    -2.246269  -0.244953  1.361067
C    -2.372954  -1.436537  0.356852
O    -1.363782  -1.843050  -0.217456
H    -1.439791  -0.835420  3.217688
H    -3.134677  -0.229937  2.008190
C    -2.165877  1.113330  0.621031
C    -3.540626  1.617179  0.156066
C    -3.425279  2.997261  -0.510082
C    -4.788240  3.581602  -0.946013
N    -5.376501  2.923867  -2.063413
H    -1.497042  1.036743  -0.246435
H    -1.719513  1.841192  1.314705
H    -4.219878  1.685590  1.021183
H    -3.993137  0.906665  -0.552387
H    -2.755635  2.948895  -1.383115
H    -2.975526  3.719890  0.185732
H    -4.593016  4.649593  -1.202056
H    -5.510540  3.593433  -0.118919
H    -6.387334  2.866208  -2.147686
H    -4.862645  2.859973  -2.939078
N    -3.612718  -1.917768  0.167651
C    -3.902571  -3.022193  -0.747139
H    -4.363048  -1.581028  0.761805
H    -3.897373  -3.983153  -0.216220
H    -3.136266  -3.044643  -1.527646
H    -4.887961  -2.866615  -1.198243
Cd    2.907300  -1.280706  3.538918
