34
Energy: -172328.203723 eV PBE+vdW (tier 2 basis)
C    -0.052751  -0.848958  -0.107933
C    0.081264  -0.086367  1.171741
O    0.550967  1.089805  1.125125
H    -0.707852  -0.282014  -0.784282
H    -0.462354  -1.855591  0.027723
H    0.928725  -0.912159  -0.595499
N    -0.325061  -0.683565  2.308355
C    -0.496642  -0.055398  3.628144
C    0.841864  -0.087482  4.399498
O    1.710767  0.829018  4.240624
H    -0.669061  -1.636127  2.213013
H    -0.710568  1.011785  3.454451
C    -1.711192  -0.662767  4.350235
C    -2.105841  0.095508  5.628432
C    -3.252634  -0.548966  6.423219
C    -4.633425  -0.459992  5.749302
N    -5.665985  -0.986072  6.589886
H    -1.534492  -1.730586  4.573537
H    -2.540997  -0.649660  3.628091
H    -2.374125  1.131581  5.365469
H    -1.238173  0.171488  6.301017
H    -3.308482  -0.045666  7.399987
H    -3.029895  -1.605864  6.635375
H    -4.665167  -1.008912  4.796764
H    -4.833882  0.606424  5.497048
H    -6.531875  -1.313065  6.172957
H    -5.753786  -0.644186  7.543155
N    1.099486  -1.094509  5.215443
C    2.355630  -1.247937  5.958575
H    0.370083  -1.785564  5.365469
H    2.433918  -0.480019  6.738045
H    3.207510  -1.151444  5.276957
H    2.364778  -2.238565  6.419770
Cd    1.666018  2.265563  2.587571
