34
Energy: -172328.033812 eV PBE+vdW (tier 2 basis)
C    -0.025765  0.193985  0.114351
C    -0.001316  -0.056482  1.590902
O    1.058884  -0.544118  2.085041
H    -0.974392  0.606638  -0.244968
H    0.173676  -0.754387  -0.403443
H    0.793741  0.876748  -0.146181
N    -1.112986  0.245807  2.287938
C    -1.498258  -0.036249  3.691131
C    -0.797544  0.925223  4.672774
O    0.407787  0.762360  5.052631
H    -1.858693  0.640707  1.722056
H    -2.566490  0.208864  3.718342
C    -1.391406  -1.513455  4.111676
C    -2.099568  -1.787153  5.444040
C    -2.044037  -3.257738  5.895912
C    -2.984793  -4.203825  5.138472
N    -4.372937  -3.900872  5.376557
H    -0.337143  -1.845600  4.185816
H    -1.821449  -2.112894  3.296216
H    -3.156559  -1.482647  5.364193
H    -1.651219  -1.164359  6.233566
H    -2.288744  -3.303104  6.967629
H    -1.018382  -3.648051  5.812288
H    -2.743768  -5.242701  5.451345
H    -2.809558  -4.181513  4.051899
H    -5.053946  -4.334181  4.757774
H    -4.681602  -3.891141  6.347115
N    -1.472749  1.952525  5.167011
C    -2.865012  2.349683  4.922225
H    -0.934448  2.533385  5.811533
H    -3.038173  2.566288  3.861387
H    -3.051128  3.267664  5.486480
H    -3.566935  1.585083  5.276650
Cd    1.847083  -0.550781  4.097802
