34
Energy: -172327.211687 eV PBE+vdW (tier 2 basis)
C    -0.203698  -0.660665  2.365008
C    -1.367906  -0.402409  3.263338
O    -1.246085  -0.377485  4.539538
H    -0.495744  -0.868102  1.332461
H    0.353637  -1.528140  2.743664
H    0.466041  0.211394  2.393990
N    -2.600884  -0.166099  2.806457
C    -3.138785  0.024243  1.431335
C    -3.118517  -1.322908  0.656241
O    -2.123164  -1.650627  -0.012476
H    -3.273461  -0.006697  3.556634
H    -4.189372  0.294345  1.610160
C    -2.483267  1.187050  0.669404
C    -3.336345  1.776673  -0.466402
C    -3.545807  0.948968  -1.753580
C    -2.315545  0.811872  -2.648873
N    -1.313287  -0.072570  -2.181130
H    -2.307877  1.991000  1.399545
H    -1.491473  0.888113  0.298875
H    -2.888974  2.742500  -0.743286
H    -4.334547  2.025809  -0.072485
H    -4.311611  1.460543  -2.351825
H    -3.962235  -0.046910  -1.539262
H    -1.858026  1.789817  -2.896836
H    -2.664331  0.451719  -3.652789
H    -0.399905  -0.088050  -2.628949
H    -1.534471  -0.807536  -1.492742
N    -4.216992  -2.080284  0.771460
C    -4.379777  -3.383858  0.128904
H    -4.999897  -1.720833  1.309175
H    -3.397729  -3.748694  -0.183330
H    -5.032899  -3.303216  -0.749748
H    -4.826705  -4.086656  0.840406
Cd    0.417004  -0.844025  5.893096
