34
Energy: -172328.195958 eV PBE+vdW (tier 2 basis)
C    0.154258  0.678349  0.128320
C    -0.012534  0.739872  1.613143
O    0.914141  1.274507  2.296308
H    0.266884  1.703212  -0.252594
H    -0.686294  0.196140  -0.381941
H    1.084985  0.147048  -0.109368
N    -1.144035  0.242928  2.144617
C    -1.627599  0.402714  3.526335
C    -1.032978  -0.705859  4.424697
O    0.105989  -0.562692  4.979627
H    -1.801672  -0.166320  1.485022
H    -1.210810  1.348396  3.911195
C    -3.159205  0.532647  3.537822
C    -3.731867  0.927702  4.906794
C    -5.261321  1.094343  4.945546
C    -5.812256  2.356028  4.263334
N    -5.760241  2.308732  2.818228
H    -3.628740  -0.400146  3.175234
H    -3.430631  1.298238  2.793999
H    -3.258638  1.866541  5.238748
H    -3.461230  0.173394  5.662323
H    -5.569599  1.139466  5.998772
H    -5.756685  0.201391  4.530159
H    -5.267504  3.249958  4.599829
H    -6.858845  2.490044  4.609997
H    -6.335919  1.590692  2.380355
H    -5.859888  3.203480  2.342598
N    -1.706485  -1.826832  4.604454
C    -1.224964  -2.960764  5.401914
H    -2.637797  -1.889406  4.202319
H    -1.275320  -2.723172  6.471992
H    -0.187841  -3.189326  5.135621
H    -1.859012  -3.825453  5.190246
Cd    1.519916  0.973958  4.359821
