34
Energy: -172328.159548 eV PBE+vdW (tier 2 basis)
C    1.170288  -0.351310  2.025249
C    0.095325  0.687409  2.182863
O    0.581281  1.805620  2.756516
H    0.776725  -1.222700  1.494904
H    1.551901  -0.650680  3.010157
H    2.018970  0.074312  1.472865
N    -1.099589  0.416965  1.754086
C    -2.177781  1.384326  1.626298
C    -3.075136  1.354900  2.875861
O    -2.840092  2.122077  3.886052
H    -2.934809  1.367659  -3.693809
H    -1.829780  2.445330  1.565028
C    -2.937663  1.073893  0.312043
C    -2.034587  1.149383  -0.932227
C    -1.793396  2.560027  -1.501592
C    -2.879341  3.087330  -2.434916
N    -2.834969  2.388105  -3.791553
H    -3.812314  1.737649  0.221739
H    -3.309085  0.040294  0.376848
H    -2.457888  0.485634  -1.705087
H    -1.070589  0.688969  -0.676535
H    -0.822678  2.601988  -2.021215
H    -1.703450  3.296150  -0.688795
H    -2.756318  4.155158  -2.650395
H    -3.893044  2.925830  -2.046892
H    -3.587687  2.716374  -4.413066
H    -1.939597  2.564160  -4.269776
N    -4.084269  0.511009  2.953171
C    -4.927842  0.340011  4.140719
H    -4.250156  -0.095943  2.156061
H    -5.716492  -0.377585  3.902103
H    -5.377489  1.297233  4.426609
H    -4.330853  -0.039229  4.979064
Cd    -0.837596  2.810649  3.839623
