34
Energy: -172329.032512 eV PBE+vdW (tier 2 basis)
C    -0.925490  1.986374  -1.104122
C    -0.735460  1.707233  0.337981
O    0.261111  2.027003  0.982461
H    -0.940282  1.033017  -1.659923
H    -0.115791  2.611946  -1.489994
H    -1.901889  2.458846  -1.287635
N    -1.742678  0.955773  1.090929
C    -2.999869  1.642014  1.547085
C    -2.642739  2.918742  2.318203
O    -1.672387  2.913325  3.139420
H    -2.035315  0.128442  0.561026
H    -3.636429  1.869343  0.681702
C    -3.747412  0.718678  2.556637
C    -3.688523  -0.814823  2.339618
C    -2.919387  -1.646766  3.391620
C    -1.398089  -1.840907  3.301452
N    -0.549329  -0.824275  4.050223
H    -4.793756  1.051075  2.557171
H    -3.374414  0.945897  3.567448
H    -3.347318  -1.087705  1.327298
H    -4.723309  -1.179329  2.364692
H    -3.328057  -2.665846  3.330848
H    -3.193433  -1.308886  4.405311
H    -1.048693  -1.860184  2.260580
H    -1.148686  -2.817822  3.737293
H    0.387860  -1.222474  4.178110
H    -0.921752  -0.716721  5.000967
N    -3.397025  3.999583  2.191854
C    -4.578524  4.197310  1.342242
H    -3.127768  4.771015  2.803943
H    -4.339793  4.039713  0.283711
H    -4.904527  5.233910  1.462186
H    -5.404052  3.541892  1.645275
Cd    -0.404815  1.135307  3.058413
