34
Energy: -172328.03405 eV PBE+vdW (tier 2 basis)
C    -2.018424  2.058129  2.079183
C    -1.235304  0.998835  2.790734
O    -0.029257  0.829132  2.442595
H    -3.045213  2.164109  2.444896
H    -2.039978  1.815996  1.007555
H    -1.493024  3.017118  2.178025
N    -1.870261  0.298826  3.751779
C    -1.453050  -0.890304  4.530505
C    -0.430706  -0.509046  5.628427
O    0.814469  -0.387605  5.393954
H    -2.832587  0.586332  3.903975
H    -2.367496  -1.193603  5.053192
C    -1.031399  -2.107514  3.691371
C    -0.915408  -3.402763  4.507106
C    -2.258909  -4.074600  4.862683
C    -2.988467  -4.684262  3.660632
N    -3.536876  -3.677653  2.757791
H    -0.072033  -1.942460  3.137215
H    -1.775187  -2.236548  2.882481
H    -0.345432  -3.226390  5.433086
H    -0.315154  -4.118336  3.927356
H    -2.934730  -3.378743  5.389439
H    -2.053969  -4.879904  5.581617
H    -3.786313  -5.350867  4.041013
H    -2.300546  -5.321210  3.088026
H    -3.691121  -4.013774  1.807952
H    -4.390688  -3.238170  3.101341
N    -0.855915  -0.315219  6.867862
C    -2.220255  -0.406494  7.401301
H    -0.117900  -0.068021  7.528995
H    -2.179088  -0.144329  8.462187
H    -2.613472  -1.427546  7.321159
H    -2.892222  0.304591  6.906054
Cd    1.532953  -0.355153  3.349240
