34
Energy: -172327.085503 eV PBE+vdW (tier 2 basis)
C    -1.102405  0.969335  -0.487510
C    -0.580494  0.872122  0.909557
O    0.668516  1.025306  1.173955
H    -0.976902  2.001258  -0.848012
H    -2.159608  0.706238  -0.578104
H    -0.513234  0.312751  -1.140259
N    -1.363328  0.605465  1.944396
C    -2.778468  0.241330  2.022271
C    -3.188008  0.749707  3.445091
O    -2.367078  0.648537  4.354555
H    -0.918843  0.592155  2.875033
H    -3.346527  0.770846  1.245515
C    -2.963640  -1.294712  1.935823
C    -4.384718  -1.815266  2.174630
C    -5.348469  -1.764063  0.981744
C    -5.200360  -2.984283  0.022213
N    -3.976506  -3.011662  -0.718579
H    -2.277400  -1.746702  2.666494
H    -2.614145  -1.619049  0.936720
H    -4.847987  -1.266582  3.012313
H    -4.314695  -2.850414  2.539116
H    -5.247703  -0.832300  0.402094
H    -6.387142  -1.794636  1.337817
H    -6.059029  -2.929447  -0.676961
H    -5.293089  -3.914203  0.595422
H    -3.455187  -3.882243  -0.774791
H    -3.902150  -2.429431  -1.548643
N    -4.433608  1.240068  3.579092
C    -4.990995  1.646462  4.868388
H    -5.029729  1.295904  2.759542
H    -5.610627  2.538073  4.724394
H    -4.166022  1.868710  5.551880
H    -5.606918  0.847401  5.302777
Cd    2.283314  2.163341  0.265053
