34
Energy: -172328.086464 eV PBE+vdW (tier 2 basis)
C    -0.222309  1.137586  0.504216
C    -0.261265  0.241375  1.703691
O    0.399377  -0.838757  1.651288
H    -0.818281  2.049225  0.618136
H    -0.590891  0.573104  -0.363555
H    0.820874  1.404677  0.290132
N    -1.007213  0.641203  2.750759
C    -1.420258  -0.065415  3.986753
C    -0.278260  -0.100703  5.021624
O    0.689979  -0.924951  4.948005
H    -1.458299  1.541420  2.615169
H    -2.204216  0.580072  4.399867
C    -2.075695  -1.440229  3.760136
C    -2.841997  -1.937147  4.990153
C    -3.502908  -3.303695  4.756917
C    -4.335128  -3.787499  5.953398
N    -5.492579  -2.965417  6.195294
H    -1.331442  -2.203110  3.457470
H    -2.751626  -1.343710  2.898090
H    -3.622269  -1.204736  5.255101
H    -2.167632  -2.002933  5.860292
H    -2.738686  -4.067731  4.549258
H    -4.144840  -3.261822  3.862055
H    -3.729716  -3.810456  6.870925
H    -4.631506  -4.840077  5.756953
H    -6.187666  -2.909815  5.453450
H    -5.910550  -3.010951  7.121097
N    -0.304723  0.740363  6.045787
C    -1.305014  1.762295  6.379120
H    0.489205  0.647859  6.680980
H    -1.386079  2.515893  5.586641
H    -0.970895  2.267749  7.289392
H    -2.284717  1.312425  6.580529
Cd    1.196486  -2.117205  3.201581
