34
Energy: -172328.022054 eV PBE+vdW (tier 2 basis)
C    -0.561574  -1.207036  0.489848
C    -0.276846  -0.335139  1.675751
O    0.803672  -0.529216  2.302277
H    -1.556616  -1.056592  0.058317
H    -0.449606  -2.257104  0.789259
H    0.199440  -1.013492  -0.278909
N    -1.210914  0.586645  1.988695
C    -1.363751  1.571330  3.084563
C    -0.383445  2.750729  2.991221
O    0.879671  2.611003  2.956435
H    -1.998719  0.584656  1.347276
H    -2.351737  1.996318  2.873257
C    -1.526426  1.005651  4.526387
C    -0.428379  0.202559  5.239702
C    -0.732394  -0.084718  6.715888
C    -1.977804  -1.027584  6.928558
N    -2.175899  -1.372274  8.292741
H    -2.426019  0.373583  4.487719
H    -1.793178  1.871306  5.153754
H    0.540075  0.788335  5.281162
H    -0.228187  -0.741683  4.713611
H    -0.898937  0.853387  7.264880
H    0.135742  -0.577340  7.172932
H    -1.830007  -1.946204  6.342486
H    -2.884088  -0.527730  6.557975
H    -2.571761  -0.693693  8.935036
H    -1.597739  -2.086193  8.723959
N    -0.878701  3.983077  2.959270
C    -2.277490  4.426459  2.917862
H    -0.163307  4.710822  2.930906
H    -2.782499  4.074130  2.009639
H    -2.278957  5.519788  2.899263
H    -2.828094  4.103897  3.809896
Cd    1.957232  0.821236  3.545679
