34
Energy: -172328.202048 eV PBE+vdW (tier 2 basis)
C    0.149998  1.716631  1.381439
C    -0.828451  0.602686  1.169699
O    -1.360872  0.498218  0.023592
H    -0.357915  2.668677  1.173208
H    0.963670  1.623913  0.650289
H    0.567143  1.747384  2.393485
N    -1.085380  -0.203366  2.216172
C    -2.119798  -1.246531  2.421290
C    -1.732558  -2.573426  1.738669
O    -1.803956  -2.760105  0.482739
H    -0.547916  0.018257  3.049582
H    -2.088799  -1.428688  3.504478
C    -3.558208  -0.795138  2.103048
C    -4.619058  -1.712032  2.719759
C    -6.048640  -1.240342  2.415104
C    -7.127859  -2.099634  3.090378
N    -7.110203  -1.988867  4.525663
H    -3.725604  -0.722153  1.010334
H    -3.672256  0.232133  2.478485
H    -4.480864  -1.747582  3.813044
H    -4.490634  -2.745298  2.356713
H    -6.235248  -1.258465  1.330805
H    -6.172430  -0.191278  2.729343
H    -7.011696  -3.159997  2.824034
H    -8.113237  -1.788407  2.682119
H    -7.282318  -1.068739  4.925848
H    -7.546277  -2.737407  5.057874
N    -1.324739  -3.564404  2.515799
C    -0.923654  -4.884058  2.015077
H    -1.282041  -3.404297  3.518111
H    -0.707341  -5.526389  2.872091
H    -0.027661  -4.796010  1.388957
H    -1.732672  -5.323649  1.420643
Cd    -2.206343  -1.210564  -0.993669
