34
Energy: -172328.216904 eV PBE+vdW (tier 2 basis)
C    1.005805  0.986030  0.826173
C    0.484330  0.804830  2.215883
O    1.114493  1.354129  3.170855
H    1.044396  2.062449  0.607021
H    0.396593  0.486397  0.065425
H    2.037972  0.615566  0.775012
N    -0.639881  0.084649  2.380788
C    -1.466898  -0.022471  3.594630
C    -0.969676  -1.196430  4.464333
O    0.052732  -1.069803  5.215262
H    -1.034044  -0.322432  1.535725
H    -1.283794  0.886356  4.191803
C    -2.959440  -0.049318  3.223424
C    -3.453433  1.272743  2.612438
C    -4.916119  1.238065  2.135237
C    -5.978577  1.228507  3.243214
N    -5.981778  2.441793  4.017602
H    -3.525637  -0.274506  4.139146
H    -3.155079  -0.875174  2.515345
H    -2.825015  1.538509  1.749454
H    -3.327112  2.081904  3.349088
H    -5.086620  0.362877  1.490516
H    -5.090614  2.113710  1.491940
H    -5.856209  0.380167  3.933670
H    -6.965614  1.067265  2.757229
H    -6.079903  3.317735  3.507554
H    -6.497994  2.437096  4.893709
N    -1.600608  -2.355791  4.421990
C    -1.191343  -3.540339  5.186789
H    -2.428649  -2.427934  3.837723
H    -1.220910  -3.325052  6.261366
H    -0.172911  -3.835955  4.909405
H    -1.883650  -4.353886  4.957280
Cd    1.354285  0.680805  5.224908
