34
Energy: -172327.75817 eV PBE+vdW (tier 2 basis)
C    0.598707  -1.133649  2.407616
C    0.644561  0.143040  3.163103
O    1.776052  0.622678  3.521572
H    1.112816  -1.029476  1.441643
H    -0.417244  -1.514126  2.271171
H    1.183475  -1.871833  2.979960
N    -0.485225  0.813156  3.511600
C    -1.627354  1.142068  2.659229
C    -1.296311  2.409842  1.830275
O    -0.271063  3.179544  2.044081
H    -0.386535  1.414400  4.333412
H    -1.753878  0.322852  1.938609
C    -2.913520  1.304250  3.506034
C    -3.738664  0.011725  3.630642
C    -4.851908  -0.181447  2.587345
C    -4.477535  -0.252659  1.103610
N    -4.309052  1.079629  0.456962
H    -3.529507  2.109151  3.086019
H    -2.612867  1.662915  4.502794
H    -4.218218  0.003462  4.618493
H    -3.064697  -0.860953  3.632028
H    -5.619959  0.598376  2.723740
H    -5.361696  -1.123722  2.832813
H    -5.268748  -0.806898  0.573713
H    -3.552050  -0.828530  0.945290
H    -4.272079  0.958405  -0.559601
H    -5.140947  1.650758  0.636902
N    -2.146531  2.705098  0.887164
C    -2.031100  3.862215  -0.001808
H    -3.018133  2.040951  0.761821
H    -2.802942  3.779058  -0.772214
H    -1.044620  3.891555  -0.478707
H    -2.182762  4.794733  0.556571
Cd    1.533111  2.748078  3.089730
