34
Energy: -172328.37308 eV PBE+vdW (tier 2 basis)
C    0.619195  0.952147  0.928361
C    -0.070729  -0.070260  1.786814
O    0.272855  -1.282402  1.601098
H    0.821143  1.891727  1.448013
H    -0.029021  1.170516  0.065152
H    1.546889  0.524577  0.536386
N    -1.011198  0.177172  2.750440
C    -2.170946  1.076910  2.626863
C    -3.256012  0.378585  1.743108
O    -3.359848  -0.890741  1.696488
H    -0.294077  0.720870  4.394613
H    -2.638905  1.055063  3.629365
C    -1.916926  2.563048  2.308066
C    -0.887507  3.258673  3.214776
C    -1.163819  3.242580  4.739166
C    -0.087887  2.545793  5.561035
N    -0.129564  1.029702  5.400531
H    -2.872506  3.098899  2.427666
H    -1.612108  2.696035  1.260933
H    -0.822370  4.300745  2.877698
H    0.113108  2.842696  3.027256
H    -2.154453  2.823044  4.980704
H    -1.204962  4.273311  5.115804
H    -0.192599  2.744556  6.634177
H    0.916646  2.860920  5.252883
H    -0.893113  0.637131  5.964810
H    0.741835  0.599560  5.736474
N    -4.125560  1.116765  1.074709
C    -5.230067  0.557877  0.284603
H    -4.036175  2.126504  1.116947
H    -5.754982  1.383075  -0.202725
H    -5.925387  0.013782  0.934595
H    -4.840743  -0.129074  -0.475203
Cd    -1.643324  -2.003984  2.490637
