34
Energy: -172327.797374 eV PBE+vdW (tier 2 basis)
C    0.082411  -0.179042  0.027720
C    -0.045782  0.029606  1.502253
O    0.951229  0.465620  2.147902
H    0.953900  -0.815483  -0.172361
H    0.279866  0.790771  -0.450130
H    -0.809739  -0.627051  -0.423095
N    -1.225557  -0.257270  2.092596
C    -1.501392  0.039187  3.494532
C    -0.707229  -0.876805  4.459891
O    0.106621  -0.309731  5.267984
H    -1.988265  -0.556687  1.491821
H    -1.049769  1.025957  3.691164
C    -2.996392  0.267653  3.821061
C    -4.007620  -0.877070  3.678958
C    -5.440401  -0.467294  4.067236
C    -6.142310  0.480433  3.078525
N    -7.495795  0.735925  3.464729
H    -3.295015  1.124198  3.196898
H    -3.021366  0.637088  4.857718
H    -3.725140  -1.703650  4.343271
H    -4.014925  -1.285205  2.653645
H    -5.441859  -0.002704  5.064632
H    -6.040383  -1.385369  4.154572
H    -6.103442  0.023681  2.062577
H    -5.629580  1.449804  2.996254
H    -7.958381  1.584485  3.154694
H    -8.114880  -0.042392  3.674284
N    -0.799346  -2.198142  4.498482
C    -1.565498  -3.148593  3.695757
H    -0.187823  -2.613714  5.205016
H    -0.874508  -3.906903  3.307046
H    -2.053840  -2.653755  2.856618
H    -2.319850  -3.649893  4.314370
Cd    1.493424  1.047634  4.225532
