34
Energy: -172327.576096 eV PBE+vdW (tier 2 basis)
C    -1.234164  -1.096603  -0.847650
C    -0.763566  -1.147355  0.566333
O    -0.172267  -2.192902  0.983228
H    -1.079484  -0.114773  -1.305069
H    -2.309892  -1.335340  -0.886179
H    -0.711146  -1.869970  -1.419715
N    -0.944558  -0.111288  1.426700
C    -2.180733  0.665162  1.629073
C    -3.280541  -0.323501  2.109630
O    -2.995199  -1.477998  2.562279
H    -0.381292  -0.205978  2.271026
H    -1.960145  1.295188  2.506203
C    -2.575633  1.617983  0.484258
C    -1.455995  2.591004  0.087762
C    -1.901494  3.561567  -1.015793
C    -0.801987  4.548854  -1.445780
N    -0.480579  5.516923  -0.438770
H    -3.433164  2.216085  0.831566
H    -2.933050  1.053785  -0.388697
H    -0.572254  2.028529  -0.251940
H    -1.130532  3.161856  0.971831
H    -2.788134  4.129471  -0.690558
H    -2.210553  3.003704  -1.912221
H    -1.158331  5.059266  -2.368518
H    0.120386  4.023076  -1.730113
H    0.438538  5.950580  -0.452416
H    -1.220622  6.123132  -0.091898
N    -4.542699  0.072618  2.091506
C    -5.660366  -0.729796  2.602246
H    -4.753143  0.989848  1.710479
H    -5.481308  -1.004536  3.647890
H    -5.779524  -1.642157  2.005971
H    -6.571877  -0.131015  2.533983
Cd    -1.280279  -2.893555  2.779138
