34
Energy: -172328.729139 eV PBE+vdW (tier 2 basis)
C    -0.404362  0.456154  -0.252500
C    -0.619142  -0.021840  1.152687
O    0.220042  -0.841809  1.622333
H    -0.329337  -0.415047  -0.915967
H    0.561744  0.977202  -0.300572
H    -1.190673  1.124369  -0.618652
N    -1.694156  0.473189  1.798928
C    -2.278222  0.305346  3.157170
C    -1.278436  0.619173  4.286238
O    -0.294424  -0.120365  4.579136
H    -2.232175  1.115686  1.224341
H    -3.012624  1.121142  3.188329
C    -3.164918  -0.960721  3.341197
C    -2.576209  -2.385679  3.379353
C    -2.155666  -2.888103  4.775583
C    -1.155969  -4.034438  4.797252
N    -1.451848  -5.178615  4.147463
H    -3.887114  -0.912956  2.514305
H    -3.760171  -0.793973  4.252281
H    -1.744272  -2.476259  2.651910
H    -3.345330  -3.057474  2.972194
H    -3.046590  -3.236403  5.322111
H    -1.726647  -2.078167  5.381299
H    -0.681023  -4.210339  5.769424
H    -0.016124  -3.451586  4.255833
H    -0.950819  -6.038801  4.350892
H    -2.042282  -5.194763  3.321787
N    -1.525899  1.720862  4.987384
C    -0.724802  2.197728  6.115863
H    -2.323389  2.291125  4.719232
H    -0.238510  3.144380  5.849679
H    0.034549  1.451573  6.358338
H    -1.377096  2.360929  6.981439
Cd    0.470894  -1.859516  3.483708
