34
Energy: -172328.268963 eV PBE+vdW (tier 2 basis)
C    0.019393  -0.548865  0.080545
C    -0.059014  -0.104668  1.506430
O    0.920819  0.540685  1.988720
H    0.132380  0.341030  -0.554856
H    -0.860811  -1.112483  -0.246661
H    0.922176  -1.156958  -0.060557
N    -1.176645  -0.394199  2.198262
C    -1.577071  0.142234  3.510289
C    -0.991079  -0.738767  4.635079
O    0.189529  -0.545440  5.072666
H    -1.883595  -0.927348  1.697028
H    -1.093558  1.126449  3.621705
C    -3.098654  0.362146  3.539854
C    -3.603593  1.150636  4.756472
C    -5.127134  1.345918  4.717394
C    -5.669611  2.181588  5.887919
N    -5.262192  3.559981  5.830220
H    -3.628161  -0.604456  3.454142
H    -3.355345  0.912257  2.621603
H    -3.111996  2.135892  4.784195
H    -3.327328  0.641123  5.693768
H    -5.636286  0.370906  4.740159
H    -5.421910  1.820930  3.767723
H    -5.349019  1.765766  6.853706
H    -6.777819  2.099425  5.872491
H    -5.559487  4.104712  5.023391
H    -5.275015  4.092239  6.696198
N    -1.716074  -1.724453  5.132995
C    -1.242120  -2.654569  6.164173
H    -2.671865  -1.824952  4.803173
H    -1.151005  -2.140774  7.129209
H    -0.263715  -3.057927  5.882119
H    -1.964331  -3.470133  6.251446
Cd    1.663135  0.687931  4.029564
