34
Energy: -172329.140779 eV PBE+vdW (tier 2 basis)
C    0.322687  0.424501  1.063570
C    -0.838986  -0.015362  1.873840
O    -0.685321  -0.536627  3.016518
H    0.931589  -0.471728  0.857149
H    0.963643  1.098499  1.646617
H    0.041875  0.874444  0.107175
N    -2.121658  0.120432  1.398367
C    -2.720044  1.341845  0.852292
C    -2.326738  2.528755  1.753320
O    -2.072442  2.353169  2.993978
H    -2.779885  -0.546711  1.796616
H    -2.366931  1.509926  -0.173673
C    -4.266614  1.194809  0.824413
C    -4.987488  1.144126  2.192432
C    -5.208768  -0.242301  2.852423
C    -5.411882  -0.174423  4.370048
N    -4.114028  -0.240428  5.165205
H    -4.506636  0.310405  0.214817
H    -4.651902  2.052299  0.257790
H    -5.982903  1.586890  2.054899
H    -4.490949  1.832278  2.896982
H    -4.412504  -0.978998  2.637873
H    -6.102209  -0.704872  2.411151
H    -6.039261  -1.004225  4.718871
H    -5.912700  0.760030  4.651106
H    -3.924911  -1.221515  5.398947
H    -4.248563  0.224961  6.069614
N    -2.278493  3.755564  1.259798
C    -2.534072  4.221146  -0.106549
H    -2.062923  4.475205  1.951885
H    -2.318829  3.438606  -0.839781
H    -1.875924  5.071878  -0.309627
H    -3.576423  4.547031  -0.215671
Cd    -2.300222  0.504955  4.144250
