34
Energy: -172327.965181 eV PBE+vdW (tier 2 basis)
C    -0.389788  0.907066  -0.072368
C    -0.293286  0.814791  1.416734
O    0.693196  1.362899  1.992042
H    -0.481871  1.965846  -0.352976
H    -1.238942  0.351571  -0.484827
H    0.543020  0.538712  -0.518153
N    -1.266247  0.157617  2.078089
C    -1.429892  0.122544  3.534979
C    -0.394741  -0.823077  4.186773
O    0.558926  -0.314314  4.869779
H    -2.034807  -0.197795  1.514580
H    -1.153867  1.119900  3.917583
C    -2.912570  -0.081712  3.912360
C    -3.277137  0.212643  5.376761
C    -2.892076  -0.853136  6.412230
C    -3.474156  -0.550940  7.809832
N    -4.908412  -0.614537  7.845554
H    -3.257113  -1.085477  3.627576
H    -3.470216  0.625751  3.279229
H    -4.368688  0.341070  5.410561
H    -2.858046  1.188967  5.671052
H    -1.801579  -0.933177  6.533367
H    -3.248004  -1.844595  6.086525
H    -3.164648  0.447077  8.148506
H    -3.031108  -1.275682  8.524654
H    -5.358124  -1.512699  7.686110
H    -5.403771  -0.020822  8.504268
N    -0.441054  -2.142246  4.069739
C    -1.413025  -3.006970  3.399500
H    0.322593  -2.616605  4.554671
H    -0.894193  -3.922659  3.098154
H    -1.812095  -2.533097  2.499228
H    -2.234415  -3.278103  4.074752
Cd    1.512848  1.471952  4.021655
