34
Energy: -172327.399389 eV PBE+vdW (tier 2 basis)
C    -1.164335  -0.175857  -0.971643
C    -0.684004  -0.748509  0.318283
O    -0.383054  -1.982800  0.376406
H    -0.736236  0.810558  -1.174532
H    -2.262410  -0.076567  -0.944736
H    -0.919884  -0.871646  -1.780609
N    -0.563815  0.007646  1.441605
C    -1.558476  0.967299  1.956177
C    -2.863754  0.168954  2.226628
O    -2.845237  -1.085577  2.448420
H    -0.026981  -0.459351  2.171821
H    -1.178616  1.231167  2.956818
C    -1.696298  2.281533  1.152891
C    -2.001824  3.522508  2.020477
C    -0.787934  4.114196  2.763006
C    0.129359  4.984392  1.886725
N    -0.501748  6.201661  1.465776
H    -2.456509  2.170386  0.366898
H    -0.744305  2.439010  0.627757
H    -2.777366  3.296163  2.770216
H    -2.434841  4.298768  1.373684
H    -0.170318  3.323527  3.217228
H    -1.144768  4.722001  3.607538
H    0.479093  4.450823  0.990367
H    1.046476  5.205065  2.476761
H    -0.890421  6.817406  2.176911
H    -0.130235  6.689992  0.655535
N    -4.014567  0.818734  2.274644
C    -5.300106  0.189502  2.598881
H    -4.003673  1.822101  2.115545
H    -6.079175  0.953929  2.546888
H    -5.271704  -0.235903  3.608945
H    -5.524635  -0.607249  1.880567
Cd    -1.563131  -2.860983  2.039857
