34
Energy: -172327.644314 eV PBE+vdW (tier 2 basis)
C    0.028770  -0.199657  0.370226
C    -0.108248  0.200454  1.798285
O    0.927482  0.272577  2.532113
H    0.727952  -1.046493  0.324609
H    0.498377  0.612333  -0.204991
H    -0.920423  -0.487914  -0.090981
N    -1.323712  0.467715  2.340690
C    -2.344313  1.311310  1.724674
C    -2.003021  2.784710  2.098788
O    -1.029439  3.091620  2.856762
H    -1.310825  0.512063  3.360250
H    -2.232798  1.223836  0.634129
C    -3.774993  0.876166  2.107948
C    -4.099623  0.947164  3.607311
C    -5.581901  0.714552  3.944282
C    -6.083976  -0.719893  3.684340
N    -7.429580  -0.901418  4.127717
H    -3.903959  -0.144231  1.720327
H    -4.488867  1.498883  1.546274
H    -3.829563  1.942218  3.996531
H    -3.489506  0.217698  4.166046
H    -6.215400  1.415269  3.379911
H    -5.731498  0.950394  5.008432
H    -5.403254  -1.428411  4.210630
H    -6.040513  -0.988908  2.619766
H    -7.693514  -0.645228  5.075116
H    -8.032840  -1.578712  3.672222
N    -2.767215  3.740032  1.593227
C    -2.556543  5.173021  1.830194
H    -3.550238  3.469422  1.004820
H    -1.543487  5.461534  1.527584
H    -2.695001  5.409383  2.891829
H    -3.284551  5.730192  1.235448
Cd    0.876208  2.197737  3.642431
