34
Energy: -172327.457524 eV PBE+vdW (tier 2 basis)
C    -1.568942  -1.125910  2.619618
C    -2.847315  -1.142743  3.386346
O    -3.290836  -2.248983  3.830450
H    -0.922973  -0.290682  2.907868
H    -1.785084  -1.037337  1.541838
H    -1.051612  -2.078227  2.772697
N    -3.561649  -0.010644  3.623809
C    -3.883340  1.041781  2.643479
C    -4.715691  0.375496  1.514189
O    -5.362753  -0.704273  1.706542
H    -4.278624  -0.142950  4.336406
H    -4.598464  1.689771  3.175350
C    -2.691145  1.924774  2.203392
C    -3.027133  3.411939  1.968440
C    -3.244363  4.215327  3.259844
C    -3.486324  5.715824  3.010058
N    -2.335594  6.391441  2.484798
H    -2.214931  1.501259  1.307494
H    -1.938188  1.869758  3.001323
H    -3.912737  3.531964  1.319692
H    -2.191787  3.857645  1.409929
H    -2.370781  4.095803  3.920761
H    -4.109552  3.840309  3.828166
H    -3.793957  6.170206  3.977484
H    -4.327108  5.874984  2.320276
H    -2.472652  7.234539  1.934217
H    -1.476110  6.387129  3.029400
N    -4.789756  0.975979  0.337745
C    -5.601219  0.487452  -0.783094
H    -4.274297  1.842024  0.210509
H    -5.475100  1.174228  -1.623613
H    -6.659056  0.448086  -0.498182
H    -5.273030  -0.514899  -1.081589
Cd    -5.370686  -2.461642  3.082843
