34
Energy: -172327.349172 eV PBE+vdW (tier 2 basis)
C    -1.383455  2.012107  -0.990888
C    -0.828181  1.964237  0.397097
O    0.139977  2.731190  0.759883
H    -0.582967  1.786462  -1.708610
H    -1.744831  3.029929  -1.199256
H    -2.210372  1.318505  -1.163229
N    -1.281527  1.124114  1.314539
C    -2.308920  0.085711  1.220713
C    -2.759293  -0.116745  2.696237
O    -1.953907  0.124907  3.600683
H    -0.884725  1.184520  2.264960
H    -3.153716  0.463018  0.627544
C    -1.800635  -1.228756  0.582698
C    -0.642417  -1.964128  1.289671
C    -1.095200  -2.961615  2.363226
C    0.155889  -3.717207  2.966098
N    -0.197360  -4.683704  3.937256
H    -1.479138  -0.981626  -0.440887
H    -2.665093  -1.898789  0.460198
H    0.064207  -1.238442  1.720512
H    -0.080785  -2.510647  0.518687
H    -1.769498  -3.715206  1.932545
H    -1.617648  -2.470053  3.193417
H    0.816231  -2.967640  3.424882
H    0.680588  -4.212250  2.135332
H    -0.285111  -4.443836  4.920316
H    -0.460512  -5.629255  3.674420
N    -4.002032  -0.591753  2.873538
C    -4.588819  -0.830865  4.190712
H    -4.604643  -0.691598  2.062225
H    -3.784217  -0.869842  4.930313
H    -5.135777  -1.780326  4.180024
H    -5.280571  -0.022812  4.461905
Cd    0.872277  4.615973  -0.039782
