34
Energy: -172327.980454 eV PBE+vdW (tier 2 basis)
C    -1.097198  2.264099  -0.049286
C    -1.254433  2.199384  1.436868
O    -1.364550  3.285747  2.078293
H    -1.957709  2.799698  -0.472968
H    -1.016556  1.277875  -0.518888
H    -0.204985  2.857170  -0.290188
N    -1.280796  0.985133  2.018920
C    -1.575373  0.712035  3.428591
C    -0.355481  1.025868  4.330744
O    -0.360847  2.098433  5.026424
H    -1.206149  0.183217  1.398898
H    -2.331152  1.447928  3.750075
C    -2.197874  -0.684004  3.641010
C    -3.716495  -0.768911  3.413642
C    -4.200023  -0.650845  1.962085
C    -5.709182  -0.944359  1.818303
N    -6.045393  -2.308394  2.117537
H    -1.996391  -0.976712  4.681924
H    -1.679840  -1.426287  3.014521
H    -4.220701  -0.014045  4.038999
H    -4.042710  -1.742788  3.807090
H    -3.640307  -1.348593  1.316197
H    -4.029104  0.358456  1.557706
H    -6.007080  -0.684457  0.781060
H    -6.292462  -0.291680  2.481829
H    -6.963282  -2.505616  2.505300
H    -5.698266  -3.038228  1.500150
N    0.696601  0.228287  4.435201
C    0.972619  -1.072019  3.820679
H    1.403535  0.577341  5.084836
H    2.057829  -1.212326  3.814350
H    0.622474  -1.102375  2.784883
H    0.518080  -1.888497  4.395387
Cd    -1.248905  3.902666  4.181811
