34
Energy: -172329.25803 eV PBE+vdW (tier 2 basis)
C    0.479778  0.145000  1.005261
C    -0.420354  0.562714  2.105469
O    -0.204315  1.646550  2.742637
H    0.201069  -0.813005  0.557670
H    1.491616  0.047304  1.433644
H    0.550102  0.934268  0.244857
N    -1.487606  -0.202381  2.475542
C    -2.530236  -0.713445  1.572268
C    -2.868038  0.392489  0.550680
O    -2.793780  1.617369  0.876472
H    -1.795456  -0.034845  3.431087
H    -2.172978  -1.615648  1.054425
C    -3.800925  -1.086867  2.389834
C    -4.671482  0.066036  2.943730
C    -4.228392  0.707204  4.280194
C    -4.739720  2.119224  4.552880
N    -4.128285  3.164110  3.634589
H    -3.490275  -1.770695  3.195261
H    -4.427373  -1.692180  1.721503
H    -5.680195  -0.339191  3.100574
H    -4.797743  0.830946  2.162306
H    -3.126256  0.742159  4.407527
H    -4.552211  0.068760  5.115231
H    -4.483602  2.413430  5.577052
H    -5.832295  2.178002  4.450239
H    -4.722649  3.298552  2.809582
H    -4.117971  4.070946  4.113191
N    -3.276068  0.005580  -0.648229
C    -3.714057  0.893868  -1.727467
H    -3.286354  -0.993934  -0.840638
H    -3.132647  0.680583  -2.631728
H    -3.554957  1.930957  -1.424707
H    -4.777335  0.727022  -1.938706
Cd    -2.164674  2.560547  2.832310
