34
Energy: -172327.328965 eV PBE+vdW (tier 2 basis)
C    0.423398  0.984967  0.419914
C    0.014639  0.699026  1.829356
O    0.883133  0.585536  2.770859
H    0.862780  1.992775  0.370846
H    -0.400219  0.940802  -0.297384
H    1.195278  0.266859  0.114670
N    -1.251933  0.529015  2.181576
C    -2.467169  0.469288  1.369833
C    -3.583403  0.896200  2.371206
O    -3.489441  0.512507  3.538144
H    -1.449561  0.358677  3.178939
H    -2.391615  1.178618  0.534069
C    -2.729532  -0.968422  0.850279
C    -3.961922  -1.091250  -0.052157
C    -4.186246  -2.481576  -0.658553
C    -4.683223  -3.541791  0.402845
N    -5.001613  -4.794401  -0.175957
H    -2.812724  -1.621053  1.732908
H    -1.833491  -1.290068  0.296128
H    -3.860535  -0.396017  -0.903334
H    -4.868098  -0.775917  0.487587
H    -3.270312  -2.867179  -1.128837
H    -4.953616  -2.418236  -1.440927
H    -5.577160  -3.138431  0.898224
H    -3.887145  -3.685823  1.149525
H    -4.280434  -5.471735  -0.406406
H    -5.935741  -4.994827  -0.521459
N    -4.592709  1.635671  1.880370
C    -5.691118  2.125733  2.711839
H    -4.533754  1.968286  0.923160
H    -5.492936  3.147286  3.062841
H    -5.794988  1.468097  3.579931
H    -6.615913  2.122468  2.125200
Cd    2.878074  1.410417  3.046950
