34
Energy: -172328.083662 eV PBE+vdW (tier 2 basis)
C    -0.219976  -1.695917  -0.012193
C    -0.499289  -0.980513  1.271527
O    0.119656  0.096673  1.509854
H    0.853976  -1.914625  -0.075214
H    -0.457214  -1.023804  -0.848353
H    -0.789298  -2.624986  -0.123018
N    -1.407116  -1.516671  2.111571
C    -1.924189  -0.886471  3.328909
C    -0.917449  -0.996857  4.500204
O    -0.234171  0.032541  4.821841
H    -1.852439  -2.378634  1.808025
H    -1.972477  0.197326  3.133402
C    -3.361712  -1.341662  3.642151
C    -4.408800  -0.699605  2.718015
C    -5.829871  -1.175069  3.045726
C    -6.891526  -0.524384  2.137772
N    -8.215906  -0.962870  2.454629
H    -3.579870  -1.074337  4.687056
H    -3.434084  -2.437881  3.586463
H    -4.177192  -0.931076  1.665574
H    -4.351764  0.396789  2.814368
H    -6.064159  -0.945564  4.097536
H    -5.904965  -2.267182  2.935849
H    -6.697875  -0.752215  1.080247
H    -6.811141  0.581368  2.237028
H    -8.921326  -0.997569  1.725653
H    -8.576048  -0.838100  3.396595
N    -0.734037  -2.106016  5.201922
C    -1.383440  -3.414967  5.105507
H    -0.042258  -2.000800  5.945932
H    -0.712521  -4.152105  5.556934
H    -1.543652  -3.701452  4.061870
H    -2.334904  -3.429686  5.651290
Cd    0.477701  1.390245  3.254631
