34
Energy: -172327.421911 eV PBE+vdW (tier 2 basis)
C    -0.424049  1.947783  0.575120
C    -0.399536  1.508468  2.010710
O    0.451566  1.917825  2.814663
H    -0.678519  3.016430  0.541873
H    -1.131838  1.392318  -0.048979
H    0.586726  1.851854  0.160300
N    -1.384801  0.634694  2.407645
C    -1.438854  -0.078399  3.675429
C    -1.734002  0.849144  4.890706
O    -2.706948  0.465408  5.622026
H    -2.071560  0.364823  1.709780
H    -2.314070  -0.736695  3.612648
C    -0.196151  -0.960668  3.989415
C    -0.011537  -2.087851  2.968812
C    1.125549  -3.069495  3.325367
C    2.547772  -2.562555  3.031956
N    2.864788  -2.507964  1.644064
H    -0.354925  -1.390750  4.990273
H    0.692645  -0.318608  4.050246
H    0.163284  -1.672762  1.964656
H    -0.940881  -2.674931  2.906418
H    0.965759  -4.009604  2.775925
H    1.078664  -3.338478  4.390101
H    3.245332  -3.272912  3.540764
H    2.763339  -1.582285  3.481398
H    2.663207  -3.309951  1.050227
H    3.609178  -1.899387  1.314259
N    -0.962289  1.896478  5.080758
C    -1.078412  2.867840  6.158029
H    -0.238019  2.028815  4.329456
H    -0.305129  3.629729  6.016781
H    -0.906848  2.402220  7.140448
H    -2.052007  3.382011  6.135758
Cd    -3.693759  1.212871  7.441057
