34
Energy: -172327.180611 eV PBE+vdW (tier 2 basis)
C    0.427388  0.042823  0.956707
C    -0.122664  0.238438  2.329077
O    0.634546  0.468697  3.338367
H    -0.301721  -0.377587  0.258873
H    1.286037  -0.640866  1.011591
H    0.800420  1.006179  0.579516
N    -1.433087  0.220604  2.604803
C    -2.628602  0.240458  1.728113
C    -2.825038  -1.184393  1.114722
O    -2.213523  -1.506268  0.097022
H    -1.624401  0.337176  3.600601
H    -3.456223  0.442234  2.423253
C    -2.612633  1.350946  0.664676
C    -3.988194  1.722557  0.084151
C    -4.606098  0.704290  -0.888242
C    -5.885800  1.246111  -1.559778
N    -5.648451  2.293029  -2.494509
H    -1.931758  1.072785  -0.150620
H    -2.201606  2.250055  1.147183
H    -3.861904  2.676474  -0.449891
H    -4.693231  1.934703  0.904769
H    -4.887046  -0.227414  -0.377614
H    -3.878196  0.417359  -1.662812
H    -6.623278  1.592866  -0.822615
H    -6.361076  0.383166  -2.084887
H    -4.970113  2.167997  -3.242357
H    -6.341508  3.021065  -2.644148
N    -3.672868  -1.991512  1.781342
C    -3.991661  -3.345769  1.334614
H    -4.184158  -1.617881  2.574290
H    -4.170862  -3.978559  2.210036
H    -3.147147  -3.735046  0.757718
H    -4.887273  -3.354633  0.698608
Cd    2.734582  -0.043889  3.744788
