34
Energy: -172328.269436 eV PBE+vdW (tier 2 basis)
C    -0.280753  0.559824  0.585502
C    -0.741278  0.398320  2.007492
O    0.031017  0.851767  2.910147
H    -1.096314  0.802273  -0.101983
H    0.168952  -0.388631  0.252006
H    0.502030  1.323213  0.542758
N    -1.934399  -0.140010  2.410500
C    -2.533950  -1.397713  1.921754
C    -1.734369  -2.586993  2.563404
O    -1.190921  -2.471265  3.711597
H    -3.095345  1.189836  2.211139
H    -3.505807  -1.461488  2.445542
C    -2.855593  -1.519491  0.418345
C    -4.135973  -0.814901  -0.076587
C    -4.213705  0.720471  -0.229004
C    -4.800239  1.520266  0.935721
N    -3.756091  1.985033  1.934109
H    -3.047349  -2.578798  0.195966
H    -1.991244  -1.249462  -0.199808
H    -4.989473  -1.158137  0.531018
H    -4.321441  -1.230862  -1.076127
H    -4.888826  0.918529  -1.072910
H    -3.252081  1.153203  -0.549750
H    -5.533897  0.932332  1.501467
H    -5.302342  2.427502  0.580407
H    -3.178742  2.730711  1.524768
H    -4.196684  2.377789  2.775291
N    -1.670665  -3.757183  1.953205
C    -1.023905  -4.940667  2.534258
H    -2.105625  -3.856822  1.042797
H    -1.548960  -5.251570  3.445192
H    0.019433  -4.716622  2.782952
H    -1.060212  -5.747178  1.797918
Cd    -0.977600  -0.427484  4.459855
