34
Energy: -172327.389213 eV PBE+vdW (tier 2 basis)
C    -0.630864  2.518327  0.770613
C    -0.510247  1.903451  2.135055
O    0.517704  2.025872  2.819619
H    -0.527008  3.607305  0.867060
H    -1.570520  2.287684  0.258210
H    0.211616  2.174379  0.156785
N    -1.601026  1.204838  2.593476
C    -1.713486  0.368733  3.783034
C    -1.474547  1.105697  5.130931
O    -2.357099  0.841029  6.015399
H    -2.413923  1.197101  1.983925
H    -2.775943  0.100860  3.836632
C    -0.958139  -1.001256  3.728032
C    0.556127  -1.002462  3.533624
C    1.212200  -2.388170  3.677510
C    0.852489  -3.354766  2.484808
N    1.546462  -4.586253  2.561118
H    -1.447817  -1.549649  2.908292
H    -1.224560  -1.532343  4.655800
H    1.044533  -0.367810  4.291358
H    0.827821  -0.569742  2.561740
H    0.920711  -2.872288  4.621072
H    2.303643  -2.271867  3.693111
H    1.104441  -2.857323  1.538988
H    -0.232214  -3.550586  2.515582
H    2.429639  -4.727623  2.079463
H    1.267862  -5.311975  3.215371
N    -0.429866  1.890368  5.270529
C    -0.085823  2.656255  6.459103
H    0.144620  1.994836  4.390200
H    0.820428  3.231673  6.244700
H    0.134495  1.998383  7.313553
H    -0.878140  3.375080  6.719370
Cd    -2.740239  1.432064  8.110493
