34
Energy: -172328.281417 eV PBE+vdW (tier 2 basis)
C    -0.362832  0.824383  -0.619417
C    -0.709663  1.691915  0.548856
O    -0.344455  2.905575  0.529832
H    -0.776825  1.282179  -1.528563
H    -0.739611  -0.199875  -0.527764
H    0.727906  0.805331  -0.743807
N    -1.412887  1.142294  1.556430
C    -2.052851  1.840753  2.682790
C    -1.057773  1.962799  3.856929
O    -0.138974  2.844256  3.846808
H    -1.622214  0.150953  1.466321
H    -2.245489  2.874754  2.352280
C    -3.404839  1.191838  3.021800
C    -4.469429  1.367930  1.926698
C    -5.809924  0.735464  2.323000
C    -6.887052  0.912388  1.236950
N    -8.139780  0.335308  1.618334
H    -3.771863  1.648140  3.953477
H    -3.265213  0.115574  3.228681
H    -4.119845  0.924285  0.980977
H    -4.608310  2.443520  1.731273
H    -6.167818  1.184521  3.263357
H    -5.685520  -0.341013  2.513951
H    -6.571111  0.451595  0.290260
H    -7.003831  1.999553  1.027014
H    -8.582960  0.624050  2.485999
H    -8.777331  0.005168  0.900715
N    -1.148154  1.132800  4.881072
C    -0.238074  1.153125  6.032689
H    -1.903052  0.453107  4.882306
H    -0.543535  0.366103  6.726269
H    -0.287937  2.125695  6.536232
H    0.792094  0.973360  5.704156
Cd    0.294142  4.192245  2.176631
