34
Energy: -172327.685433 eV PBE+vdW (tier 2 basis)
C    -2.527089  -3.856664  0.679745
C    -1.496225  -2.871640  1.109917
O    -0.268854  -3.202368  1.104926
H    -2.501138  -3.971881  -0.414670
H    -3.537225  -3.590574  1.004362
H    -2.253125  -4.836444  1.094500
N    -1.843861  -1.625558  1.522437
C    -2.777202  -0.736393  0.830463
C    -2.073810  -0.264233  -0.468511
O    -0.806876  -0.270573  -0.591314
H    -1.094310  -1.130775  2.009387
H    -3.677506  -1.308152  0.562317
C    -3.158557  0.423626  1.780232
C    -4.294914  1.342940  1.316588
C    -4.676012  2.350687  2.414761
C    -5.808757  3.307861  2.013546
N    -7.080926  2.657288  1.877723
H    -2.255525  1.021769  1.987695
H    -3.444169  -0.053346  2.730037
H    -5.182372  0.744920  1.051119
H    -3.998979  1.902877  0.415172
H    -3.802734  2.964360  2.679725
H    -4.962832  1.815158  3.333907
H    -5.581588  3.828962  1.072287
H    -5.863335  4.102216  2.791335
H    -7.799008  3.114036  1.321509
H    -7.447593  2.147827  2.679071
N    -2.833228  0.178351  -1.459502
C    -2.317154  0.690400  -2.733155
H    -3.838840  0.203825  -1.313241
H    -1.536505  0.023438  -3.113089
H    -1.894823  1.694669  -2.603120
H    -3.141905  0.731199  -3.449349
Cd    0.877332  -1.573935  0.112274
