34
Energy: -172327.240547 eV PBE+vdW (tier 2 basis)
C    -0.275436  -0.268509  0.014478
C    -0.135607  -0.296917  1.503411
O    0.922392  -0.761988  2.069189
H    0.513896  0.370583  -0.408358
H    -1.239820  0.110597  -0.333273
H    -0.133026  -1.282671  -0.381749
N    -1.089908  0.130384  2.315142
C    -2.420828  0.660123  2.020299
C    -2.756547  1.504033  3.282690
O    -2.209850  1.207199  4.347748
H    -0.897457  0.136514  3.330052
H    -2.370549  1.297228  1.128386
C    -3.492258  -0.445746  1.804939
C    -3.785888  -1.310343  3.036132
C    -4.692654  -2.521399  2.782964
C    -6.194662  -2.116814  2.501413
N    -7.053270  -3.237596  2.394441
H    -3.151169  -1.078866  0.970230
H    -4.405292  0.057761  1.454108
H    -4.207111  -0.696437  3.846194
H    -2.841948  -1.716134  3.436634
H    -4.690440  -3.167257  3.670578
H    -4.333668  -3.125464  1.936941
H    -6.237103  -1.546157  1.562034
H    -6.533322  -1.481411  3.332483
H    -7.469498  -3.662855  3.218119
H    -7.148547  -3.752923  1.524296
N    -3.669133  2.492061  3.176561
C    -4.225566  3.090286  1.967050
H    -3.813347  2.995754  4.051392
H    -3.515924  3.781294  1.489029
H    -5.118847  3.658518  2.244802
H    -4.528414  2.325431  1.243355
Cd    2.977187  -0.984035  1.392477
