34
Energy: -172327.570593 eV PBE+vdW (tier 2 basis)
C    -0.387388  -1.846788  0.314472
C    -0.506203  -1.137860  1.631896
O    -0.022535  -1.592509  2.677029
H    0.671587  -1.865151  0.021558
H    -0.973493  -1.393613  -0.491969
H    -0.693854  -2.891441  0.449759
N    -1.174980  0.069127  1.626945
C    -1.581885  0.827716  2.794507
C    -0.377642  1.452355  3.573503
O    -0.465842  2.710322  3.752114
H    -1.507970  0.408314  0.729500
H    -2.144828  1.690076  2.418282
C    -2.483980  0.065915  3.813164
C    -3.823838  -0.368415  3.205118
C    -4.668021  -1.093300  4.260274
C    -6.074081  -1.527653  3.727075
N    -6.056511  -2.621219  2.826957
H    -2.657830  0.752268  4.655614
H    -1.939363  -0.802154  4.207290
H    -3.654247  -1.033153  2.345320
H    -4.369646  0.512437  2.832223
H    -4.856477  -0.440352  5.124235
H    -4.142403  -1.981594  4.641200
H    -6.596646  -0.682614  3.263966
H    -6.636507  -1.811842  4.643246
H    -6.573324  -2.591709  1.953835
H    -5.770623  -3.543763  3.144422
N    0.575154  0.648116  3.988710
C    1.769807  1.035795  4.724653
H    0.454387  -0.347997  3.671580
H    2.386895  0.143031  4.866983
H    1.518085  1.428203  5.720790
H    2.373042  1.765431  4.161851
Cd    0.777692  4.258511  4.729666
