34
Energy: -172329.799905 eV PBE+vdW (tier 2 basis)
C    1.374298  -0.582173  1.379808
C    0.692973  -0.219423  2.661444
O    1.386358  -0.156511  3.717661
H    0.697314  -0.634015  0.520820
H    1.882238  -1.547535  1.503325
H    2.156285  0.162848  1.176792
N    -0.632785  0.029226  2.610952
C    -1.551997  0.505441  3.666970
C    -0.986765  1.771949  4.350848
O    -0.293946  1.711034  5.416409
H    -1.054315  -0.085671  1.693790
H    -2.435734  0.829867  3.107089
C    -2.048064  -0.551384  4.712176
C    -1.311712  -1.905774  4.800472
C    -1.488427  -2.652573  6.136881
C    -0.989040  -1.968955  7.412624
N    0.477402  -1.584559  7.370289
H    -3.102033  -0.759742  4.490661
H    -2.067552  -0.050042  5.691670
H    -0.235761  -1.819018  4.562606
H    -1.673588  -2.566263  4.000757
H    -1.009733  -3.639158  6.044074
H    -2.555403  -2.862982  6.303032
H    -1.132067  -2.649216  8.263253
H    -1.548210  -1.051482  7.639422
H    0.756048  -1.231823  8.292406
H    1.049680  -2.422424  7.213069
N    -1.266705  2.959287  3.834968
C    -2.082936  3.281820  2.659085
H    -0.862601  3.743540  4.348753
H    -1.677798  2.814239  1.753869
H    -2.054912  4.365997  2.520455
H    -3.129692  2.986669  2.805975
Cd    0.837891  -0.085624  5.811644
