34
Energy: -172328.015111 eV PBE+vdW (tier 2 basis)
C    -0.215639  -1.810634  1.070572
C    -1.029757  -1.174995  2.146464
O    -1.745353  -1.932700  2.900024
H    0.342684  -1.090293  0.463436
H    -0.856546  -2.426845  0.427091
H    0.498486  -2.498024  1.550109
N    -0.963518  0.151276  2.306755
C    -1.306792  0.991985  3.474890
C    -2.804087  1.334653  3.625299
O    -3.741243  0.702513  2.984890
H    -0.398352  0.636445  1.612339
H    -1.052803  0.399463  4.371372
C    -0.387282  2.244781  3.413400
C    0.919805  2.121695  4.224830
C    0.962468  2.921996  5.536035
C    -0.093113  2.615248  6.600636
N    -1.409354  3.264848  6.337377
H    -0.947204  3.131343  3.725099
H    -0.167641  2.438575  2.352211
H    1.756833  2.469522  3.605243
H    1.133949  1.060586  4.431542
H    0.941227  4.001293  5.309776
H    1.945641  2.748537  5.995295
H    0.287030  2.955725  7.576599
H    -0.263642  1.532185  6.698018
H    -2.341867  2.734226  5.115753
H    -2.002605  3.171056  7.167012
N    -3.116528  2.290056  4.461200
C    -4.498974  2.645791  4.777144
H    -1.271640  4.272922  6.211065
H    -4.486180  3.399388  5.569563
H    -5.072657  1.771349  5.112215
H    -4.995088  3.065910  3.893432
Cd    -3.792258  -1.399878  3.072312
