34
Energy: -172327.235074 eV PBE+vdW (tier 2 basis)
C    -0.719610  -0.157041  -0.389454
C    -0.390090  -0.159860  1.072879
O    0.757747  -0.490174  1.516829
H    -0.054696  0.545906  -0.911416
H    -1.755080  0.131165  -0.599864
H    -0.550209  -1.160808  -0.804298
N    -1.345928  0.195757  1.936085
C    -1.179232  0.292281  3.395617
C    -2.378467  -0.391466  4.107820
O    -3.140926  0.264198  4.832660
H    -2.240221  0.474082  1.539705
H    -0.270545  -0.278718  3.631535
C    -0.977286  1.737383  3.876277
C    -2.075418  2.736037  3.464819
C    -2.279492  3.903696  4.419022
C    -2.791018  3.505441  5.890454
N    -3.976321  2.758666  5.903852
H    0.002667  2.081388  3.517180
H    -0.889908  1.679732  4.970271
H    -3.035717  2.221927  3.318046
H    -1.822041  3.178515  2.486186
H    -3.015533  4.608334  4.011366
H    -1.345425  4.453306  4.607850
H    -2.919372  4.447286  6.437304
H    -1.984242  2.904483  6.340816
H    -4.884305  3.208230  5.995102
H    -3.942010  1.759162  5.676836
N    -2.555605  -1.715876  3.932548
C    -1.710263  -2.677201  3.235433
H    -3.366604  -2.084309  4.428132
H    -2.006607  -2.783415  2.182011
H    -1.815009  -3.652227  3.721724
H    -0.654401  -2.388379  3.288514
Cd    2.603375  -1.078813  0.381088
