34
Energy: -172328.02328 eV PBE+vdW (tier 2 basis)
C    -0.918530  1.575038  -0.144562
C    -0.849247  1.478020  1.346247
O    -0.040167  2.230430  1.963049
H    -1.214994  2.597693  -0.416379
H    -1.622729  0.865459  -0.592036
H    0.083248  1.412033  -0.562730
N    -1.662070  0.596475  1.963142
C    -1.858105  0.482363  3.410540
C    -0.677361  -0.263901  4.081927
O    0.179540  0.411404  4.744226
H    -2.290108  0.065781  1.365035
H    -1.789785  1.500070  3.828729
C    -3.271837  -0.031888  3.739290
C    -3.528431  -0.170381  5.247765
C    -4.913873  -0.731309  5.605568
C    -6.085454  0.232155  5.344652
N    -7.330177  -0.317052  5.788839
H    -3.460378  -0.991535  3.236735
H    -3.969033  0.692968  3.292936
H    -3.384362  0.805135  5.740157
H    -2.776331  -0.842239  5.689672
H    -4.907136  -0.990172  6.674850
H    -5.101261  -1.670421  5.062952
H    -6.189446  0.478625  4.277912
H    -5.871424  1.194535  5.863539
H    -7.409468  -0.669236  6.739077
H    -8.198777  0.014848  5.381619
N    -0.506624  -1.576213  4.004180
C    -1.329813  -2.606710  3.368635
H    0.323635  -1.904016  4.500453
H    -2.169455  -2.900199  4.011433
H    -0.696562  -3.484029  3.206010
H    -1.699286  -2.274174  2.394076
Cd    0.777080  2.385263  3.996464
