34
Energy: -172327.320381 eV PBE+vdW (tier 2 basis)
C    -1.308625  2.547088  0.864137
C    -0.987863  1.449303  1.827279
O    -0.056062  1.579440  2.703835
H    -0.398120  2.826850  0.318149
H    -1.642674  3.431953  1.426712
H    -2.088437  2.292348  0.141845
N    -1.619134  0.283685  1.813921
C    -2.632754  -0.232219  0.901847
C    -3.329117  -1.344941  1.734557
O    -2.685538  -1.888804  2.635859
H    -1.388256  -0.406131  2.548640
H    -3.334911  0.572198  0.647458
C    -2.053577  -0.824098  -0.417460
C    -1.120871  -2.029756  -0.247024
C    -0.647416  -2.544935  -1.612314
C    0.282401  -3.808499  -1.443623
N    0.720851  -4.339222  -2.681410
H    -1.535356  -0.007841  -0.945194
H    -2.908210  -1.100520  -1.052073
H    -1.639074  -2.837644  0.290338
H    -0.251880  -1.755341  0.370541
H    -0.084797  -1.774572  -2.158874
H    -1.502862  -2.834927  -2.239019
H    -0.290992  -4.576532  -0.902779
H    1.156786  -3.519587  -0.843987
H    0.140306  -4.975056  -3.220722
H    1.572456  -4.013865  -3.129041
N    -4.588221  -1.704090  1.411770
C    -5.533829  -1.039245  0.520896
H    -4.964241  -2.425280  2.027218
H    -5.035573  -0.647145  -0.371666
H    -6.062868  -0.220348  1.029595
H    -6.275906  -1.774712  0.193108
Cd    0.643229  3.308597  3.834262
