34
Energy: -172327.353225 eV PBE+vdW (tier 2 basis)
C    -0.122602  0.070880  0.288301
C    -0.255160  0.164817  1.771304
O    0.743259  0.540468  2.462423
H    -0.997226  0.473655  -0.231522
H    -0.005683  -0.985273  -0.006657
H    0.783205  0.600887  -0.022133
N    -1.411966  -0.155324  2.407303
C    -2.243162  -1.345765  2.138070
C    -1.317875  -2.590104  2.234885
O    -0.231412  -2.561794  2.900041
H    -1.419727  0.145810  3.381081
H    -2.888137  -1.424421  3.029061
C    -3.196956  -1.259416  0.931463
C    -4.250434  -0.134542  1.049760
C    -3.888041  1.235300  0.449007
C    -4.019142  1.312019  -1.081848
N    -5.377488  1.204960  -1.525621
H    -3.751774  -2.208873  0.895170
H    -2.638409  -1.201989  -0.013101
H    -4.509897  -0.000096  2.110617
H    -5.174379  -0.482975  0.567111
H    -2.871456  1.545827  0.727702
H    -4.549063  1.996988  0.889587
H    -3.432083  0.533599  -1.593598
H    -3.580821  2.281180  -1.410739
H    -6.073725  1.829095  -1.123780
H    -5.564934  0.932844  -2.486585
N    -1.697352  -3.720801  1.664164
C    -0.964087  -4.986560  1.783964
H    -2.560369  -3.721385  1.129142
H    -1.532051  -5.762230  1.264599
H    -0.852414  -5.260228  2.839373
H    0.029313  -4.896858  1.328945
Cd    1.161538  -1.123266  3.880592
