34
Energy: -172327.25558 eV PBE+vdW (tier 2 basis)
C    -0.479746  -0.091723  -0.067403
C    -0.344321  -0.217430  1.418613
O    0.775527  -0.494453  1.993919
H    0.181816  0.708139  -0.431562
H    -1.502129  0.142914  -0.381223
H    -0.182894  -1.036904  -0.544460
N    -1.414288  -0.046334  2.171401
C    -1.491103  -0.173393  3.634802
C    -2.910235  -0.747516  3.853852
O    -3.789578  -0.341631  3.079545
H    -2.335944  0.116554  1.745071
H    -0.702737  -0.862777  3.961347
C    -1.304381  1.223397  4.280045
C    -1.435590  1.332858  5.810013
C    -2.871672  1.560218  6.314730
C    -2.931873  1.837118  7.832263
N    -2.398910  3.101106  8.209622
H    -2.007370  1.915914  3.792998
H    -0.295679  1.554276  3.993215
H    -0.824840  2.190340  6.129186
H    -0.988171  0.456335  6.303848
H    -3.517135  0.694278  6.118122
H    -3.329277  2.405555  5.777352
H    -2.430839  1.054397  8.418723
H    -4.010258  1.791450  8.118038
H    -2.727453  3.950557  7.755789
H    -1.952374  3.227961  9.113666
N    -3.160149  -1.633028  4.832066
C    -2.263522  -2.216907  5.822429
H    -4.137633  -1.921568  4.869764
H    -2.476106  -3.288607  5.909515
H    -2.401698  -1.754183  6.809352
H    -1.218108  -2.102730  5.522880
Cd    2.710893  -0.753751  0.998157
