34
Energy: -172327.342537 eV PBE+vdW (tier 2 basis)
C    -0.181550  1.766670  0.997501
C    -0.203237  0.611221  1.946829
O    0.798705  0.352131  2.711814
H    0.669660  1.655545  0.312236
H    -0.035301  2.696973  1.566215
H    -1.093841  1.873361  0.405098
N    -1.234282  -0.215372  2.036374
C    -2.481862  -0.255376  1.273863
C    -3.456920  -1.026346  2.209322
O    -2.989859  -1.837623  3.013767
H    -1.197514  -0.957480  2.751929
H    -2.846455  0.769772  1.120794
C    -2.344010  -0.947393  -0.106118
C    -1.917202  -2.424554  -0.130305
C    -3.075084  -3.434221  -0.018383
C    -2.592991  -4.889022  -0.144813
N    -2.141067  -5.239403  -1.448461
H    -1.606986  -0.358776  -0.674908
H    -3.296518  -0.813926  -0.641404
H    -1.170692  -2.623387  0.654674
H    -1.399439  -2.610024  -1.084176
H    -3.828421  -3.232344  -0.796439
H    -3.588366  -3.349191  0.947715
H    -3.458568  -5.538772  0.134408
H    -1.802940  -5.129164  0.581186
H    -1.460625  -5.984071  -1.573780
H    -2.717660  -5.031738  -2.260894
N    -4.765635  -0.780773  2.034909
C    -5.808974  -1.410361  2.841782
H    -5.041243  -0.037194  1.400298
H    -6.117137  -0.754325  3.666780
H    -5.416270  -2.341340  3.261012
H    -6.677987  -1.618904  2.208293
Cd    2.400702  1.610148  3.475983
