34
Energy: -172327.179865 eV PBE+vdW (tier 2 basis)
C    0.251664  0.312321  0.799267
C    -0.284047  0.439734  2.188780
O    0.498177  0.489852  3.209262
H    0.833347  1.213571  0.553610
H    -0.521422  0.190261  0.036358
H    0.930728  -0.549043  0.752201
N    -1.582834  0.485633  2.450294
C    -2.735765  0.307536  1.563830
C    -3.873594  1.068675  2.307666
O    -3.930359  0.943378  3.533313
H    -1.862632  0.581014  3.436830
H    -2.521062  0.753436  0.585422
C    -3.102940  -1.191644  1.428212
C    -4.307437  -1.483464  0.525636
C    -4.644598  -2.983381  0.415244
C    -5.371992  -3.573252  1.641118
N    -6.723952  -3.142715  1.763586
H    -3.268432  -1.575890  2.446031
H    -2.216647  -1.711888  1.031480
H    -4.095108  -1.120452  -0.491776
H    -5.197664  -0.939638  0.876997
H    -3.730875  -3.572796  0.253145
H    -5.268843  -3.149735  -0.475075
H    -4.852796  -3.375287  2.589055
H    -5.347369  -4.682726  1.515253
H    -7.353266  -3.218487  0.967202
H    -7.172629  -3.104590  2.674682
N    -4.749992  1.803963  1.596835
C    -4.698052  2.172853  0.184064
H    -5.432404  2.286519  2.179994
H    -3.893598  2.892509  -0.024057
H    -5.648969  2.647039  -0.076522
H    -4.578880  1.292691  -0.457747
Cd    2.558025  1.136025  3.452937
