34
Energy: -172328.139467 eV PBE+vdW (tier 2 basis)
C    0.411932  0.923925  -0.227804
C    0.345052  0.545549  1.219586
O    1.438980  0.306821  1.816276
H    0.936682  0.127083  -0.772766
H    1.019902  1.832276  -0.333377
H    -0.570117  1.085287  -0.684742
N    -0.872945  0.472373  1.785853
C    -1.313190  -0.064934  3.095461
C    -1.069905  0.935133  4.240520
O    0.084175  1.209240  4.702348
H    -1.633985  0.718093  1.159331
H    -2.402568  -0.153599  2.981952
C    -0.800767  -1.481188  3.432956
C    -1.139108  -2.528105  2.363555
C    -0.680559  -3.954467  2.714972
C    -1.533607  -4.678514  3.765579
N    -2.874767  -4.928338  3.304102
H    -1.251006  -1.748085  4.401270
H    0.291756  -1.485784  3.601557
H    -0.669612  -2.241674  1.411796
H    -2.227593  -2.533432  2.188661
H    0.364112  -3.948782  3.061231
H    -0.678784  -4.555117  1.793051
H    -1.594856  -4.118551  4.711206
H    -1.017973  -5.629289  4.021727
H    -2.975476  -5.440811  2.429782
H    -3.564143  -5.202873  3.999498
N    -2.131343  1.510257  4.783582
C    -2.065867  2.460541  5.900032
H    -3.047129  1.292740  4.401171
H    -1.485334  2.031226  6.724037
H    -3.084793  2.666569  6.236752
H    -1.591778  3.395238  5.576415
Cd    1.970611  0.495190  3.904433
