34
Energy: -172327.554064 eV PBE+vdW (tier 2 basis)
C    1.665310  1.424564  0.308473
C    0.703827  0.315539  0.094982
O    0.860761  -0.426115  -0.939918
H    1.638477  1.826131  1.322447
H    1.503111  2.219286  -0.434030
H    2.668480  1.022018  0.099089
N    -0.287138  -0.014703  0.967376
C    -1.367082  0.757687  1.614773
C    -2.584712  0.805142  0.644418
O    -2.673644  0.056401  -0.417594
H    -0.514064  -1.010111  0.922963
H    -1.695044  0.100457  2.436193
C    -1.005890  2.104845  2.263873
C    -0.927078  3.371299  1.381231
C    -1.514604  4.621816  2.063495
C    -3.032378  4.784455  1.982092
N    -3.789463  3.680550  2.628173
H    -0.076732  1.959347  2.831914
H    -1.764919  2.248081  3.042431
H    -1.435347  3.215239  0.415590
H    0.119065  3.584684  1.134096
H    -1.081280  5.516979  1.596644
H    -1.186472  4.656981  3.115437
H    -3.352557  4.825189  0.930014
H    -3.311077  5.750746  2.432304
H    -4.792247  3.885230  2.604329
H    -3.548206  3.604624  3.620519
N    -3.609591  1.550068  0.958759
C    -4.837371  1.576221  0.157656
H    -3.587314  2.299947  1.766535
H    -5.294170  0.580411  0.119651
H    -4.633450  1.911108  -0.867128
H    -5.536252  2.270345  0.632180
Cd    -1.164612  -0.904531  -1.558718
