34
Energy: -172327.616062 eV PBE+vdW (tier 2 basis)
C    1.180722  1.369540  1.528597
C    0.410093  0.503411  2.463317
O    0.966935  0.067714  3.520467
H    2.195731  0.957399  1.443987
H    1.297068  2.375686  1.959758
H    0.728572  1.438418  0.534965
N    -0.876596  0.157084  2.201407
C    -1.928815  1.086937  1.786689
C    -2.253567  1.979960  3.012716
O    -2.034547  1.591990  4.206811
H    -1.219493  -0.613273  2.778097
H    -1.541238  1.720751  0.975907
C    -3.145419  0.279003  1.277952
C    -4.278130  1.105994  0.660665
C    -5.414049  0.272296  0.037544
C    -5.083549  -0.406191  -1.302602
N    -4.214612  -1.549290  -1.184888
H    -3.540794  -0.329802  2.108375
H    -2.753385  -0.426842  0.528029
H    -3.871437  1.785181  -0.108426
H    -4.741588  1.742447  1.430571
H    -6.266038  0.940298  -0.145913
H    -5.775395  -0.479930  0.756990
H    -4.629255  0.305910  -2.006324
H    -6.051286  -0.708124  -1.760488
H    -4.563466  -2.333829  -0.636640
H    -3.731529  -1.849839  -2.028802
N    -2.804139  3.163662  2.791615
C    -3.212607  4.100662  3.843378
H    -3.006410  3.422055  1.829177
H    -2.444059  4.142463  4.621507
H    -4.160827  3.783300  4.295505
H    -3.335813  5.090595  3.396243
Cd    -0.416409  0.433483  5.220692
