34
Energy: -172327.154835 eV PBE+vdW (tier 2 basis)
C    0.129462  0.275006  0.270933
C    -0.112689  -0.023664  1.715266
O    0.838500  -0.406396  2.492129
H    0.849069  1.103101  0.189825
H    -0.771871  0.553350  -0.281032
H    0.576011  -0.606206  -0.208725
N    -1.313676  0.065252  2.270168
C    -2.626251  0.303902  1.660318
C    -3.459967  0.884603  2.838499
O    -3.337344  0.347730  3.941238
H    -1.384776  -0.162634  3.271490
H    -2.525915  1.033845  0.848840
C    -3.225147  -1.025042  1.134954
C    -4.680761  -1.006156  0.631160
C    -5.732668  -1.287962  1.718139
C    -7.162778  -1.378104  1.147437
N    -7.398220  -2.535158  0.353079
H    -3.114511  -1.779343  1.928151
H    -2.573718  -1.345975  0.307454
H    -4.773173  -1.782147  -0.143171
H    -4.905101  -0.057562  0.118408
H    -5.739487  -0.508509  2.490772
H    -5.493403  -2.228536  2.238414
H    -7.435251  -0.487996  0.563238
H    -7.851394  -1.387597  2.026804
H    -7.174868  -3.458739  0.717309
H    -8.072018  -2.512948  -0.407461
N    -4.290107  1.920340  2.604213
C    -4.386585  2.764904  1.414317
H    -4.756128  2.254450  3.446649
H    -5.278368  3.390970  1.515221
H    -4.503962  2.167051  0.503698
H    -3.517153  3.428869  1.308441
Cd    2.996326  -0.161074  2.417140
