34
Energy: -172327.761399 eV PBE+vdW (tier 2 basis)
C    -1.425831  1.744032  -1.008389
C    -0.845436  1.280365  0.283540
O    0.099382  1.938457  0.820108
H    -0.603144  2.103383  -1.640923
H    -2.078719  2.613023  -0.833988
H    -1.981522  0.962606  -1.535121
N    -1.299665  0.154549  0.891003
C    -2.708733  -0.178339  1.087129
C    -3.219683  0.674759  2.284161
O    -2.432733  1.332478  3.034553
H    -0.696319  -0.170551  1.648512
H    -3.261757  0.130048  0.187382
C    -2.894728  -1.691830  1.317738
C    -2.511291  -2.546453  0.102023
C    -2.700243  -4.045343  0.370519
C    -2.305690  -4.909716  -0.843719
N    -2.504746  -6.303925  -0.611087
H    -3.945581  -1.878861  1.583475
H    -2.308100  -1.990841  2.202552
H    -1.463614  -2.349851  -0.174220
H    -3.123014  -2.243001  -0.763294
H    -3.750664  -4.248992  0.632939
H    -2.091513  -4.361784  1.230559
H    -1.253847  -4.752068  -1.120392
H    -2.907846  -4.576678  -1.720170
H    -1.903022  -6.989424  -1.056480
H    -3.406902  -6.648541  -0.295093
N    -4.522656  0.689296  2.519843
C    -5.151812  1.432211  3.617896
H    -5.127012  0.131890  1.922465
H    -6.236232  1.372686  3.496436
H    -4.839739  2.481977  3.589277
H    -4.868461  0.999460  4.584892
Cd    -0.393471  2.278399  2.967981
