34
Energy: -172327.315863 eV PBE+vdW (tier 2 basis)
C    -0.821346  0.455217  0.049282
C    -0.580250  0.334151  1.526628
O    0.563599  0.373135  2.008046
H    -0.502492  1.455198  -0.275314
H    -1.863164  0.295646  -0.247225
H    -0.178121  -0.265397  -0.470941
N    -1.690082  0.194984  2.321778
C    -1.760237  -0.107162  3.748239
C    -1.089897  0.938104  4.677326
O    -1.804048  1.242032  5.694228
H    -2.586525  0.216013  1.843872
H    -2.824768  -0.013456  3.997960
C    -1.381930  -1.568631  4.155943
C    0.050186  -2.053888  3.932395
C    0.316997  -3.462890  4.515739
C    -0.269384  -4.631245  3.709736
N    0.367810  -4.843180  2.452896
H    -2.097787  -2.205979  3.615765
H    -1.643591  -1.654857  5.222940
H    0.761429  -1.372655  4.421664
H    0.306824  -2.054588  2.864046
H    -0.074072  -3.534154  5.540939
H    1.404855  -3.605477  4.599830
H    -1.353812  -4.551128  3.546607
H    -0.143461  -5.542459  4.346025
H    -0.113236  -5.358498  1.720366
H    1.384353  -4.868556  2.403384
N    0.107734  1.396835  4.393229
C    0.853883  2.382556  5.160151
H    0.504953  1.018169  3.490288
H    1.798518  2.576823  4.642002
H    1.099599  2.010238  6.166520
H    0.312589  3.339792  5.221974
Cd    -1.602912  2.602181  7.409645
