34
Energy: -172329.510686 eV PBE+vdW (tier 2 basis)
C    -1.169833  -1.024751  -0.143776
C    -1.352991  -1.561387  1.235903
O    -1.201610  -2.809580  1.424968
H    -1.307196  0.059978  -0.204692
H    -1.880369  -1.522365  -0.817733
H    -0.162272  -1.284704  -0.496342
N    -1.664096  -0.693599  2.226363
C    -1.765638  -1.115310  3.618011
C    -3.162541  -1.695224  3.934263
O    -3.326806  -2.952646  3.872203
H    -1.757046  0.289136  1.981633
H    -1.092076  -1.980732  3.646247
C    -1.131214  -0.249486  4.711599
C    -0.702840  -1.207711  5.852637
C    0.470469  -2.144886  5.453970
C    0.417881  -3.611160  5.884797
N    -0.687022  -4.462586  5.268994
H    -1.807591  0.528311  5.091577
H    -0.252819  0.267988  4.299158
H    -1.584384  -1.786432  6.176984
H    -0.415453  -0.614043  6.728211
H    1.400095  -1.746917  5.885521
H    0.663743  -2.111504  4.365428
H    0.309196  -3.696255  6.975746
H    1.362173  -4.094513  5.608652
H    -0.414234  -5.446273  5.369214
H    -1.539595  -4.365728  5.832053
N    -4.149390  -0.868618  4.238305
C    -5.534314  -1.271356  4.503103
H    -3.935521  0.123591  4.304402
H    -5.773850  -1.109951  5.561315
H    -5.652540  -2.328567  4.255715
H    -6.209059  -0.667684  3.885854
Cd    -1.470443  -4.008265  3.216129
