34
Energy: -172327.055447 eV PBE+vdW (tier 2 basis)
C    1.488537  1.017168  1.218599
C    1.908530  0.082936  2.303070
O    3.129681  -0.278091  2.454962
H    0.404538  1.067216  1.084109
H    1.939286  0.688963  0.271263
H    1.882477  2.019870  1.439424
N    1.056348  -0.418081  3.205711
C    -0.343588  -0.057805  3.532273
C    -1.282878  -0.602025  2.404400
O    -1.601509  0.141665  1.475070
H    1.507559  -1.057661  3.860974
H    -0.546092  -0.614552  4.456672
C    -0.559528  1.438982  3.811577
C    -1.787711  1.773479  4.676048
C    -3.158774  1.567019  4.011658
C    -4.312432  2.100965  4.888450
N    -4.363959  3.519542  4.974891
H    -0.614961  1.988002  2.862470
H    0.329271  1.795512  4.352919
H    -1.697325  2.832488  4.962128
H    -1.739888  1.206781  5.620573
H    -3.366525  0.503141  3.829831
H    -3.191627  2.054047  3.025170
H    -4.287415  1.685874  5.905527
H    -5.258444  1.726130  4.427997
H    -4.707616  3.977708  5.814512
H    -4.360516  4.086068  4.129697
N    -1.701649  -1.878352  2.504985
C    -1.407950  -2.858148  3.549409
H    -2.304159  -2.174110  1.739483
H    -0.334258  -3.078619  3.615885
H    -1.916947  -3.790461  3.287985
H    -1.783622  -2.541129  4.531339
Cd    4.809431  -0.378999  1.037419
