34
Energy: -172328.086981 eV PBE+vdW (tier 2 basis)
C    0.670176  -0.740622  -0.140448
C    0.431781  -0.546838  1.331696
O    1.550586  -0.456578  2.008971
H    1.413976  -1.531055  -0.296435
H    1.087085  0.179015  -0.574173
H    -0.250445  -1.013119  -0.666551
N    -0.807234  -0.480818  1.780687
C    -1.034726  -0.180765  3.180760
C    -0.656062  -1.309158  4.181717
O    0.211073  -1.045186  5.099674
H    -1.983059  -0.015903  0.722640
H    -0.342140  0.641774  3.493932
C    -2.406528  0.480122  3.476755
C    -3.752871  -0.239882  3.293097
C    -4.250463  -0.622804  1.885365
C    -4.107282  0.452084  0.806336
N    -2.806773  0.281922  0.049150
H    -2.398632  1.416790  2.895446
H    -2.363542  0.809874  4.525621
H    -4.494833  0.451522  3.720374
H    -3.804426  -1.125668  3.940307
H    -5.318060  -0.863890  1.974198
H    -3.785385  -1.551772  1.521749
H    -4.109411  1.465926  1.224968
H    -4.917307  0.400021  0.070775
H    -2.549704  1.136694  -0.457620
H    -2.906657  -0.459925  -0.653432
N    -1.170281  -2.525084  4.169734
C    -2.075976  -3.158708  3.215623
H    -0.821890  -3.119860  4.925132
H    -1.667640  -4.145250  2.965867
H    -2.129503  -2.560231  2.305199
H    -3.072633  -3.294162  3.651974
Cd    1.780271  -0.008681  4.051999
