34
Energy: -172327.547425 eV PBE+vdW (tier 2 basis)
C    -1.517045  1.393390  0.309675
C    -0.664279  0.859915  1.408578
O    -0.034879  1.666684  2.163288
H    -2.443596  1.817398  0.725948
H    -1.757803  0.643213  -0.449330
H    -0.982599  2.231719  -0.157682
N    -0.534733  -0.475185  1.611561
C    -1.643482  -1.428654  1.654685
C    -2.380501  -1.208427  2.998028
O    -1.812877  -0.611804  3.973112
H    0.232346  -0.720747  2.240151
H    -2.327225  -1.202155  0.824521
C    -1.104013  -2.872108  1.534712
C    -0.417699  -3.166744  0.190800
C    -1.363511  -3.458484  -0.988354
C    -1.895759  -4.902133  -1.030419
N    -0.866005  -5.859515  -1.310760
H    -1.928583  -3.575627  1.715894
H    -0.396171  -3.035525  2.363191
H    0.250740  -4.028443  0.329672
H    0.239089  -2.324280  -0.071734
H    -0.836423  -3.254804  -1.932259
H    -2.230336  -2.778333  -0.991791
H    -2.691105  -4.947559  -1.807179
H    -2.384281  -5.192153  -0.088039
H    -0.300631  -5.735283  -2.147652
H    -1.011696  -6.830216  -1.048218
N    -3.610476  -1.672959  3.170605
C    -4.454310  -2.433250  2.248872
H    -3.991066  -1.507490  4.103907
H    -4.145041  -2.275179  1.211888
H    -5.487702  -2.086533  2.356855
H    -4.416820  -3.505140  2.483483
Cd    -0.383671  1.077472  4.278266
