34
Energy: -172327.690709 eV PBE+vdW (tier 2 basis)
C    0.212153  0.030053  0.606423
C    0.018732  0.152819  2.078779
O    1.028968  0.114745  2.849040
H    0.625436  0.967529  0.204133
H    -0.706435  -0.230012  0.072244
H    0.974548  -0.740156  0.427252
N    -1.220549  0.291373  2.613689
C    -2.246099  1.211367  2.126892
C    -1.836782  2.642528  2.574032
O    -0.923067  2.853417  3.433976
H    -1.249614  0.145359  3.624598
H    -2.245691  1.180675  1.027769
C    -3.634009  0.818410  2.679170
C    -4.138082  -0.569832  2.258643
C    -4.532246  -0.695156  0.780675
C    -5.171436  -2.058131  0.445224
N    -6.450999  -2.247500  1.061864
H    -4.360938  1.585292  2.373234
H    -3.592328  0.876102  3.779296
H    -5.016531  -0.797216  2.879922
H    -3.387896  -1.335749  2.511721
H    -3.660256  -0.580525  0.118113
H    -5.236197  0.107365  0.505202
H    -4.515717  -2.886632  0.746468
H    -5.263534  -2.121998  -0.661198
H    -7.204799  -1.601059  0.841511
H    -6.758957  -3.190631  1.280475
N    -2.492300  3.664782  2.047402
C    -2.244356  5.069654  2.392472
H    -3.240244  3.468091  1.387915
H    -2.815994  5.698502  1.705390
H    -1.177663  5.298139  2.293019
H    -2.561232  5.272718  3.422662
Cd    0.887719  1.831104  4.257852
