34
Energy: -172327.26015 eV PBE+vdW (tier 2 basis)
C    -1.394303  1.012145  0.960596
C    -0.836433  0.362031  2.191797
O    0.396016  0.244658  2.372189
H    -0.882696  1.968249  0.796880
H    -2.476445  1.175433  0.996922
H    -1.168905  0.373557  0.094342
N    -1.736173  -0.090544  3.109642
C    -1.516558  -0.952357  4.273541
C    -0.586571  -0.373775  5.367850
O    -0.977974  -0.646845  6.553396
H    -2.712305  0.103923  2.904890
H    -2.485728  -0.963265  4.788382
C    -1.233468  -2.457012  3.943484
C    -0.209120  -2.830405  2.867897
C    1.274907  -2.758061  3.268465
C    2.215087  -2.925747  2.080661
N    2.210824  -1.822537  1.187028
H    -2.205806  -2.859601  3.626125
H    -1.005012  -2.958986  4.896399
H    -0.386308  -2.235187  1.959901
H    -0.435274  -3.866094  2.571858
H    1.499873  -3.553359  3.992965
H    1.512200  -1.807233  3.764810
H    2.006767  -3.857619  1.510915
H    3.259791  -3.100032  2.436280
H    2.744742  -1.853809  0.322063
H    1.734277  -0.947876  1.426612
N    0.479979  0.322715  5.041993
C    1.407273  0.954009  5.969803
H    0.644917  0.389254  4.008395
H    0.893521  1.685230  6.612535
H    2.155626  1.502391  5.389218
H    1.937098  0.209178  6.582233
Cd    -0.374719  -0.205171  8.618267
