34
Energy: -172327.199752 eV PBE+vdW (tier 2 basis)
C    0.198382  0.394774  0.693785
C    -0.057632  0.218096  2.157736
O    0.904700  0.006331  2.986306
H    0.789155  1.310404  0.541060
H    -0.708825  0.471966  0.089277
H    0.788503  -0.454672  0.324744
N    -1.276369  0.258543  2.672082
C    -2.563715  0.501223  2.012444
C    -3.457059  1.082403  3.138879
O    -3.211927  0.759918  4.307716
H    -1.369507  0.188569  3.695408
H    -2.419010  1.251548  1.224965
C    -3.206894  -0.767604  1.385300
C    -4.048562  -1.688970  2.290521
C    -3.284064  -2.413971  3.398146
C    -4.209638  -3.382424  4.234183
N    -4.693466  -4.497178  3.508460
H    -2.404903  -1.346321  0.902635
H    -3.860508  -0.423115  0.570961
H    -4.517614  -2.429433  1.626108
H    -4.876903  -1.112281  2.730922
H    -2.884564  -1.712155  4.144572
H    -2.443808  -2.995516  2.989736
H    -5.055750  -2.813563  4.637664
H    -3.583622  -3.736776  5.072597
H    -4.091353  -5.285826  3.290156
H    -5.668074  -4.583061  3.238416
N    -4.487860  1.876319  2.797464
C    -4.802633  2.434936  1.485066
H    -5.024650  2.212980  3.595485
H    -5.747262  2.980023  1.566236
H    -4.935225  1.647673  0.732350
H    -4.033671  3.143396  1.145759
Cd    3.057908  0.269332  2.798759
