34
Energy: -172327.29273 eV PBE+vdW (tier 2 basis)
C    0.398824  2.032145  0.773293
C    -0.125929  1.074235  1.794195
O    0.641428  0.551513  2.684790
H    1.216979  1.554016  0.218013
H    0.808019  2.915647  1.284948
H    -0.353406  2.372612  0.057168
N    -1.396422  0.699462  1.831215
C    -2.502998  0.993484  0.912773
C    -3.766070  0.822769  1.803363
O    -3.807975  -0.133849  2.578823
H    -1.667971  0.033663  2.567537
H    -2.423346  2.029920  0.557560
C    -2.498621  0.008989  -0.277502
C    -3.712513  0.073189  -1.231831
C    -4.813644  -0.932381  -0.875628
C    -5.959653  -0.910667  -1.964318
N    -6.963328  -1.880571  -1.729744
H    -2.384550  -1.009212  0.122396
H    -1.586638  0.217252  -0.857067
H    -3.350010  -0.143925  -2.246273
H    -4.120948  1.095317  -1.274730
H    -5.267468  -0.730467  0.103726
H    -4.402760  -1.951058  -0.842504
H    -5.493123  -1.102704  -2.942156
H    -6.415307  0.089687  -1.968947
H    -7.773372  -1.683099  -1.149939
H    -6.854369  -2.841091  -2.042943
N    -4.746472  1.726292  1.633866
C    -5.982132  1.705546  2.417134
H    -4.567932  2.533059  1.045252
H    -5.896501  2.344596  3.305593
H    -6.176032  0.678923  2.742299
H    -6.810002  2.064926  1.797077
Cd    2.607730  1.088681  3.436704
