34
Energy: -172328.001581 eV PBE+vdW (tier 2 basis)
C    -0.155883  -0.341674  -0.163301
C    -0.151269  -0.336619  1.332074
O    0.962492  -0.314498  1.932097
H    0.331278  0.577159  -0.518627
H    -1.161700  -0.403930  -0.592392
H    0.450253  -1.183298  -0.522553
N    -1.338966  -0.347934  1.971191
C    -1.531353  -0.167792  3.411907
C    -1.187741  -1.459408  4.195578
O    -0.095037  -1.508360  4.852171
H    -2.168433  -0.328027  1.383573
H    -0.767423  0.549894  3.753831
C    -2.893824  0.481393  3.719154
C    -3.126436  0.696703  5.223762
C    -4.273984  1.661107  5.560246
C    -5.681865  1.140662  5.220703
N    -6.699073  2.043478  5.665399
H    -3.708498  -0.104214  3.270726
H    -2.890684  1.454970  3.204621
H    -2.209978  1.112790  5.670435
H    -3.294033  -0.269378  5.727545
H    -4.121784  2.625181  5.052429
H    -4.230536  1.871329  6.639377
H    -5.810695  0.139098  5.692551
H    -5.816512  0.990741  4.139441
H    -7.606386  2.046442  5.210706
H    -6.699209  2.361552  6.630658
N    -1.976985  -2.524325  4.222018
C    -3.286635  -2.748522  3.608899
H    -1.602746  -3.290614  4.783911
H    -3.437362  -3.829485  3.530896
H    -3.328459  -2.330444  2.598862
H    -4.093069  -2.330201  4.224700
Cd    1.687357  -0.558215  3.991666
