34
Energy: -172327.432311 eV PBE+vdW (tier 2 basis)
C    -1.131019  -0.342260  -0.239201
C    -1.013185  0.479767  1.004210
O    -0.550207  1.678646  0.972670
H    -1.512670  -1.352618  -0.070983
H    -0.147381  -0.411005  -0.722261
H    -1.809781  0.164590  -0.941564
N    -1.349363  0.013668  2.199146
C    -1.803000  -1.309010  2.606772
C    -2.527565  -1.039852  3.958175
O    -2.236526  -0.029911  4.600591
H    -1.309403  0.660474  3.005497
H    -2.510169  -1.697469  1.859905
C    -0.661196  -2.350412  2.793183
C    0.361152  -2.013598  3.885416
C    1.423593  -3.114518  3.991683
C    2.458401  -2.790794  5.137845
N    3.441802  -3.798319  5.293028
H    -0.160782  -2.472886  1.819421
H    -1.138437  -3.317677  3.010203
H    -0.145487  -1.896839  4.855112
H    0.843070  -1.047505  3.669787
H    1.979265  -3.226982  3.049728
H    0.959382  -4.085113  4.217842
H    1.894538  -2.686920  6.077518
H    2.951481  -1.837034  4.904703
H    3.256457  -4.640911  5.829525
H    4.315430  -3.774283  4.775804
N    -3.414841  -1.972635  4.353036
C    -4.203752  -1.849004  5.575143
H    -3.642770  -2.731225  3.716790
H    -4.324774  -2.839525  6.027450
H    -5.197848  -1.432617  5.360511
H    -3.682070  -1.178975  6.264594
Cd    -0.707409  3.255523  -0.527816
