34
Energy: -172327.345276 eV PBE+vdW (tier 2 basis)
C    0.949784  1.433169  1.307509
C    0.130999  0.188870  1.259866
O    0.549188  -0.801934  0.578450
H    1.969599  1.196993  0.986330
H    0.957057  1.890937  2.301026
H    0.544678  2.167233  0.590960
N    -1.052671  0.075912  1.917593
C    -2.143665  1.069407  1.934872
C    -2.625690  1.237309  0.466396
O    -2.440707  0.327189  -0.408094
H    -1.380060  -0.888584  1.966485
H    -2.969585  0.547894  2.446000
C    -1.856702  2.367296  2.722198
C    -3.095829  2.966194  3.422256
C    -3.492034  2.316304  4.761219
C    -2.634183  2.758102  5.964640
N    -1.304098  2.198636  5.980604
H    -1.390987  3.116399  2.066271
H    -1.112444  2.129766  3.496495
H    -3.982757  2.922059  2.766902
H    -2.913326  4.037995  3.586209
H    -3.493639  1.215272  4.693433
H    -4.528317  2.597038  4.992123
H    -3.184383  2.460850  6.882377
H    -2.552447  3.852689  5.993730
H    -0.587066  2.740851  6.457695
H    -1.233525  1.204253  6.188872
N    -3.286720  2.331162  0.129677
C    -3.859964  2.569914  -1.200183
H    -3.442799  3.034019  0.846889
H    -4.342421  3.550336  -1.194511
H    -4.601531  1.798504  -1.438706
H    -3.071481  2.557683  -1.961448
Cd    -1.075471  -1.371164  -0.815048
