34
Energy: -172327.575908 eV PBE+vdW (tier 2 basis)
C    -0.489347  2.959999  -0.959753
C    -0.173987  2.368125  0.371181
O    0.775731  2.850180  1.064744
H    -1.032371  3.908604  -0.826895
H    -1.070107  2.290773  -1.601546
H    0.457541  3.218233  -1.452162
N    -0.878263  1.312416  0.851937
C    -2.339239  1.215307  0.845427
C    -2.860929  2.200357  1.922993
O    -2.099322  2.620770  2.857104
H    -0.452131  0.879187  1.672720
H    -2.703544  1.537574  -0.140265
C    -2.813641  -0.225561  1.132047
C    -2.661789  -1.230385  -0.022469
C    -1.240706  -1.741073  -0.301996
C    -1.215518  -2.868513  -1.355688
N    -1.846952  -4.074785  -0.910567
H    -3.876502  -0.179242  1.404769
H    -2.300233  -0.589599  2.037943
H    -3.092421  -0.800019  -0.941594
H    -3.295335  -2.095503  0.222920
H    -0.781576  -2.112466  0.629157
H    -0.587457  -0.938708  -0.672345
H    -0.150655  -3.062596  -1.610394
H    -1.700484  -2.547283  -2.287618
H    -2.289110  -4.684102  -1.592577
H    -1.474904  -4.555955  -0.095428
N    -4.126130  2.595946  1.907786
C    -5.210216  2.214916  1.001063
H    -4.377391  3.216209  2.679474
H    -4.818042  1.854735  0.045823
H    -5.828625  3.098450  0.809884
H    -5.838840  1.436604  1.453294
Cd    0.026858  3.248035  3.125438
