34
Energy: -172327.611606 eV PBE+vdW (tier 2 basis)
C    0.269876  0.808052  0.336012
C    0.000512  0.437662  1.753879
O    0.964933  0.106729  2.511817
H    1.028333  0.117362  -0.056746
H    0.719155  1.811867  0.289650
H    -0.623062  0.769589  -0.294894
N    -1.263794  0.431183  2.248490
C    -2.234791  1.511026  2.070908
C    -1.805465  2.663842  3.012446
O    -1.021613  2.452950  3.995803
H    -1.340886  -0.030035  3.156638
H    -2.178424  1.856600  1.028854
C    -3.661304  1.008150  2.379916
C    -4.140719  -0.048604  1.372881
C    -5.446544  -0.760938  1.754918
C    -6.709414  0.119722  1.686012
N    -7.899543  -0.635959  1.914847
H    -4.339500  1.871988  2.396517
H    -3.671395  0.598923  3.404350
H    -3.363958  -0.820564  1.268818
H    -4.243484  0.413870  0.377523
H    -5.371512  -1.188579  2.766125
H    -5.578393  -1.611827  1.069854
H    -6.743216  0.598895  0.680030
H    -6.685456  0.941353  2.416066
H    -8.721879  -0.194115  2.312958
H    -8.069829  -1.488469  1.388243
N    -2.275867  3.889772  2.824173
C    -3.216406  4.381133  1.817032
H    -1.955813  4.568617  3.516870
H    -2.892277  5.376756  1.495458
H    -4.228241  4.459806  2.235650
H    -3.234234  3.726310  0.941211
Cd    0.801126  1.218734  4.436832
