34
Energy: -172327.587551 eV PBE+vdW (tier 2 basis)
C    -2.355162  4.065291  -1.230483
C    -1.398044  3.328066  -0.360638
O    -0.167096  3.650684  -0.365666
H    -1.877058  4.211530  -2.209300
H    -2.531299  5.073583  -0.826006
H    -3.306299  3.541735  -1.363754
N    -1.808300  2.302238  0.427957
C    -2.977605  2.325571  1.305988
C    -2.606957  3.214374  2.523766
O    -1.396439  3.450066  2.846586
H    -1.042330  1.729252  0.786347
H    -3.809365  2.801371  0.766302
C    -3.371601  0.874769  1.676340
C    -4.691703  0.729117  2.444344
C    -5.265136  -0.700044  2.489849
C    -4.507712  -1.703356  3.372011
N    -3.272948  -2.174142  2.798309
H    -2.546252  0.403736  2.233947
H    -3.446935  0.340176  0.717467
H    -5.460175  1.357964  1.962579
H    -4.582512  1.096370  3.477089
H    -5.361465  -1.102835  1.468817
H    -6.289351  -0.638776  2.881578
H    -5.193958  -2.560268  3.554547
H    -4.292823  -1.281707  4.365142
H    -3.338182  -2.636149  1.892622
H    -2.625213  -2.644473  3.427005
N    -3.592967  3.718411  3.248840
C    -3.405175  4.555541  4.438361
H    -4.546009  3.472704  2.992926
H    -3.087904  3.945631  5.293533
H    -4.355608  5.042782  4.671057
H    -2.642586  5.316057  4.241553
Cd    0.511640  3.803506  1.741172
