34
Energy: -172327.949518 eV PBE+vdW (tier 2 basis)
C    -0.220738  0.550445  -0.178824
C    -0.124387  0.257183  1.284019
O    1.024364  0.206444  1.814844
H    0.195741  1.550571  -0.364436
H    -1.247009  0.512873  -0.559752
H    0.403747  -0.162932  -0.731730
N    -1.267786  0.066575  1.971518
C    -1.373031  -0.054304  3.429095
C    -0.886889  -1.442048  3.907221
O    0.217067  -1.520044  4.546914
H    -2.133261  0.181401  1.449723
H    -0.642526  0.646529  3.867789
C    -2.759919  0.417726  3.914080
C    -2.891282  0.670801  5.425856
C    -3.049109  -0.566887  6.318695
C    -3.350773  -0.168544  7.778902
N    -3.553240  -1.304161  8.630000
H    -3.550790  -0.263761  3.571589
H    -2.933719  1.374356  3.397841
H    -3.776754  1.310463  5.555066
H    -2.039709  1.279491  5.771213
H    -2.143510  -1.191682  6.324238
H    -3.874095  -1.194087  5.942982
H    -4.247760  0.488620  7.779447
H    -2.529096  0.431338  8.192999
H    -3.307735  -1.226004  9.612433
H    -4.343850  -1.917155  8.448933
N    -1.555793  -2.563350  3.679859
C    -2.845740  -2.787816  3.026211
H    -1.091476  -3.392230  4.054733
H    -2.838461  -3.800584  2.610743
H    -3.001171  -2.086440  2.202586
H    -3.672647  -2.711194  3.743463
Cd    1.875084  -0.306446  3.769408
