34
Energy: -172327.621402 eV PBE+vdW (tier 2 basis)
C    0.483727  -0.963212  1.037582
C    0.385971  -0.281534  2.358992
O    1.441701  -0.062144  3.031489
H    -0.472407  -1.364468  0.688992
H    1.214179  -1.778524  1.129353
H    0.894211  -0.269650  0.287968
N    -0.814574  0.099367  2.863924
C    -1.845767  0.818646  2.115394
C    -1.343946  2.269920  1.920472
O    -0.428080  2.757957  2.663598
H    -0.777477  0.360889  3.850897
H    -1.959920  0.340493  1.132904
C    -3.180654  0.795475  2.892408
C    -3.795646  -0.597770  3.089714
C    -4.385155  -1.228352  1.820833
C    -5.102515  -2.565769  2.095129
N    -6.289480  -2.416380  2.884495
H    -3.898062  1.451004  2.379262
H    -3.005665  1.263902  3.874802
H    -4.594364  -0.497241  3.838881
H    -3.053046  -1.278698  3.535223
H    -3.605030  -1.433704  1.071109
H    -5.095306  -0.531850  1.345426
H    -4.434599  -3.273685  2.604895
H    -5.347522  -3.023478  1.111812
H    -6.590168  -3.188172  3.472745
H    -7.049637  -1.843150  2.526409
N    -1.890467  3.047197  0.995885
C    -2.984549  2.760168  0.067586
H    -1.515820  3.997216  0.976296
H    -3.092980  1.683762  -0.092275
H    -2.756082  3.230956  -0.894602
H    -3.930424  3.170496  0.444706
Cd    1.434493  2.067321  3.682216
