34
Energy: -172326.975097 eV PBE+vdW (tier 2 basis)
C    -0.039998  1.920892  -0.672380
C    0.494954  0.726645  0.046426
O    1.436826  0.020092  -0.471487
H    0.783688  2.640447  -0.805263
H    -0.870069  2.415165  -0.170861
H    -0.397846  1.602523  -1.660431
N    0.093540  0.314650  1.252710
C    -1.069726  0.671352  2.090008
C    -2.363365  0.252122  1.348079
O    -2.480526  0.476157  0.146643
H    0.609919  -0.505314  1.571034
H    -0.935572  0.046825  2.982674
C    -1.065017  2.144139  2.565543
C    -1.996952  2.446411  3.757547
C    -3.406190  2.909140  3.368707
C    -4.351870  3.050264  4.596333
N    -4.801275  1.783730  5.125505
H    -1.301869  2.822880  1.735925
H    -0.029698  2.360572  2.863518
H    -1.527269  3.244561  4.349667
H    -2.038002  1.574828  4.428664
H    -3.880289  2.241512  2.634781
H    -3.354889  3.899414  2.893590
H    -5.229402  3.632117  4.271392
H    -3.837402  3.609892  5.388477
H    -4.579006  1.558779  6.092341
H    -5.724790  1.460870  4.845901
N    -3.359506  -0.375355  2.040415
C    -3.454107  -0.742915  3.431570
H    -4.161844  -0.586380  1.445677
H    -2.477919  -0.996619  3.859744
H    -4.116037  -1.610223  3.531740
H    -3.886606  0.089079  4.044278
Cd    2.675655  0.415676  -2.217166
