34
Energy: -172329.617635 eV PBE+vdW (tier 2 basis)
C    -0.116747  1.454560  -0.453456
C    -0.287599  0.703336  0.824250
O    -0.418795  1.363262  1.901677
H    -0.018919  0.802014  -1.327335
H    0.770862  2.096664  -0.374130
H    -0.979422  2.120694  -0.592044
N    -0.305176  -0.646870  0.775689
C    -0.568940  -1.493412  1.936704
C    0.719129  -1.709337  2.762828
O    0.969885  -0.917700  3.723572
H    -0.200499  -1.082543  -0.137476
H    -1.220963  -0.876112  2.573505
C    -1.448177  -2.719921  1.695994
C    -2.034014  -3.243227  3.028968
C    -2.799285  -2.193438  3.886088
C    -2.085609  -1.739805  5.182776
N    -2.017500  -0.233807  5.363317
H    -0.913634  -3.530147  1.177397
H    -2.266831  -2.415188  1.026539
H    -1.237176  -3.702888  3.633624
H    -2.714110  -4.065778  2.778539
H    -3.770517  -2.617260  4.167495
H    -3.066003  -1.314864  3.271676
H    -1.053257  -2.107368  5.227067
H    -2.604207  -2.143869  6.062248
H    -1.738420  -0.031110  6.330299
H    -2.955057  0.172226  5.263736
N    1.536674  -2.694694  2.432377
C    2.820215  -2.979727  3.081652
H    1.254464  -3.310482  1.673581
H    3.603602  -3.045733  2.318220
H    2.761377  -3.933907  3.619409
H    3.053142  -2.175237  3.782524
Cd    -0.555492  0.678666  3.946692
