34
Energy: -172327.535153 eV PBE+vdW (tier 2 basis)
C    1.345359  1.958428  0.645466
C    1.038184  2.497603  1.999673
O    1.794369  3.382352  2.510222
H    0.826686  1.020165  0.427570
H    2.430753  1.798685  0.584350
H    1.105498  2.710045  -0.121852
N    -0.026360  2.047243  2.711754
C    -1.377850  1.887130  2.179561
C    -2.003783  3.303710  2.106508
O    -1.506487  4.281118  2.757076
H    -0.006725  2.333115  3.691288
H    -1.293857  1.489418  1.158922
C    -2.201071  0.889529  3.029582
C    -2.501936  1.334087  4.468630
C    -3.099313  0.233982  5.362148
C    -4.541393  -0.180268  4.993160
N    -5.062215  -1.162847  5.888240
H    -1.630914  -0.051466  3.033411
H    -3.135645  0.677541  2.492983
H    -3.166721  2.213212  4.466887
H    -1.575497  1.659545  4.970457
H    -3.111917  0.589350  6.401308
H    -2.447482  -0.653679  5.342800
H    -4.551787  -0.574316  3.952541
H    -5.213139  0.689137  5.006943
H    -6.033969  -1.140580  6.177926
H    -4.571535  -2.039285  6.038198
N    -3.091282  3.513578  1.376097
C    -3.864708  2.571337  0.565895
H    -3.435978  4.474099  1.411391
H    -3.239999  1.742557  0.219653
H    -4.243349  3.103708  -0.312868
H    -4.719022  2.176320  1.130658
Cd    0.535889  5.027769  3.326563
