34
Energy: -172327.458321 eV PBE+vdW (tier 2 basis)
C    0.251468  -1.197815  0.322962
C    -0.183881  -0.159001  1.310854
O    0.637411  0.651532  1.868711
H    0.725307  -0.707336  -0.539864
H    -0.576356  -1.812162  -0.046320
H    0.989777  -1.862679  0.793377
N    -1.471776  -0.081961  1.623263
C    -2.074373  0.857500  2.582978
C    -3.094483  0.016408  3.376780
O    -3.981880  -0.575083  2.733325
H    -2.121304  -0.745645  1.199485
H    -1.268613  1.228007  3.231471
C    -2.738110  2.028232  1.829110
C    -3.471507  3.072953  2.680293
C    -4.871603  2.717799  3.233587
C    -5.937577  2.443275  2.172377
N    -5.839720  1.185600  1.525259
H    -3.414472  1.611292  1.062996
H    -1.938314  2.533179  1.267234
H    -3.566663  3.981790  2.068872
H    -2.846109  3.367220  3.538874
H    -5.220107  3.576596  3.822470
H    -4.831984  1.876109  3.939573
H    -6.006257  3.244061  1.412361
H    -6.935592  2.500745  2.681734
H    -5.367673  0.389283  1.976803
H    -6.374533  1.005002  0.678529
N    -2.961911  -0.026326  4.704954
C    -3.856837  -0.770510  5.592007
H    -2.192266  0.484498  5.126611
H    -3.266756  -1.408951  6.258904
H    -4.517098  -1.392933  4.982400
H    -4.457392  -0.080036  6.197721
Cd    2.807935  0.861976  1.469612
