34
Energy: -172328.150853 eV PBE+vdW (tier 2 basis)
C    -1.168776  0.054522  0.086579
C    -0.889276  0.191898  1.561095
O    0.259507  0.784533  1.784333
H    -1.961528  -0.676148  -0.106381
H    -0.261277  -0.269176  -0.435707
H    -1.444473  1.031933  -0.334820
N    -1.777792  -0.259067  2.423077
C    -1.580588  -0.059473  3.849136
C    -0.461385  -0.934664  4.486629
O    0.574416  -0.347325  4.983695
H    -3.345204  -0.343242  1.755096
H    -1.190140  0.970502  4.038661
C    -2.899833  -0.077323  4.680615
C    -4.032619  -1.037984  4.253491
C    -5.306239  -0.350195  3.733144
C    -5.122549  0.542746  2.511386
N    -4.373066  -0.183937  1.419301
H    -3.276305  0.955557  4.667825
H    -2.626926  -0.254836  5.729971
H    -4.324684  -1.656463  5.111177
H    -3.672279  -1.748740  3.499111
H    -5.752867  0.273327  4.521462
H    -6.057762  -1.122835  3.508678
H    -4.527930  1.439258  2.730544
H    -6.087878  0.870425  2.109196
H    -4.815765  -1.084338  1.198553
H    -4.354568  0.366592  0.553372
N    -0.501031  -2.250137  4.591432
C    -1.511008  -3.210790  4.152498
H    0.311986  -2.639669  5.072462
H    -1.004676  -4.163944  3.970009
H    -1.969720  -2.874994  3.219392
H    -2.274245  -3.363394  4.925228
Cd    1.089644  1.245891  3.651487
