34
Energy: -172327.634757 eV PBE+vdW (tier 2 basis)
C    1.214176  1.576795  1.461503
C    1.218993  0.213871  2.047042
O    2.350862  -0.324567  2.316776
H    1.881654  2.189531  2.090202
H    0.224089  2.034189  1.437292
H    1.676379  1.572868  0.463818
N    0.090195  -0.470799  2.401170
C    -1.119618  -0.849950  1.650325
C    -1.010475  -2.352715  1.278173
O    0.092457  -3.039565  1.257193
H    0.244524  -1.061823  3.221293
H    -1.961143  -0.772532  2.352679
C    -1.429201  0.011330  0.407581
C    -2.319438  1.232482  0.708777
C    -3.833890  1.010103  0.551009
C    -4.533174  -0.005350  1.461446
N    -4.439498  -1.416345  0.984096
H    -1.927117  -0.630061  -0.330179
H    -0.488871  0.307593  -0.076870
H    -2.039515  2.043077  0.021689
H    -2.108105  1.613141  1.721656
H    -4.061148  0.768888  -0.501008
H    -4.318106  1.980714  0.728610
H    -5.595547  0.274751  1.537804
H    -4.136696  0.034621  2.487517
H    -5.066061  -1.998357  1.548586
H    -4.806203  -1.470692  0.028403
N    -2.136597  -2.922356  0.950903
C    -2.267546  -4.316287  0.522936
H    -3.039144  -2.294085  0.973223
H    -3.328617  -4.523815  0.358953
H    -1.882299  -4.995845  1.292379
H    -1.718596  -4.489777  -0.410945
Cd    2.018180  -2.428322  1.895453
