34
Energy: -172329.866259 eV PBE+vdW (tier 2 basis)
C    -0.100631  0.783915  0.371167
C    -0.955673  0.078737  1.379962
O    -1.251832  -1.129245  1.140406
H    0.859071  0.254908  0.293045
H    0.086461  1.836338  0.607806
H    -0.583837  0.713770  -0.612235
N    -1.336386  0.794750  2.455355
C    -2.176409  0.538618  3.657392
C    -1.625423  -0.593026  4.534184
O    -1.572160  -1.801135  4.149842
H    -0.982323  1.746784  2.430247
H    -2.029705  1.459878  4.231882
C    -3.712739  0.515422  3.412686
C    -4.419639  -0.640398  2.677790
C    -4.900612  -1.823511  3.551774
C    -5.245541  -3.088135  2.759215
N    -4.015132  -3.915000  2.430064
H    -3.920951  1.447110  2.868305
H    -4.183587  0.646864  4.399679
H    -3.818489  -0.956574  1.800033
H    -5.310991  -0.217273  2.192383
H    -5.807490  -1.504786  4.083740
H    -4.183133  -2.078225  4.349149
H    -5.729262  -2.836335  1.807032
H    -5.935457  -3.727956  3.323135
H    -3.842075  -4.579732  3.191576
H    -4.187802  -4.489498  1.598916
N    -1.213947  -0.298086  5.762680
C    -1.154402  1.002563  6.441817
H    -0.881030  -1.106590  6.288899
H    -0.765367  0.833337  7.449669
H    -2.149958  1.452750  6.536704
H    -0.471078  1.690503  5.928728
Cd    -2.268190  -2.612452  2.251278
