34
Energy: -172327.207879 eV PBE+vdW (tier 2 basis)
C    0.161567  0.376441  -0.101334
C    0.163207  0.040024  1.351873
O    1.258500  -0.210224  1.967047
H    -0.826006  0.551925  -0.524586
H    0.621471  -0.450436  -0.657024
H    0.779635  1.279879  -0.240869
N    -0.932776  -0.008010  2.128881
C    -2.357949  -0.157533  1.803430
C    -2.581125  -1.491463  1.020264
O    -1.920927  -1.685079  -0.000592
H    -0.697047  -0.211096  3.100985
H    -2.837193  -0.229347  2.787998
C    -2.976997  1.042306  1.046104
C    -4.510121  1.081826  1.168371
C    -5.082999  2.299571  0.435821
C    -6.658251  2.331771  0.535861
N    -7.228117  3.439689  -0.137824
H    -2.702260  1.001980  -0.015429
H    -2.542815  1.961004  1.466700
H    -4.798845  1.120183  2.230479
H    -4.943175  0.161021  0.747479
H    -4.807666  2.282534  -0.628281
H    -4.696758  3.235173  0.864253
H    -6.935015  2.372773  1.599084
H    -7.047243  1.402391  0.095009
H    -7.427343  3.409170  -1.133252
H    -7.330504  4.341910  0.317097
N    -3.496151  -2.360579  1.488849
C    -4.250662  -2.322191  2.741635
H    -3.585395  -3.198349  0.916516
H    -4.828616  -3.248345  2.811244
H    -4.958739  -1.484987  2.771037
H    -3.590145  -2.280992  3.618060
Cd    3.306211  0.388639  1.430067
