34
Energy: -172327.428375 eV PBE+vdW (tier 2 basis)
C    -0.351561  0.957335  0.041369
C    -0.220215  0.708548  1.516103
O    0.873695  0.749814  2.097150
H    0.144996  1.904232  -0.203390
H    -1.387558  0.982581  -0.312918
H    0.191838  0.166102  -0.493538
N    -1.377694  0.423722  2.204815
C    -1.460245  -0.095679  3.563084
C    -1.043224  0.939426  4.645129
O    -1.894385  1.098965  5.583825
H    -2.244403  0.451104  1.676834
H    -2.525756  -0.274512  3.752311
C    -0.674549  -1.420483  3.800461
C    -1.128984  -2.604454  2.941424
C    -2.496277  -3.202495  3.312499
C    -2.847287  -4.436404  2.462839
N    -2.007427  -5.561081  2.710972
H    -0.765119  -1.669451  4.868852
H    0.389373  -1.226811  3.607280
H    -0.365214  -3.391146  3.047472
H    -1.115910  -2.324711  1.876255
H    -3.309924  -2.475438  3.171293
H    -2.513699  -3.478701  4.379157
H    -2.825423  -4.214261  1.386146
H    -3.906911  -4.704991  2.690528
H    -1.856619  -6.257936  1.986393
H    -1.848917  -5.879972  3.664092
N    0.130693  1.521520  4.534104
C    0.699894  2.498729  5.448552
H    0.653901  1.255130  3.660189
H    1.678020  2.801913  5.060941
H    0.864681  2.067553  6.448461
H    0.078301  3.405892  5.510862
Cd    -1.956222  2.328409  7.411334
