34
Energy: -172327.502388 eV PBE+vdW (tier 2 basis)
C    0.104796  -0.293301  3.178951
C    -0.882299  -0.582583  4.258655
O    -0.468586  -0.733549  5.450913
H    -0.261760  0.452647  2.466962
H    0.331038  -1.221426  2.628436
H    1.038670  0.046790  3.638184
N    -2.214090  -0.689462  4.009685
C    -2.851026  -1.438283  2.911855
C    -2.441726  -2.930029  3.066808
O    -1.961247  -3.384538  4.152772
H    -2.772186  -0.662064  4.862187
H    -3.925045  -1.410676  3.158547
C    -2.702726  -0.825773  1.503974
C    -3.133327  0.649597  1.455887
C    -2.941452  1.334494  0.094281
C    -3.943416  0.903206  -0.993197
N    -3.794432  1.668201  -2.190378
H    -3.344872  -1.408283  0.824947
H    -1.675105  -0.943024  1.131781
H    -2.554883  1.216188  2.199583
H    -4.185122  0.736494  1.773586
H    -1.920201  1.171375  -0.282825
H    -3.043230  2.419390  0.246604
H    -4.973360  1.022800  -0.583408
H    -3.844470  -0.159677  -1.257829
H    -4.082033  1.282105  -3.084129
H    -3.763071  2.683209  -2.142432
N    -2.648652  -3.754730  2.052480
C    -2.392454  -5.198738  2.106589
H    -3.017032  -3.370244  1.188375
H    -1.321414  -5.392306  2.239004
H    -2.726936  -5.642420  1.165654
H    -2.944562  -5.649357  2.939058
Cd    -1.206601  -2.711086  6.152040
