34
Energy: -172327.437734 eV PBE+vdW (tier 2 basis)
C    -1.112827  -0.298454  -0.779537
C    -0.448835  -0.618322  0.516512
O    -0.078603  -1.813250  0.746903
H    -0.940377  -1.122677  -1.478809
H    -0.757617  0.644282  -1.206841
H    -2.202019  -0.219346  -0.625983
N    -0.233113  0.327874  1.467383
C    -1.199113  1.342564  1.925829
C    -2.427877  0.580042  2.493467
O    -2.346626  -0.631678  2.877214
H    0.413996  0.017502  2.191474
H    -0.714595  1.792727  2.807802
C    -1.474819  2.492723  0.927151
C    -1.705028  3.858129  1.602038
C    -1.996439  5.003842  0.615268
C    -0.781273  5.526414  -0.165595
N    0.180198  6.182592  0.673715
H    -2.318267  2.242429  0.266028
H    -0.587515  2.563123  0.283751
H    -0.824268  4.113314  2.212574
H    -2.546265  3.815016  2.313333
H    -2.438957  5.843348  1.172220
H    -2.762130  4.697292  -0.112693
H    -1.163166  6.227859  -0.941166
H    -0.265658  4.732699  -0.726952
H    1.115078  6.339743  0.306366
H    -0.147019  6.925111  1.288654
N    -3.574369  1.225743  2.624229
C    -4.781753  0.645285  3.223364
H    -3.612638  2.193770  2.318348
H    -4.552681  0.237867  4.214256
H    -5.177309  -0.155838  2.587577
H    -5.531591  1.434585  3.317909
Cd    -1.019891  -2.411351  2.666134
