34
Energy: -172328.145792 eV PBE+vdW (tier 2 basis)
C    1.274597  2.725317  2.205274
C    0.155908  2.240817  3.071701
O    -0.600360  3.100078  3.617719
H    0.845953  3.323035  1.388296
H    1.875765  1.915294  1.778760
H    1.918929  3.398233  2.785610
N    -0.005719  0.911586  3.209069
C    -1.164722  0.205107  3.772810
C    -0.967503  -0.036999  5.284722
O    -0.974264  0.940167  6.101263
H    0.683248  0.330436  2.739200
H    -2.014926  0.906082  3.722041
C    -1.555591  -1.005924  2.894371
C    -0.458530  -2.000787  2.468944
C    -1.057128  -3.158591  1.655126
C    0.034239  -4.139753  1.127683
N    -0.488793  -5.218316  0.354747
H    -2.012893  -0.591720  1.984280
H    -2.372210  -1.534803  3.409875
H    0.098701  -2.409512  3.329373
H    0.296579  -1.493980  1.844208
H    -1.617071  -2.761626  0.795560
H    -1.774759  -3.724825  2.267205
H    0.588999  -4.555896  1.982007
H    0.747357  -3.575097  0.507195
H    -0.714478  -5.099417  -0.626480
H    -0.824038  -6.067519  0.795066
N    -0.805206  -1.263909  5.748215
C    -0.638059  -1.588672  7.168916
H    -0.776759  -2.025020  5.077064
H    0.369943  -1.318777  7.507900
H    -0.791215  -2.663055  7.298569
H    -1.373370  -1.037005  7.763765
Cd    -1.487625  3.011048  5.604942
