34
Energy: -172327.68845 eV PBE+vdW (tier 2 basis)
C    0.453153  1.692381  1.127901
C    -0.314069  1.295561  2.341141
O    0.158522  1.548993  3.494060
H    0.435389  2.786247  1.011183
H    0.096705  1.208924  0.213577
H    1.505770  1.423025  1.294523
N    -1.500952  0.644398  2.241148
C    -2.589226  1.029469  1.346797
C    -3.435825  2.099045  2.097520
O    -3.166336  2.480415  3.280119
H    -1.812914  0.235169  3.122377
H    -2.138928  1.535688  0.480307
C    -3.391092  -0.183278  0.830081
C    -4.099433  -1.031510  1.894885
C    -4.884468  -2.185036  1.253165
C    -5.587810  -3.080298  2.290383
N    -6.297145  -4.160552  1.682154
H    -2.686811  -0.805486  0.258869
H    -4.126398  0.175089  0.092802
H    -4.785465  -0.404342  2.488545
H    -3.362246  -1.451755  2.599363
H    -4.201402  -2.801377  0.647359
H    -5.645990  -1.789038  0.565044
H    -6.296485  -2.503294  2.901339
H    -4.819896  -3.471940  2.996395
H    -5.825447  -4.779127  1.028351
H    -7.127013  -4.541494  2.125389
N    -4.467652  2.626009  1.456961
C    -5.333157  3.672253  2.013187
H    -4.675766  2.288951  0.521175
H    -6.034648  3.986914  1.236564
H    -4.731284  4.531860  2.329028
H    -5.891324  3.289530  2.875927
Cd    -1.445959  2.465850  4.730507
