34
Energy: -172329.545565 eV PBE+vdW (tier 2 basis)
C    1.088285  1.156176  1.365976
C    0.251753  0.056079  1.929435
O    0.770101  -0.741420  2.766459
H    1.486422  1.759916  2.192815
H    0.540898  1.804748  0.674033
H    1.952455  0.716800  0.849282
N    -1.037332  -0.035405  1.526189
C    -1.983195  -1.000375  2.080020
C    -1.850550  -2.358208  1.353604
O    -1.020737  -3.216624  1.796272
H    -1.370825  0.653257  0.856189
H    -1.605703  -1.185373  3.093560
C    -3.386383  -0.459318  2.360975
C    -4.226608  -1.416858  3.253289
C    -3.477770  -2.355436  4.229667
C    -2.565453  -1.716514  5.296738
N    -1.307500  -2.534097  5.521573
H    -3.942371  -0.230711  1.439155
H    -3.245446  0.507744  2.865293
H    -4.832717  -2.070530  2.611777
H    -4.949836  -0.805286  3.808649
H    -2.893372  -3.090585  3.650383
H    -4.237957  -2.963755  4.737668
H    -3.088342  -1.631693  6.259164
H    -2.240514  -0.700705  5.032988
H    -1.566908  -3.486166  5.805113
H    -0.785377  -2.146055  6.315620
N    -2.578747  -2.582668  0.274687
C    -2.514166  -3.790207  -0.555166
H    -3.230356  -1.856465  -0.013759
H    -2.185643  -3.522383  -1.566552
H    -3.508376  -4.248626  -0.609511
H    -1.804899  -4.491970  -0.111489
Cd    -0.037445  -2.574481  3.655796
