34
Energy: -172328.238375 eV PBE+vdW (tier 2 basis)
C    -1.475349  -1.762004  0.356656
C    -1.432407  -1.134186  1.719287
O    -1.078051  0.112374  1.709119
H    -1.985608  -2.729500  0.361844
H    -0.447885  -1.881860  -0.016281
H    -1.989499  -1.086000  -0.336997
N    -1.756784  -1.884769  2.759184
C    -1.633740  -1.624000  4.204738
C    -2.587307  -0.540206  4.752748
O    -2.293317  0.708847  4.799405
H    -1.742642  -3.009560  2.591386
H    -1.991584  -2.558867  4.663508
C    -0.168592  -1.443499  4.668951
C    0.599501  -2.762729  4.911072
C    0.767116  -3.787258  3.769168
C    -0.335549  -4.850298  3.597378
N    -1.379620  -4.497156  2.585602
H    -0.152570  -0.880726  5.614766
H    0.401360  -0.854015  3.922113
H    0.140333  -3.260977  5.780704
H    1.601383  -2.465083  5.249557
H    1.690617  -4.337630  3.993352
H    0.970168  -3.287737  2.807510
H    -0.846835  -5.023461  4.554377
H    0.128764  -5.806059  3.318802
H    -2.182343  -5.124362  2.685646
H    -1.009031  -4.689557  1.650521
N    -3.738159  -0.939915  5.257939
C    -4.752297  -0.058260  5.846107
H    -3.922228  -1.940177  5.278026
H    -5.734661  -0.519220  5.707444
H    -4.723246  0.916783  5.352343
H    -4.560848  0.073349  6.919007
Cd    -0.847087  1.337719  3.386022
