34
Energy: -172328.130277 eV PBE+vdW (tier 2 basis)
C    -0.683799  1.668285  0.591425
C    -0.843823  0.294728  1.160568
O    0.005710  -0.589941  0.836365
H    0.288213  2.067452  0.914639
H    -1.474745  2.359739  0.901043
H    -0.654088  1.605579  -0.503927
N    -1.869661  0.074958  2.003342
C    -2.084641  -1.106125  2.857997
C    -2.826611  -2.195463  2.054608
O    -2.182393  -3.070457  1.388824
H    -2.479694  0.870866  2.176071
H    -1.092463  -1.528876  3.086663
C    -2.716096  -0.665853  4.192851
C    -2.603815  -1.661700  5.359978
C    -3.492722  -2.910546  5.309004
C    -3.393685  -3.718718  6.619883
N    -4.250577  -4.870028  6.621729
H    -3.765574  -0.353838  4.048190
H    -2.182250  0.249684  4.488355
H    -2.847220  -1.094889  6.270829
H    -1.548394  -1.957623  5.475704
H    -3.217734  -3.581082  4.480404
H    -4.544209  -2.617715  5.150603
H    -3.640046  -3.040615  7.465240
H    -2.361599  -4.056085  6.785292
H    -5.256808  -4.724818  6.605824
H    -3.964811  -5.681137  7.162357
N    -4.147540  -2.196938  2.034395
C    -4.962722  -3.145880  1.270794
H    -4.629348  -1.535548  2.636989
H    -4.504866  -3.322926  0.292928
H    -5.961061  -2.719707  1.139895
H    -5.040164  -4.101308  1.805968
Cd    -0.101764  -2.760476  0.783167
