34
Energy: -172327.584197 eV PBE+vdW (tier 2 basis)
C    -0.278128  0.366003  0.065941
C    -0.067770  0.031818  1.504205
O    1.116561  -0.008880  1.962619
H    -1.142612  1.018347  -0.090091
H    -0.431964  -0.562307  -0.508637
H    0.630249  0.839125  -0.320990
N    -1.104377  -0.230681  2.343161
C    -2.260818  -1.102022  2.070533
C    -1.715483  -2.531413  1.791269
O    -0.529914  -2.869507  2.102264
H    -0.820310  -0.226577  3.322137
H    -2.774160  -1.177332  3.043026
C    -3.293463  -0.559092  1.063617
C    -3.814267  0.840002  1.424845
C    -4.903420  1.318828  0.456543
C    -5.425373  2.723987  0.815266
N    -6.458282  3.165988  -0.065776
H    -4.152708  -1.248406  1.065601
H    -2.891746  -0.576760  0.040976
H    -2.980417  1.559045  1.431497
H    -4.210105  0.825797  2.453200
H    -5.746188  0.609173  0.461985
H    -4.519733  1.346135  -0.574480
H    -4.615845  3.467334  0.798924
H    -5.798695  2.701122  1.865004
H    -7.275529  2.584497  -0.229395
H    -6.580776  4.156325  -0.252886
N    -2.529958  -3.428993  1.259793
C    -2.165299  -4.832332  1.033398
H    -3.466752  -3.135440  1.001235
H    -1.357791  -4.903129  0.295138
H    -3.045998  -5.359483  0.658463
H    -1.835932  -5.293273  1.971500
Cd    1.398125  -2.023646  2.870036
