34
Energy: -172327.81544 eV PBE+vdW (tier 2 basis)
C    -0.973342  0.256211  -0.564721
C    -0.377577  -0.193923  0.717958
O    0.741550  -0.816641  0.709576
H    -0.305667  0.963715  -1.075812
H    -1.975911  0.676957  -0.447320
H    -1.033638  -0.627287  -1.221185
N    -0.997965  0.010749  1.908834
C    -1.596510  1.251701  2.395464
C    -0.497249  2.123392  3.053957
O    0.728637  1.735628  3.244343
H    -0.741465  -0.654258  2.642481
H    -1.951413  1.816218  1.520709
C    -2.782838  0.972595  3.347272
C    -4.142102  0.952684  2.640860
C    -4.605171  2.298026  2.055367
C    -4.661128  3.471258  3.044656
N    -3.414802  4.286883  3.061058
H    -2.784809  1.720968  4.149191
H    -2.605201  0.010332  3.852013
H    -4.887904  0.610418  3.372889
H    -4.143964  0.191052  1.845307
H    -5.611993  2.144878  1.644587
H    -3.995162  2.592589  1.182658
H    -4.841294  3.113934  4.068220
H    -5.512944  4.121684  2.790591
H    -3.330128  4.798636  2.177524
H    -3.490949  5.004747  3.788050
N    -0.864819  3.311150  3.450338
C    0.031255  4.279631  4.086063
H    -1.908351  3.618394  3.304524
H    0.930215  4.437417  3.479164
H    0.331696  3.931429  5.082339
H    -0.507216  5.226209  4.186576
Cd    1.792068  0.102614  2.384679
