34
Energy: -172327.147355 eV PBE+vdW (tier 2 basis)
C    -0.830961  -0.173861  -1.141637
C    -0.151313  -0.087102  0.185704
O    0.889808  -0.773580  0.471778
H    -1.864571  0.185314  -1.125037
H    -0.833845  -1.212111  -1.496147
H    -0.267238  0.437114  -1.862482
N    -0.590500  0.744090  1.133320
C    -1.624404  1.775506  1.013033
C    -1.251304  2.802174  -0.094863
O    -0.064082  2.980460  -0.380268
H    -0.028370  0.746846  1.983152
H    -2.562886  1.272925  0.734759
C    -1.844118  2.484258  2.370865
C    -0.976146  3.715713  2.702408
C    0.521424  3.447225  2.850964
C    1.333131  4.748465  3.227283
N    1.049715  5.259053  4.516396
H    -1.760482  1.727702  3.166680
H    -2.893034  2.810618  2.390931
H    -1.370762  4.129632  3.641527
H    -1.135781  4.491793  1.937753
H    0.969632  3.108100  1.904094
H    0.715212  2.685514  3.622942
H    1.140474  5.523016  2.475535
H    2.397225  4.456820  3.174982
H    1.409142  4.808506  5.352990
H    0.534858  6.122825  4.652879
N    -2.259344  3.474069  -0.684229
C    -3.699239  3.325517  -0.483328
H    -1.948175  4.156383  -1.373184
H    -4.212585  3.874305  -1.277921
H    -4.023149  3.739255  0.481235
H    -4.015623  2.276171  -0.551112
Cd    1.764118  -2.558467  -0.467146
