34
Energy: -172328.065498 eV PBE+vdW (tier 2 basis)
C    -1.824067  0.008740  0.797762
C    -1.043885  -0.068064  2.074925
O    0.176601  -0.387781  2.002516
H    -2.881929  0.252841  0.941947
H    -1.741332  -0.954743  0.277143
H    -1.362488  0.761867  0.145019
N    -1.706280  0.205041  3.218196
C    -1.293298  0.093384  4.634326
C    -0.353435  1.246661  5.041248
O    0.877903  1.274175  4.725746
H    -2.678203  0.464473  3.080555
H    -2.225874  0.238475  5.190867
C    -0.740874  -1.284409  5.055576
C    -1.673588  -2.480772  4.809871
C    -2.915958  -2.503149  5.707833
C    -3.695412  -3.854153  5.559428
N    -4.851421  -3.921698  6.387457
H    -0.482409  -1.216554  6.123357
H    0.217599  -1.506626  4.539201
H    -1.081723  -3.389388  4.994183
H    -1.964238  -2.523736  3.748893
H    -3.612136  -1.683890  5.470463
H    -2.628899  -2.389063  6.763876
H    -3.006719  -4.673709  5.817342
H    -3.993759  -3.981532  4.509265
H    -5.778942  -3.750757  6.019048
H    -4.798158  -4.269250  7.337745
N    -0.835995  2.246360  5.767817
C    -2.201274  2.459269  6.261851
H    -0.143231  2.957412  6.006035
H    -2.922084  2.512141  5.437041
H    -2.218691  3.420901  6.782245
H    -2.494623  1.682423  6.978776
Cd    1.845134  -0.146828  3.385791
