34
Energy: -172328.314822 eV PBE+vdW (tier 2 basis)
C    0.072784  -1.180727  0.563033
C    -0.061694  -0.492830  1.896027
O    0.966584  0.284680  2.144603
H    1.082664  -1.593469  0.456556
H    -0.060056  -0.450228  -0.247352
H    -0.652141  -1.993746  0.453448
N    -1.135891  -0.713914  2.624319
C    -1.355097  0.025458  3.861464
C    -0.480603  -0.442290  5.051381
O    0.411142  0.353608  5.534334
H    -2.487252  -1.234304  1.740640
H    -1.058910  1.095556  3.730344
C    -2.850201  0.094920  4.236619
C    -3.689619  0.781965  3.133328
C    -4.888324  -0.033065  2.618211
C    -4.587195  -1.457139  2.158937
N    -3.409516  -1.507927  1.212974
H    -2.943658  0.640208  5.185171
H    -3.222757  -0.917403  4.435609
H    -3.036870  1.047785  2.286303
H    -4.073543  1.739838  3.505112
H    -5.365317  0.522813  1.796890
H    -5.656768  -0.116233  3.400775
H    -5.453041  -1.894755  1.648825
H    -4.325717  -2.121428  2.992520
H    -3.544135  -0.865300  0.422701
H    -3.298062  -2.449609  0.819658
N    -0.615968  -1.621957  5.629147
C    -1.522890  -2.723558  5.307439
H    0.013970  -1.768330  6.420356
H    -0.998022  -3.661978  5.515940
H    -1.781843  -2.698960  4.245996
H    -2.425735  -2.682799  5.930156
Cd    1.275207  1.403929  3.883081
