34
Energy: -172327.674944 eV PBE+vdW (tier 2 basis)
C    -1.181701  2.164526  -0.081522
C    -0.644927  0.853750  0.381162
O    0.586789  0.585719  0.217714
H    -2.270834  2.170420  -0.184022
H    -0.718365  2.398765  -1.049410
H    -0.866398  2.962662  0.607919
N    -1.453083  -0.068269  0.962972
C    -2.411275  0.218873  2.031087
C    -1.595014  0.424825  3.331620
O    -0.397250  -0.004035  3.434246
H    -1.020827  -0.989567  1.050453
H    -2.935020  1.152847  1.782778
C    -3.429729  -0.930504  2.172681
C    -4.359746  -1.076476  0.961033
C    -5.392500  -2.195126  1.165750
C    -6.384621  -2.336230  -0.001644
N    -5.786814  -2.846208  -1.201199
H    -4.027123  -0.758331  3.078925
H    -2.878172  -1.867773  2.356688
H    -3.774914  -1.274911  0.049990
H    -4.885301  -0.122249  0.790973
H    -5.981970  -2.002920  2.074234
H    -4.885510  -3.159665  1.329731
H    -6.868146  -1.376889  -0.233607
H    -7.199765  -3.013675  0.338361
H    -5.340555  -3.760109  -1.167629
H    -6.230165  -2.636949  -2.091613
N    -2.147104  1.023383  4.377852
C    -3.503092  1.549084  4.541909
H    -1.537652  1.076806  5.195745
H    -3.956179  1.781060  3.573895
H    -3.447578  2.473464  5.126765
H    -4.135879  0.830632  5.079155
Cd    1.419746  -0.169345  2.141125
