34
Energy: -172328.450648 eV PBE+vdW (tier 2 basis)
C    0.865146  -3.461986  2.315293
C    0.774150  -2.168030  3.054216
O    1.692413  -1.919197  3.912277
H    1.805489  -3.466445  1.743798
H    0.029760  -3.621214  1.625250
H    0.925429  -4.292093  3.030651
N    -0.239765  -1.337846  2.772561
C    -0.371757  0.110411  3.051247
C    -1.186859  0.376773  4.337354
O    -0.661967  0.092201  5.495675
H    -0.909221  -1.689139  2.089793
H    0.642072  0.490089  3.272503
C    -0.856245  0.827903  1.781697
C    -2.080295  0.195873  1.088680
C    -2.919872  1.202698  0.285662
C    -3.436186  2.387985  1.103278
N    -4.018037  1.950847  2.397338
H    -0.013417  0.872161  1.078489
H    -1.053800  1.870707  2.065128
H    -2.735434  -0.297641  1.825364
H    -1.753713  -0.593724  0.394804
H    -3.768114  0.662162  -0.159379
H    -2.338820  1.597238  -0.560063
H    -4.172355  2.946089  0.504812
H    -2.630191  3.099508  1.333368
H    -4.806236  1.316486  2.234530
H    -4.410126  2.760758  2.884987
N    -2.381691  0.902357  4.320451
C    -3.116377  1.165749  5.563844
H    -2.927536  1.242261  3.422163
H    -4.079299  1.610049  5.298284
H    -2.559317  1.858567  6.206535
H    -3.288602  0.235070  6.117365
Cd    1.282034  -0.699773  5.595397
