34
Energy: -172326.934168 eV PBE+vdW (tier 2 basis)
C    0.535429  -0.149968  0.280935
C    0.112152  -0.517563  1.663547
O    0.734970  -1.440146  2.308015
H    -0.075883  0.617393  -0.187913
H    0.488176  -1.045117  -0.352104
H    1.581334  0.196145  0.328351
N    -0.873620  0.062085  2.358845
C    -2.025104  0.907735  1.998400
C    -2.812993  0.326594  0.792850
O    -2.277243  -0.403875  -0.037276
H    -0.934728  -0.326260  3.300289
H    -2.681356  0.796289  2.873521
C    -1.734805  2.434391  1.919533
C    -0.917578  3.034852  0.771481
C    -1.538036  3.035686  -0.641851
C    -2.786092  3.911803  -0.797965
N    -2.535818  5.302393  -0.607359
H    -1.232954  2.688807  2.864783
H    -2.715748  2.930132  1.978795
H    0.073258  2.562764  0.723631
H    -0.715688  4.079749  1.055480
H    -1.802960  2.022800  -0.974989
H    -0.773506  3.385696  -1.352821
H    -3.607244  3.606476  -0.127970
H    -3.190431  3.736717  -1.824190
H    -1.700069  5.725021  -1.005251
H    -3.308778  5.942351  -0.445283
N    -4.109615  0.710696  0.722114
C    -5.006916  0.227266  -0.323781
H    -4.530386  1.161702  1.529519
H    -5.814033  0.953074  -0.466537
H    -5.445516  -0.744037  -0.054687
H    -4.439976  0.102898  -1.252092
Cd    2.642688  -2.406331  1.899249
