34
Energy: -172327.588308 eV PBE+vdW (tier 2 basis)
C    -0.715291  0.870422  0.262610
C    -0.489339  0.616026  1.724107
O    0.643085  0.544380  2.219078
H    -0.226204  1.814717  -0.009874
H    -1.770957  0.910984  -0.025724
H    -0.213469  0.079489  -0.310693
N    -1.615086  0.463466  2.508454
C    -1.639890  -0.001998  3.882231
C    -1.039025  1.034046  4.889442
O    -1.821159  1.355387  5.840912
H    -2.515097  0.578995  2.052392
H    -2.697300  -0.078201  4.161931
C    -0.967710  -1.386848  4.126367
C    -1.668890  -2.518873  3.367610
C    -0.961727  -3.853752  3.631770
C    -1.574261  -5.032727  2.810815
N    -2.851881  -5.458059  3.252169
H    -0.999964  -1.580637  5.208921
H    0.090583  -1.325881  3.838380
H    -1.658188  -2.300824  2.288260
H    -2.725942  -2.594312  3.668555
H    -0.993534  -4.113081  4.700498
H    0.099287  -3.793162  3.350922
H    -0.842018  -5.861906  2.931183
H    -1.621498  -4.789033  1.742874
H    -2.965958  -5.867254  4.175903
H    -3.600423  -5.641128  2.591296
N    0.191086  1.451218  4.686731
C    0.921199  2.409818  5.503478
H    0.617671  1.090570  3.796180
H    1.895478  2.583347  5.035735
H    1.103780  2.018664  6.515146
H    0.401907  3.379821  5.550774
Cd    -1.696526  2.693288  7.605790
