34
Energy: -172329.991279 eV PBE+vdW (tier 2 basis)
C    -2.957618  0.471967  -1.175695
C    -2.591955  0.839582  0.227091
O    -1.520096  0.365223  0.707766
H    -2.141896  0.776261  -1.845277
H    -3.894985  0.922799  -1.517633
H    -3.035986  -0.621471  -1.245957
N    -3.435108  1.656939  0.892871
C    -3.375473  2.141041  2.289038
C    -2.202395  3.131921  2.464311
O    -1.004546  2.739402  2.611657
H    -4.246837  1.956567  0.360439
H    -4.301718  2.713949  2.427801
C    -3.398811  0.977478  3.314841
C    -3.049182  1.345062  4.773199
C    -2.470188  0.178400  5.606550
C    -0.945818  0.064028  5.696170
N    -0.247395  -0.505445  4.469045
H    -2.777471  0.138663  2.952457
H    -4.406498  0.540239  3.270800
H    -3.960959  1.707680  5.264267
H    -2.345483  2.191198  4.812214
H    -2.911427  -0.783548  5.297817
H    -2.796792  0.309127  6.647876
H    -0.681781  -0.594435  6.535255
H    -0.490691  1.044022  5.890808
H    0.754238  -0.583856  4.679672
H    -0.563762  -1.472023  4.326643
N    -2.499714  4.422875  2.448830
C    -1.529362  5.514541  2.560890
H    -3.476328  4.685331  2.341731
H    -1.783479  6.141805  3.423412
H    -1.560026  6.126014  1.651000
H    -0.529472  5.094809  2.688446
Cd    -0.556984  0.617857  2.612668
