34
Energy: -172328.003059 eV PBE+vdW (tier 2 basis)
C    0.001275  -1.918505  0.155835
C    -0.303774  -1.057911  1.339941
O    0.454684  -0.069318  1.572827
H    -0.053560  -1.299727  -0.750857
H    -0.681756  -2.768513  0.052775
H    1.034034  -2.282680  0.230652
N    -1.375271  -1.370728  2.093606
C    -1.945129  -0.553996  3.170297
C    -1.145761  -0.709418  4.485885
O    -0.334634  0.219322  4.827632
H    -1.917312  -2.176178  1.790887
H    -1.782177  0.501175  2.892719
C    -3.471007  -0.739988  3.276668
C    -4.217510  -0.037315  2.132241
C    -5.744399  -0.221549  2.136080
C    -6.505632  0.542516  3.230756
N    -6.365689  -0.033949  4.550039
H    -3.805864  -0.339888  4.245499
H    -3.723636  -1.810901  3.286921
H    -3.842297  -0.409487  1.165312
H    -3.982647  1.039794  2.152776
H    -6.003386  -1.291954  2.181750
H    -6.128602  0.133504  1.170197
H    -7.575169  0.570246  2.932326
H    -6.178606  1.591393  3.274734
H    -6.617999  0.572969  5.327679
H    -6.758102  -0.967342  4.665416
N    -1.262428  -1.751672  5.293755
C    -2.118869  -2.936107  5.202608
H    -0.668802  -1.687964  6.122631
H    -1.664718  -3.721252  5.814566
H    -2.178676  -3.303003  4.173801
H    -3.124573  -2.729839  5.588621
Cd    0.755899  1.277388  3.264916
