34
Energy: -172327.442988 eV PBE+vdW (tier 2 basis)
C    -0.488746  0.278697  -0.352153
C    -0.062365  -0.205443  0.991070
O    1.188311  -0.316432  1.212446
H    0.236886  1.042615  -0.664488
H    -1.496303  0.698228  -0.360533
H    -0.409188  -0.534518  -1.088701
N    -0.923258  -0.451379  2.017754
C    -2.115347  -1.315873  2.088288
C    -1.617104  -2.671553  2.652645
O    -0.451717  -3.125169  2.402045
H    -0.441198  -0.400771  2.917327
H    -2.795669  -0.859727  2.824059
C    -2.881439  -1.483074  0.758897
C    -4.214042  -2.232514  0.890218
C    -5.071339  -2.218932  -0.389463
C    -5.714804  -0.867658  -0.738918
N    -4.791791  0.095968  -1.297764
H    -2.246038  -1.988942  0.016314
H    -3.093877  -0.475307  0.374241
H    -4.806050  -1.802006  1.716357
H    -4.035185  -3.288277  1.145175
H    -5.887594  -2.941567  -0.257303
H    -4.485674  -2.586087  -1.247557
H    -6.193095  -0.418663  0.143366
H    -6.536328  -1.071729  -1.458671
H    -5.105732  1.064920  -1.289909
H    -4.386610  -0.156808  -2.198299
N    -2.458900  -3.384179  3.384101
C    -2.162337  -4.711070  3.934095
H    -3.389333  -3.006603  3.544436
H    -2.923980  -4.953361  4.679583
H    -1.175067  -4.705710  4.407631
H    -2.173134  -5.468426  3.140261
Cd    1.566865  -2.222675  2.259133
