34
Energy: -172327.890853 eV PBE+vdW (tier 2 basis)
C    0.178313  1.498818  0.624781
C    -0.200613  0.167090  1.184208
O    0.544290  -0.828923  0.906230
H    -0.321012  2.335333  1.127223
H    -0.129842  1.509221  -0.437200
H    1.264398  1.630867  0.660551
N    -1.340939  0.094830  1.893421
C    -2.224146  -1.052449  2.211467
C    -1.801088  -1.797067  3.483471
O    -0.642961  -2.314924  3.644755
H    -1.770149  1.000093  2.064352
H    -3.187796  -0.576455  2.430878
C    -2.478098  -2.041084  1.044188
C    -3.468661  -1.539815  -0.026135
C    -3.053662  -0.352850  -0.908937
C    -1.916762  -0.653824  -1.892154
N    -1.458266  0.543628  -2.557045
H    -2.901885  -2.954369  1.488729
H    -1.528300  -2.347487  0.582183
H    -4.416311  -1.286708  0.473646
H    -3.703888  -2.400722  -0.669868
H    -2.784570  0.525149  -0.302626
H    -3.939974  -0.045929  -1.484332
H    -2.267883  -1.415796  -2.620580
H    -1.045899  -1.111090  -1.393207
H    -0.685379  0.424718  -3.209107
H    -2.183376  1.145399  -2.945484
N    -2.681235  -1.954148  4.459889
C    -4.057969  -1.450803  4.559587
H    -2.336534  -2.509384  5.244638
H    -4.087532  -0.356202  4.498725
H    -4.446899  -1.743407  5.538702
H    -4.700567  -1.895031  3.789824
Cd    0.914048  -2.522826  2.184503
