34
Energy: -172328.199303 eV PBE+vdW (tier 2 basis)
C    -3.571653  -0.600320  0.323434
C    -2.581454  0.196324  1.116360
O    -1.460291  -0.340365  1.368620
H    -4.534073  -0.095525  0.188644
H    -3.734752  -1.560718  0.831066
H    -3.139295  -0.832042  -0.659236
N    -2.954825  1.425023  1.516954
C    -2.324484  2.381321  2.457084
C    -1.169568  3.161957  1.804755
O    -0.047864  2.641382  1.504202
H    -3.881401  1.697972  1.202470
H    -3.122769  3.110165  2.655029
C    -1.929377  1.791887  3.827614
C    -3.107998  1.203020  4.611926
C    -2.684929  0.687843  5.995232
C    -3.854614  0.127476  6.820917
N    -4.798323  1.139942  7.213697
H    -1.468227  2.611157  4.400830
H    -1.145031  1.022214  3.720523
H    -3.567659  0.379892  4.042762
H    -3.887846  1.972027  4.734166
H    -2.193817  1.492924  6.565414
H    -1.938153  -0.113593  5.891286
H    -3.425854  -0.377117  7.713228
H    -4.394326  -0.650560  6.262700
H    -5.742587  0.841896  7.443720
H    -4.461252  1.892159  7.810814
N    -1.357919  4.453401  1.581858
C    -0.341900  5.341066  1.004801
H    -2.260611  4.857206  1.814680
H    -0.703556  6.369795  1.075594
H    -0.167673  5.086514  -0.047834
H    0.598793  5.242595  1.557588
Cd    0.493289  0.547083  1.677100
