34
Energy: -172327.618675 eV PBE+vdW (tier 2 basis)
C    -0.867025  1.274864  -1.733437
C    -0.018105  0.480221  -0.803048
O    1.023038  -0.101000  -1.244846
H    -0.348402  2.202579  -2.018036
H    -1.856094  1.504556  -1.326315
H    -0.981006  0.695287  -2.660459
N    -0.346280  0.342554  0.506819
C    -0.755320  1.433940  1.385821
C    0.546076  2.108040  1.910645
O    1.705214  1.656702  1.649553
H    0.172112  -0.398750  0.979213
H    -1.278192  2.178135  0.767814
C    -1.719098  0.958119  2.496062
C    -1.128229  -0.043639  3.499217
C    -2.168697  -0.700025  4.422169
C    -2.840732  0.257472  5.426812
N    -3.700680  -0.438969  6.329766
H    -2.587379  0.516565  1.984691
H    -2.102681  1.847277  3.018605
H    -0.343085  0.439637  4.103536
H    -0.634899  -0.869139  2.960918
H    -1.668021  -1.501563  4.985363
H    -2.953603  -1.185487  3.823404
H    -3.436970  1.032452  4.925419
H    -2.039998  0.791807  5.988496
H    -3.354310  -1.238726  6.852213
H    -4.523824  0.014621  6.712272
N    0.416981  3.193806  2.657752
C    1.547100  3.953098  3.205553
H    -0.520447  3.527703  2.863027
H    1.153599  4.836262  3.714770
H    2.217708  4.268893  2.398293
H    2.109875  3.340029  3.919345
Cd    2.706964  0.320409  0.142264
