34
Energy: -172328.088906 eV PBE+vdW (tier 2 basis)
C    -0.394286  1.975550  1.648220
C    -0.665273  0.538436  1.971416
O    0.213443  -0.313463  1.640235
H    -1.206927  2.650949  1.935852
H    -0.218269  2.062437  0.567144
H    0.534136  2.285902  2.145774
N    -1.829839  0.250255  2.581946
C    -2.499770  -1.042139  2.859307
C    -1.896891  -1.753773  4.084391
O    -0.755988  -2.317333  4.079454
H    -2.395834  1.067213  2.791835
H    -3.519472  -0.746802  3.141825
C    -2.629565  -1.984054  1.641874
C    -3.365408  -1.375563  0.436874
C    -4.894789  -1.256809  0.579435
C    -5.661741  -2.566246  0.332479
N    -5.539834  -3.022157  -1.026428
H    -3.138903  -2.893565  1.996175
H    -1.633902  -2.319664  1.303543
H    -3.146372  -1.997434  -0.442910
H    -2.941240  -0.386652  0.210664
H    -5.254627  -0.500688  -0.134441
H    -5.186201  -0.873920  1.570308
H    -6.726046  -2.391629  0.600003
H    -5.319169  -3.374914  0.995572
H    -5.846784  -2.390142  -1.763083
H    -5.762197  -3.994856  -1.220196
N    -2.629712  -1.799489  5.186155
C    -2.205914  -2.464906  6.423687
H    -3.534361  -1.337372  5.184090
H    -1.903049  -3.495957  6.210217
H    -3.048327  -2.466111  7.119685
H    -1.361148  -1.928939  6.873363
Cd    0.688432  -2.258499  2.460503
