34
Energy: -172328.349786 eV PBE+vdW (tier 2 basis)
C    2.236884  1.438510  1.747622
C    1.421121  1.460196  3.007760
O    1.387430  2.612434  3.594319
H    2.697895  0.458486  1.587229
H    3.013329  2.207312  1.796871
H    1.585340  1.672304  0.892342
N    0.804924  0.346852  3.391263
C    -0.233747  0.247574  4.433761
C    0.341846  0.085683  5.866086
O    0.595490  1.113294  6.603038
H    0.875667  -0.502943  2.657419
H    -0.781131  1.211923  4.474273
C    -1.294109  -0.806456  4.057331
C    -0.794189  -2.255211  3.814824
C    -1.138305  -2.822460  2.427484
C    -0.608305  -1.996568  1.255775
N    0.811728  -1.599185  1.469202
H    -1.794967  -0.425394  3.156520
H    -2.062525  -0.789886  4.842183
H    -1.227961  -2.926888  4.569198
H    0.300982  -2.319679  3.934058
H    -2.227837  -2.920571  2.318855
H    -0.737614  -3.845503  2.369074
H    -1.185605  -1.068276  1.129843
H    -0.733689  -2.566830  0.324646
H    1.385291  -2.434165  1.625472
H    1.171793  -1.191167  0.602576
N    0.540538  -1.107846  6.378581
C    1.055250  -1.356399  7.731309
H    0.281217  -1.910520  5.808206
H    1.304732  -2.417201  7.812771
H    0.294185  -1.100703  8.479226
H    1.950126  -0.750641  7.908922
Cd    0.731215  2.939923  5.552959
