34
Energy: -172327.58898 eV PBE+vdW (tier 2 basis)
C    0.390985  -0.267707  0.386016
C    0.257721  -0.156364  1.862724
O    1.311132  -0.145495  2.586838
H    1.428298  -0.062776  0.101651
H    -0.297262  0.403885  -0.137422
H    0.162683  -1.301667  0.076435
N    -0.951700  -0.080762  2.481431
C    -2.151153  -0.913555  2.247731
C    -1.794771  -2.375571  2.615760
O    -0.950264  -2.641539  3.570605
H    -0.913471  0.358710  3.401650
H    -2.843391  -0.591343  3.043248
C    -2.881006  -0.712679  0.910969
C    -4.414812  -0.838942  1.077795
C    -5.154086  -1.325234  -0.179204
C    -5.337390  -2.839589  -0.228036
N    -4.053379  -3.580810  -0.177230
H    -2.494287  -1.411329  0.157538
H    -2.647548  0.293821  0.541292
H    -4.803024  0.142465  1.381622
H    -4.654394  -1.518913  1.911918
H    -4.646947  -0.966668  -1.089462
H    -6.157383  -0.880127  -0.210339
H    -5.899923  -3.115820  -1.135997
H    -5.939097  -3.172864  0.629750
H    -4.235812  -4.587815  -0.175344
H    -3.499734  -3.396983  -1.018993
N    -2.402577  -3.377341  2.034384
C    -2.160811  -4.769599  2.428940
H    -3.091818  -3.272192  1.195234
H    -2.451673  -4.928528  3.474227
H    -1.102651  -5.033691  2.313426
H    -2.765525  -5.414099  1.785926
Cd    0.777989  -1.548417  4.183348
