34
Energy: -172327.164436 eV PBE+vdW (tier 2 basis)
C    -0.238951  -0.230852  -0.513302
C    0.214987  -0.153215  0.909638
O    1.388484  -0.542297  1.264126
H    0.458859  0.334766  -1.147454
H    -1.244833  0.162608  -0.680679
H    -0.217384  -1.279395  -0.841243
N    -0.569597  0.293091  1.879428
C    -1.953473  0.768433  1.829929
C    -2.074018  1.697951  3.065785
O    -1.347827  1.489644  4.044051
H    -0.171938  0.359082  2.828235
H    -2.097227  1.360961  0.917415
C    -3.004830  -0.373681  1.847183
C    -2.791478  -1.547360  2.815411
C    -2.928635  -1.331841  4.328771
C    -4.395944  -0.911432  4.755053
N    -4.580905  -0.938714  6.156101
H    -3.037401  -0.792647  0.829835
H    -3.996278  0.082599  1.992800
H    -1.783556  -1.968204  2.657744
H    -3.482108  -2.345391  2.504977
H    -2.241881  -0.568803  4.716329
H    -2.694958  -2.278363  4.834151
H    -5.092537  -1.623128  4.285570
H    -4.598706  0.102302  4.384282
H    -4.345252  -0.141501  6.740075
H    -4.773809  -1.810478  6.642102
N    -2.996941  2.679871  3.032858
C    -3.773490  3.160642  1.890035
H    -2.980038  3.272815  3.861441
H    -3.154718  3.738948  1.189145
H    -4.562208  3.818722  2.267329
H    -4.259101  2.336429  1.355964
Cd    3.217431  -0.895057  0.135559
