34
Energy: -172327.342614 eV PBE+vdW (tier 2 basis)
C    -0.064902  0.018619  -0.036566
C    0.014879  -0.034092  1.452349
O    1.140247  0.124739  2.021428
H    -0.910247  0.623034  -0.380753
H    -0.187162  -1.000645  -0.438914
H    0.874448  0.419153  -0.429558
N    -1.083357  -0.259410  2.219555
C    -2.113271  -1.288097  1.974013
C    -1.384926  -2.654398  1.841848
O    -0.226722  -2.842852  2.338603
H    -0.917619  -0.065221  3.206366
H    -2.646958  -1.362711  2.936125
C    -3.184272  -0.948816  0.920377
C    -4.026378  0.301015  1.270520
C    -3.550615  1.651718  0.712885
C    -3.876649  1.846485  -0.775919
N    -3.454102  3.124390  -1.263243
H    -3.880332  -1.800101  0.887445
H    -2.744904  -0.881663  -0.084199
H    -4.107364  0.379824  2.364755
H    -5.054317  0.123638  0.923184
H    -2.472976  1.802172  0.873620
H    -4.051079  2.448862  1.283132
H    -4.976547  1.722542  -0.908608
H    -3.422940  1.070344  -1.413549
H    -3.403825  3.278401  -2.266672
H    -3.680916  3.955575  -0.721901
N    -2.007289  -3.661553  1.253295
C    -1.466747  -5.023757  1.171066
H    -2.924814  -3.490628  0.853246
H    -0.538798  -5.031428  0.587375
H    -2.209058  -5.658032  0.680485
H    -1.262420  -5.410662  2.176008
Cd    1.483453  -1.719167  3.220416
