34
Energy: -172328.12337 eV PBE+vdW (tier 2 basis)
C    -3.570791  -0.253809  -0.454517
C    -2.631968  0.398313  0.512009
O    -1.497648  -0.144924  0.683584
H    -3.089444  -0.310807  -1.439749
H    -4.533005  0.261250  -0.544883
H    -3.745853  -1.288211  -0.127169
N    -3.057965  1.508925  1.139828
C    -2.495656  2.267251  2.284627
C    -1.360983  3.211781  1.842722
O    -0.194772  2.806604  1.528630
H    -3.985750  1.810870  0.856362
H    -3.331227  2.906715  2.600884
C    -2.117303  1.427734  3.523060
C    -3.220928  0.465894  3.981151
C    -2.971336  -0.189903  5.350125
C    -3.241472  0.709764  6.566263
N    -2.262511  1.765833  6.738362
H    -1.873180  2.136729  4.330707
H    -1.183790  0.847605  3.366281
H    -3.348931  -0.333863  3.236831
H    -4.181462  1.007841  4.009496
H    -1.947448  -0.595016  5.406185
H    -3.636639  -1.059452  5.438223
H    -3.277129  0.057374  7.462904
H    -4.235786  1.171668  6.486984
H    -2.560061  2.538134  7.331893
H    -1.330356  1.449170  7.003204
N    -1.619529  4.508707  1.814629
C    -0.638100  5.532491  1.436153
H    -2.556032  4.819073  2.057867
H    -0.409938  5.462817  0.365466
H    0.285421  5.395043  2.009107
H    -1.064005  6.514807  1.654725
Cd    0.337580  0.710593  1.424055
