34
Energy: -172327.623109 eV PBE+vdW (tier 2 basis)
C    -0.909558  -0.076077  -0.509507
C    -0.438413  -0.236840  0.893591
O    0.735768  -0.675997  1.114500
H    -0.393032  0.770609  -0.986010
H    -1.993300  0.049836  -0.589149
H    -0.604218  -0.970770  -1.070523
N    -1.243543  0.054002  1.945999
C    -2.051439  1.263440  2.076079
C    -1.117954  2.374825  2.641447
O    0.090969  2.155076  2.975636
H    -0.899751  -0.310900  2.835148
H    -2.349831  1.575659  1.064865
C    -3.326140  1.028614  2.916969
C    -3.076366  0.591506  4.364970
C    -4.339847  0.492763  5.240537
C    -5.276399  -0.688259  4.935116
N    -6.045754  -0.532361  3.728052
H    -3.936071  0.285407  2.383589
H    -3.920489  1.955633  2.908072
H    -2.397648  1.309385  4.855843
H    -2.563499  -0.385182  4.389038
H    -4.907698  1.436148  5.195600
H    -4.023249  0.386247  6.286759
H    -5.955296  -0.798575  5.809499
H    -4.717039  -1.632903  4.871885
H    -6.452203  -1.373975  3.325398
H    -6.677023  0.265738  3.683381
N    -1.620658  3.591495  2.772326
C    -0.864522  4.747391  3.268716
H    -2.595050  3.737579  2.523225
H    0.052596  4.877523  2.683439
H    -0.600615  4.607683  4.323882
H    -1.490228  5.637306  3.165068
Cd    1.688828  0.637034  2.623639
