34
Energy: -172327.205884 eV PBE+vdW (tier 2 basis)
C    -0.059428  0.673466  -0.270652
C    0.061545  0.495854  1.214785
O    1.257054  0.566240  1.685980
H    -0.343436  1.715577  -0.482759
H    -0.816024  0.008366  -0.701591
H    0.908252  0.484275  -0.743447
N    -0.994493  0.294412  1.978069
C    -2.419765  0.259188  1.621244
C    -3.089533  0.767744  2.927732
O    -2.491382  0.545977  3.990742
H    -0.919389  0.237755  3.010425
H    -2.604058  0.926857  0.770877
C    -2.846365  -1.196401  1.296308
C    -4.313755  -1.399666  0.900698
C    -4.572384  -2.861710  0.496258
C    -6.021605  -3.128726  0.056380
N    -6.967634  -3.102422  1.120726
H    -2.606006  -1.817361  2.172870
H    -2.196840  -1.549519  0.480012
H    -4.575618  -0.738588  0.059190
H    -4.981179  -1.133703  1.734582
H    -4.313228  -3.539852  1.324854
H    -3.920383  -3.142575  -0.343148
H    -6.029974  -4.140086  -0.419930
H    -6.354231  -2.436447  -0.730977
H    -7.946520  -2.906620  0.927461
H    -6.789841  -3.637158  1.968376
N    -4.279643  1.394451  2.892103
C    -5.058607  1.876732  1.759359
H    -4.623638  1.638130  3.821222
H    -5.273717  2.944704  1.889264
H    -6.012649  1.337715  1.684381
H    -4.511292  1.749433  0.822014
Cd    2.144164  0.762937  3.649774
