34
Energy: -172329.016298 eV PBE+vdW (tier 2 basis)
C    0.144279  -0.404968  1.400360
C    -0.499910  0.204210  2.587750
O    -0.094809  -0.091984  3.763406
H    0.217937  -1.494942  1.496971
H    1.182477  -0.028316  1.381131
H    -0.329780  -0.109856  0.460642
N    -1.468687  1.158565  2.477337
C    -2.820514  1.080093  1.882711
C    -3.754133  1.485342  3.039466
O    -3.459885  1.175468  4.240140
H    -1.476674  1.740942  3.316527
H    -2.908130  1.804891  1.062269
C    -3.225342  -0.315078  1.328698
C    -3.168040  -1.538226  2.268993
C    -4.365193  -1.786428  3.214992
C    -4.018047  -2.650323  4.431813
N    -3.376328  -1.871799  5.567243
H    -2.596041  -0.510180  0.451091
H    -4.243129  -0.213447  0.924559
H    -2.216067  -1.538730  2.836146
H    -3.055387  -2.428004  1.633527
H    -5.148849  -2.313212  2.654080
H    -4.834802  -0.853027  3.556633
H    -3.320366  -3.452903  4.160108
H    -4.921881  -3.122857  4.838679
H    -4.110916  -1.370103  6.078876
H    -2.975192  -2.532751  6.241360
N    -4.872885  2.142986  2.777678
C    -5.343635  2.659623  1.484552
H    -5.442901  2.352995  3.597120
H    -6.266680  3.216933  1.664861
H    -5.566343  1.846567  0.783769
H    -4.610947  3.346317  1.043496
Cd    -1.918192  -0.330544  4.935996
