34
Energy: -172327.750094 eV PBE+vdW (tier 2 basis)
C    -1.623088  -1.032773  -0.188529
C    -0.515582  -1.042921  0.798307
O    0.602947  -1.587596  0.490496
H    -2.518655  -0.519503  0.174122
H    -1.888353  -2.087706  -0.376920
H    -1.290329  -0.626802  -1.152275
N    -0.662366  -0.508634  2.038513
C    -1.227690  0.816232  2.343253
C    -0.030698  1.739108  2.701163
O    1.128551  1.605228  2.122622
H    -0.049503  -0.906315  2.752912
H    -1.597389  1.221752  1.386755
C    -2.387111  0.795752  3.336594
C    -2.037279  0.336893  4.761478
C    -2.994837  0.887888  5.832898
C    -3.247516  2.397143  5.755910
N    -2.000063  3.179360  5.584007
H    -3.177204  0.162011  2.910021
H    -2.811062  1.809479  3.340966
H    -1.009814  0.642499  5.017278
H    -2.043621  -0.760867  4.817174
H    -2.592799  0.627269  6.822689
H    -3.971481  0.387455  5.767173
H    -3.782724  2.714437  6.666029
H    -3.908741  2.651340  4.915888
H    -2.217166  4.178698  5.544155
H    -1.382772  3.049567  6.391066
N    -0.196764  2.739188  3.526406
C    0.864547  3.713477  3.801381
H    -1.055319  2.832342  4.189682
H    1.169497  4.218243  2.877610
H    1.742604  3.226942  4.244786
H    0.468067  4.454025  4.501222
Cd    2.020840  -0.096301  1.201145
