34
Energy: -172327.168107 eV PBE+vdW (tier 2 basis)
C    -0.291993  -1.772458  1.092038
C    0.037862  -0.335149  1.338775
O    1.253519  0.064481  1.467618
H    -1.363922  -1.977962  1.035879
H    0.136515  -2.382810  1.898399
H    0.168162  -2.090425  0.145137
N    -0.895213  0.599267  1.452489
C    -2.359395  0.482332  1.472262
C    -2.838030  1.872001  0.969425
O    -2.284022  2.870637  1.435278
H    -0.574634  1.559944  1.631355
H    -2.671747  -0.309411  0.782072
C    -2.858273  0.187101  2.905528
C    -4.375750  0.340858  3.165611
C    -4.746393  1.720037  3.723059
C    -6.292393  1.790841  4.053498
N    -6.673306  3.018469  4.643991
H    -2.296244  0.829684  3.598582
H    -2.564640  -0.847790  3.136232
H    -4.669128  -0.427597  3.894127
H    -4.955082  0.122205  2.255916
H    -4.506937  2.534081  3.026540
H    -4.197258  1.914044  4.654957
H    -6.525907  0.968428  4.745346
H    -6.849824  1.649730  3.116162
H    -6.913859  3.829307  4.081375
H    -6.598869  3.169273  5.646145
N    -3.846864  1.928970  0.077563
C    -4.451095  0.839229  -0.689348
H    -4.059595  2.878734  -0.223274
H    -3.756774  0.423300  -1.432701
H    -5.314933  1.242817  -1.226088
H    -4.814653  0.036593  -0.037251
Cd    3.168928  -0.847606  0.991159
