34
Energy: -172327.503606 eV PBE+vdW (tier 2 basis)
C    -0.844212  1.311989  0.245979
C    -0.093331  0.238690  0.956322
O    1.136061  0.076904  0.660198
H    -1.691837  1.695869  0.816347
H    -1.187212  0.947944  -0.734289
H    -0.134823  2.124165  0.039050
N    -0.618849  -0.521324  1.957404
C    -1.845356  -1.338481  1.990736
C    -1.434239  -2.737248  1.455420
O    -0.518536  -2.870595  0.582089
H    0.123683  -0.940162  2.520542
H    -2.115662  -1.438981  3.053333
C    -3.054944  -0.740041  1.242679
C    -4.389477  -1.458624  1.494499
C    -5.564236  -0.678629  0.880661
C    -6.931165  -1.347550  1.093604
N    -7.356727  -1.344422  2.465239
H    -2.852520  -0.705964  0.162375
H    -3.155241  0.297684  1.589566
H    -4.560694  -1.572096  2.577815
H    -4.374374  -2.470031  1.059222
H    -5.416203  -0.567301  -0.203460
H    -5.593760  0.342965  1.292545
H    -6.929853  -2.385915  0.731963
H    -7.668166  -0.808048  0.458204
H    -7.444555  -0.446496  2.936645
H    -8.058838  -2.022049  2.750762
N    -2.092588  -3.787345  1.925141
C    -1.883603  -5.177250  1.516036
H    -2.827535  -3.613298  2.607030
H    -2.741529  -5.528806  0.929007
H    -1.778409  -5.803937  2.408737
H    -0.980517  -5.240837  0.905727
Cd    1.539963  -2.060282  0.280137
