34
Energy: -172327.629288 eV PBE+vdW (tier 2 basis)
C    0.054936  1.672809  0.544966
C    -0.379865  0.537917  1.399118
O    0.385207  0.067190  2.294789
H    -0.531981  1.770115  -0.372996
H    1.116215  1.529544  0.298924
H    0.004609  2.608906  1.123865
N    -1.622818  -0.016660  1.259049
C    -2.886893  0.711703  1.141958
C    -2.983466  1.753214  2.279672
O    -2.400127  1.582493  3.398275
H    -1.693876  -0.970905  1.608646
H    -2.927334  1.228754  0.171385
C    -4.070053  -0.287671  1.212581
C    -4.451270  -0.902385  2.576603
C    -3.524038  -1.940114  3.226856
C    -4.229003  -2.911774  4.245062
N    -5.039578  -3.832019  3.532983
H    -3.868643  -1.079304  0.474004
H    -4.955050  0.243181  0.836904
H    -5.408692  -1.411078  2.393964
H    -4.683276  -0.113090  3.307716
H    -2.726358  -1.452918  3.887160
H    -2.985298  -2.552334  2.485796
H    -4.832635  -2.316848  4.944921
H    -3.454161  -3.436031  4.820977
H    -4.689018  -4.752274  3.293584
H    -6.041167  -3.703871  3.455358
N    -3.734767  2.819416  2.057629
C    -4.014242  3.883042  3.027007
H    -4.139863  2.923312  1.129480
H    -5.092950  4.073053  3.051181
H    -3.494883  4.802787  2.730586
H    -3.669476  3.570485  4.014902
Cd    -1.063624  -0.083466  3.995464
