34
Energy: -172327.409446 eV PBE+vdW (tier 2 basis)
C    -0.559321  0.753377  2.896061
C    -0.032243  -0.325638  3.776890
O    1.100931  -0.160318  4.336610
H    -1.637369  0.899916  3.011538
H    -0.350199  0.503719  1.842553
H    -0.020790  1.680797  3.118752
N    -0.713735  -1.476454  4.020457
C    -1.381774  -2.358571  3.044940
C    -0.281284  -2.958113  2.126871
O    0.957049  -2.921421  2.430641
H    -0.347748  -1.976534  4.830337
H    -1.742744  -3.204234  3.652861
C    -2.599626  -1.759212  2.317754
C    -3.677128  -1.197207  3.260636
C    -4.587635  -2.222836  3.958488
C    -5.639765  -2.875962  3.041993
N    -5.105519  -3.895837  2.164240
H    -3.065688  -2.560621  1.720601
H    -2.275152  -0.990979  1.603483
H    -4.304415  -0.506335  2.678741
H    -3.202855  -0.579644  4.039245
H    -5.135103  -1.703603  4.756569
H    -4.005577  -3.008216  4.469612
H    -6.139156  -2.114898  2.427394
H    -6.423882  -3.311075  3.696621
H    -5.645588  -4.077965  1.320065
H    -4.830179  -4.764662  2.620424
N    -0.651959  -3.569466  1.014955
C    0.275415  -4.243119  0.098225
H    -1.640166  -3.571291  0.779807
H    0.975589  -3.519579  -0.335760
H    -0.308241  -4.705459  -0.701552
H    0.840980  -5.015638  0.631515
Cd    2.305393  -1.954502  3.894677
