34
Energy: -172327.977458 eV PBE+vdW (tier 2 basis)
C    -0.667316  -0.151864  -0.286478
C    -0.486301  -0.369777  1.184227
O    0.618802  -0.853087  1.573788
H    -1.652029  0.245991  -0.553578
H    -0.513864  -1.110018  -0.801937
H    0.114276  0.530575  -0.645958
N    -1.516793  -0.046886  1.988736
C    -1.756885  -0.302448  3.428758
C    -0.982932  0.693866  4.314589
O    0.272290  0.607758  4.512790
H    -2.313677  0.346921  1.496618
H    -2.822128  -0.076339  3.552230
C    -1.564771  -1.765834  3.872860
C    -2.183708  -2.060762  5.249674
C    -3.715120  -2.234110  5.264243
C    -4.199227  -3.615984  4.793353
N    -3.767970  -4.672240  5.671234
H    -0.492919  -2.035232  3.900249
H    -1.995728  -2.409434  3.092467
H    -1.896306  -1.271093  5.961562
H    -1.731795  -2.983478  5.640915
H    -4.220739  -1.472557  4.649046
H    -4.077890  -2.066281  6.289416
H    -3.843582  -3.849075  3.778838
H    -5.307071  -3.581265  4.722505
H    -4.069602  -4.624783  6.642432
H    -3.774785  -5.619815  5.303445
N    -1.640737  1.674621  4.916651
C    -3.074563  1.987933  4.878924
H    -1.050840  2.283170  5.486117
H    -3.234126  2.881733  5.488353
H    -3.672447  1.174157  5.307078
H    -3.408767  2.212881  3.858972
Cd    1.637736  -0.721660  3.474446
