34
Energy: -172327.32216 eV PBE+vdW (tier 2 basis)
C    0.928357  -1.087667  0.896358
C    0.149856  0.155156  1.140558
O    0.166894  1.091810  0.271208
H    0.900040  -1.779579  1.743306
H    1.973035  -0.790731  0.712533
H    0.588668  -1.581387  -0.024556
N    -0.566221  0.326691  2.276137
C    -1.502737  -0.651310  2.848916
C    -2.643661  -0.801497  1.824545
O    -3.023571  0.210778  1.123042
H    -0.830101  1.297591  2.458076
H    -0.978063  -1.601000  3.040155
C    -2.018302  -0.075296  4.190617
C    -2.786591  -1.008198  5.142958
C    -1.951967  -1.816524  6.156779
C    -1.265390  -3.097577  5.684332
N    -0.144016  -2.881378  4.774650
H    -2.649956  0.796650  3.954979
H    -1.130611  0.316936  4.711188
H    -3.474168  -1.668459  4.593731
H    -3.445727  -0.358333  5.734724
H    -2.626277  -2.114110  6.971969
H    -1.208494  -1.153117  6.629392
H    -1.983460  -3.775101  5.196633
H    -0.921603  -3.642314  6.587892
H    0.575351  -2.274360  5.171741
H    0.293013  -3.750987  4.466677
N    -3.297897  -1.938945  1.661512
C    -3.101016  -3.239535  2.301002
H    -4.061043  -1.882743  0.983239
H    -2.169542  -3.250588  2.870429
H    -3.055796  -4.008552  1.520636
H    -3.942021  -3.465129  2.968128
Cd    -1.925822  1.668377  -0.068367
