34
Energy: -172327.18583 eV PBE+vdW (tier 2 basis)
C    -0.710808  0.597885  0.215014
C    -0.315031  -0.159482  1.446402
O    0.707344  -0.932354  1.301598
H    -1.165229  -0.104064  -0.498515
H    0.186801  1.008830  -0.260917
H    -1.419684  1.403591  0.428372
N    -0.969650  -0.054526  2.583351
C    -2.125202  0.769686  2.960968
C    -1.995396  0.796331  4.511969
O    -1.353479  -0.107117  5.061784
H    -0.670654  -0.570463  3.436950
H    -2.015997  1.780513  2.542826
C    -3.442272  0.091420  2.504140
C    -4.759779  0.848539  2.733186
C    -4.932447  2.112148  1.877369
C    -6.418370  2.566746  1.777097
N    -6.970588  3.054863  2.995293
H    -3.502493  -0.882674  3.012806
H    -3.344480  -0.130850  1.430136
H    -4.907958  1.083444  3.798382
H    -5.562423  0.138262  2.482973
H    -4.602602  1.925481  0.844084
H    -4.329673  2.956266  2.248978
H    -7.042301  1.743822  1.408488
H    -6.441588  3.372188  1.011465
H    -7.884491  2.742895  3.310569
H    -6.653319  3.939792  3.382395
N    -2.620475  1.789081  5.167349
C    -2.623805  1.916766  6.622179
H    -3.043817  2.533297  4.622693
H    -2.234759  0.991269  7.054073
H    -3.646244  2.088937  6.978796
H    -1.989657  2.756637  6.936081
Cd    1.879900  -2.181266  2.607791
