34
Energy: -172327.116781 eV PBE+vdW (tier 2 basis)
C    -0.535663  1.365071  0.434312
C    -0.426263  0.727436  1.780238
O    0.520402  1.055543  2.580445
H    -1.323575  0.961322  -0.199727
H    0.415615  1.243709  -0.097185
H    -0.725817  2.441393  0.588950
N    -1.308383  -0.150252  2.289139
C    -2.190261  -1.103000  1.605214
C    -1.349060  -1.975961  0.615594
O    -0.388450  -1.475204  0.033059
H    -1.068129  -0.409087  3.246265
H    -2.551988  -1.751821  2.415461
C    -3.413618  -0.486123  0.885785
C    -4.345381  0.322018  1.804261
C    -5.276773  -0.502108  2.713193
C    -6.511797  -1.072034  1.988517
N    -7.448202  -0.064862  1.607738
H    -3.955220  -1.318510  0.411848
H    -3.078963  0.142122  0.051716
H    -4.964145  0.978145  1.173873
H    -3.739384  0.991794  2.432458
H    -5.622863  0.125480  3.547776
H    -4.746199  -1.343152  3.184903
H    -6.998236  -1.794832  2.684703
H    -6.248725  -1.656026  1.094689
H    -8.073944  -0.218581  0.821895
H    -7.776820  0.604821  2.299898
N    -1.774227  -3.238947  0.437026
C    -1.114606  -4.175042  -0.472024
H    -2.501029  -3.601866  1.045669
H    -0.335307  -4.747966  0.048527
H    -0.652326  -3.610496  -1.287485
H    -1.861306  -4.867834  -0.873460
Cd    1.844039  2.796627  2.501293
