34
Energy: -172328.193864 eV PBE+vdW (tier 2 basis)
C    0.455887  1.580476  2.894009
C    -0.368305  0.340155  2.730633
O    -0.572386  -0.084150  1.553700
H    0.538388  1.920024  3.931859
H    0.010410  2.379436  2.286020
H    1.460161  1.398027  2.488346
N    -0.847769  -0.235004  3.848580
C    -1.832363  -1.325340  4.039473
C    -1.207474  -2.715936  3.827757
O    -0.850954  -3.164001  2.692346
H    -0.564269  0.228147  4.707066
H    -2.087133  -1.256272  5.106284
C    -3.157717  -1.157620  3.267095
C    -3.923063  0.123665  3.625451
C    -5.287537  0.195977  2.928268
C    -6.065877  1.472949  3.296047
N    -7.347334  1.527763  2.660223
H    -3.772267  -2.039737  3.504824
H    -2.993067  -1.188717  2.177505
H    -3.324224  1.007063  3.354447
H    -4.063555  0.165351  4.718134
H    -5.890233  -0.685364  3.199861
H    -5.163542  0.170407  1.835086
H    -5.502488  2.372766  3.011149
H    -6.174865  1.514581  4.403133
H    -8.008719  0.769289  2.802394
H    -7.770337  2.431306  2.471956
N    -1.071049  -3.488537  4.894885
C    -0.529901  -4.851705  4.852627
H    -1.350378  -3.118730  5.798854
H    -0.648736  -5.299863  5.842115
H    0.533869  -4.830635  4.586275
H    -1.072903  -5.448078  4.110972
Cd    -0.846910  -2.101797  0.794552
