34
Energy: -172328.145914 eV PBE+vdW (tier 2 basis)
C    1.144952  2.734209  2.036592
C    0.100394  2.237265  2.984532
O    -0.644880  3.087582  3.559786
H    0.645745  3.299400  1.236673
H    1.741875  1.932385  1.589180
H    1.804343  3.439475  2.558707
N    -0.011118  0.907864  3.161452
C    -1.112968  0.180582  3.808335
C    -0.821073  -0.020668  5.310804
O    -0.815801  0.973595  6.107164
H    0.662282  0.336021  2.658624
H    -1.985699  0.854825  3.792509
C    -1.516502  -1.060543  2.980013
C    -0.419779  -2.037812  2.516843
C    -1.027792  -3.206499  1.725703
C    0.035741  -4.168578  1.166307
N    -0.551760  -5.242349  0.423071
H    -2.032407  -0.678790  2.087009
H    -2.290573  -1.597913  3.549499
H    0.176326  -2.434901  3.356472
H    0.303827  -1.521167  1.863344
H    -1.622040  -2.819116  0.885103
H    -1.724606  -3.766174  2.369992
H    0.648154  -4.559272  2.009771
H    0.733227  -3.636616  0.503664
H    -1.237899  -5.844575  0.869130
H    -0.018131  -5.682349  -0.319882
N    -0.589913  -1.230516  5.788873
C    -0.330901  -1.518716  7.203661
H    -0.572236  -2.004356  5.131880
H    -0.444052  -2.593923  7.364037
H    -1.046623  -0.975224  7.829068
H    0.686635  -1.212679  7.477221
Cd    -1.411750  3.015537  5.594863
