34
Energy: -172327.611147 eV PBE+vdW (tier 2 basis)
C    -1.387439  2.338593  1.565998
C    -0.749156  1.635274  2.714379
O    -0.349232  2.305342  3.717023
H    -0.828257  3.265853  1.381881
H    -2.408549  2.647212  1.837466
H    -1.411909  1.736243  0.653103
N    -0.577265  0.289215  2.702956
C    -1.608020  -0.680504  2.331074
C    -2.649096  -0.706867  3.476498
O    -2.359794  -0.275504  4.642039
H    0.046713  -0.048361  3.438190
H    -2.093449  -0.336109  1.407615
C    -0.976629  -2.075267  2.128974
C    0.032212  -2.174140  0.974416
C    -0.587570  -2.144065  -0.428028
C    0.475073  -2.370366  -1.523091
N    -0.084906  -2.398168  -2.839135
H    -1.781109  -2.809850  1.985317
H    -0.484162  -2.360422  3.072833
H    0.575369  -3.121386  1.107837
H    0.790516  -1.380839  1.069024
H    -1.084322  -1.182844  -0.635186
H    -1.359497  -2.926543  -0.509341
H    0.997337  -3.328565  -1.303000
H    1.246897  -1.589067  -1.491207
H    0.483773  -2.106512  -3.628519
H    -0.803653  -3.081637  -3.062347
N    -3.854910  -1.218749  3.271355
C    -4.412195  -1.830898  2.064871
H    -4.450664  -1.225877  4.100969
H    -3.882804  -1.490465  1.170516
H    -5.462862  -1.533865  1.978314
H    -4.359549  -2.925810  2.125922
Cd    -1.127213  1.341312  5.568759
