34
Energy: -172327.288746 eV PBE+vdW (tier 2 basis)
C    0.514168  1.143848  0.526839
C    0.017025  -0.130248  1.136461
O    0.730469  -1.202507  1.186034
H    1.422159  1.474978  1.051945
H    -0.222506  1.952387  0.575744
H    0.763966  0.971548  -0.530104
N    -1.203709  -0.163196  1.636983
C    -1.882018  -1.332937  2.212397
C    -3.353335  -1.135390  1.776196
O    -3.757212  0.038382  1.751388
H    -1.827200  0.650451  1.554940
H    -1.427607  -2.236795  1.788300
C    -1.756108  -1.314638  3.756036
C    -2.476512  -2.461359  4.474646
C    -2.251018  -2.472852  5.999932
C    -3.017320  -1.387331  6.778171
N    -4.422036  -1.613369  6.842473
H    -0.682011  -1.347751  3.993764
H    -2.129494  -0.338951  4.101678
H    -2.115516  -3.423984  4.082195
H    -3.558384  -2.423073  4.273688
H    -1.182148  -2.356835  6.229512
H    -2.536202  -3.457649  6.399325
H    -2.841828  -0.371704  6.395636
H    -2.596966  -1.383524  7.813820
H    -4.775271  -2.528323  7.114990
H    -5.062185  -0.836784  6.985867
N    -4.134655  -2.178137  1.459805
C    -3.831747  -3.604605  1.432794
H    -5.087175  -1.906358  1.216179
H    -2.752021  -3.776421  1.435743
H    -4.244007  -4.039676  0.514960
H    -4.274133  -4.121344  2.294739
Cd    2.794561  -1.421825  0.478289
