34
Energy: -172328.179167 eV PBE+vdW (tier 2 basis)
C    -0.639755  -0.076569  -0.424938
C    -0.517594  -0.147683  1.063988
O    0.629527  0.004026  1.580793
H    -0.292368  0.912578  -0.755439
H    -1.662130  -0.235266  -0.784200
H    0.031133  -0.817234  -0.878923
N    -1.639626  -0.349179  1.781399
C    -1.793482  -0.219547  3.239219
C    -1.432097  -1.554804  3.926126
O    -0.227657  -1.828373  4.232592
H    -2.495903  -0.465400  1.244815
H    -1.033480  0.501110  3.582599
C    -3.171473  0.375463  3.575972
C    -3.332190  0.751870  5.059541
C    -4.517777  1.683901  5.354150
C    -5.906823  1.046168  5.178329
N    -6.951325  1.941944  5.572699
H    -3.975294  -0.302726  3.239044
H    -3.275607  1.282599  2.960628
H    -2.419279  1.272377  5.388117
H    -3.404991  -0.151280  5.685934
H    -4.459328  2.584245  4.724458
H    -4.421551  2.029483  6.394332
H    -5.943577  0.107992  5.778799
H    -6.095956  0.751071  4.135579
H    -7.885381  1.823491  5.193756
H    -6.912083  2.381551  6.488233
N    -2.384306  -2.436658  4.175904
C    -2.145211  -3.753731  4.777374
H    -3.342872  -2.174586  3.966049
H    -1.856632  -3.645652  5.830252
H    -1.342504  -4.269860  4.239779
H    -3.066677  -4.337279  4.709013
Cd    1.494502  -0.723704  3.446784
