34
Energy: -172328.604925 eV PBE+vdW (tier 2 basis)
C    2.134157  1.486354  0.870737
C    1.289306  1.003919  2.009111
O    1.782760  0.497541  3.033952
H    2.909329  2.157547  1.260141
H    1.569761  1.993408  0.080994
H    2.653376  0.620527  0.436082
N    -0.067776  1.149869  1.886096
C    -1.081845  0.526020  2.734387
C    -1.102931  1.022098  4.206475
O    -2.247853  1.307479  4.785795
H    -0.412327  1.617694  1.054019
H    -2.043782  0.872212  2.330466
C    -1.068598  -1.036297  2.631176
C    -2.157141  -1.588732  3.548118
C    -2.669212  -3.025819  3.569201
C    -3.473973  -3.284887  4.858883
N    -4.499811  -2.208028  5.209911
H    -0.082975  -1.430862  2.908823
H    -1.258735  -1.300740  1.582519
H    -3.043604  -0.960384  3.300080
H    -1.790698  -1.377361  4.580299
H    -1.841907  -3.748929  3.565021
H    -3.274357  -3.234355  2.676147
H    -2.798146  -3.346583  5.722323
H    -4.016395  -4.237348  4.790538
H    -5.260917  -2.212869  4.519091
H    -4.941584  -2.461669  6.100966
N    0.032517  1.175091  4.826386
C    0.218854  1.666069  6.185052
H    0.884673  0.900248  4.224137
H    0.818767  2.584747  6.148929
H    0.779167  0.920719  6.763866
H    -0.742029  1.881280  6.658068
Cd    -3.603951  -0.175310  5.283044
