34
Energy: -172329.398467 eV PBE+vdW (tier 2 basis)
C    1.159494  -0.530562  3.142211
C    0.092248  0.370392  2.615668
O    0.313016  1.617505  2.571611
H    1.387856  -0.242714  4.177601
H    2.077566  -0.373965  2.559899
H    0.885457  -1.590267  3.111031
N    -1.067217  -0.190081  2.200535
C    -2.163919  0.556419  1.588484
C    -3.057888  1.221472  2.655059
O    -2.808639  2.426827  2.981669
H    -1.147515  -1.201622  2.270298
H    -1.665551  1.400795  1.098473
C    -2.825058  -0.144226  0.384357
C    -2.159320  0.359330  -0.915178
C    -2.689360  1.692427  -1.496696
C    -2.840389  2.970919  -0.659997
N    -1.546132  3.643732  -0.201306
H    -3.903706  0.069283  0.368954
H    -2.726359  -1.235924  0.466703
H    -2.301370  -0.390979  -1.704021
H    -1.067481  0.399763  -0.760292
H    -3.706268  1.508659  -1.878989
H    -2.095092  1.928594  -2.393398
H    -3.473238  2.818577  0.224406
H    -3.364803  3.707476  -1.282474
H    -0.772586  3.355473  -0.811277
H    -1.636055  4.653965  -0.349651
N    -4.040530  0.533194  3.208771
C    -4.934520  1.031069  4.259844
H    -4.201837  -0.414466  2.875078
H    -4.920832  0.333723  5.105226
H    -5.957225  1.105577  3.870837
H    -4.590893  2.015151  4.585487
Cd    -1.020851  3.231484  1.957077
