34
Energy: -172328.230507 eV PBE+vdW (tier 2 basis)
C    -2.116723  -0.567405  0.251884
C    -1.380283  -0.342787  1.537384
O    -0.094370  -0.285655  1.415403
H    -1.894446  0.258992  -0.436735
H    -3.198862  -0.631954  0.398063
H    -1.744991  -1.485345  -0.222221
N    -2.094084  -0.212625  2.646569
C    -1.680612  -0.208985  4.062124
C    -0.978692  1.084073  4.519661
O    0.292905  1.256832  4.446965
H    -3.140601  -0.577129  2.614355
H    -2.642320  -0.209695  4.592783
C    -0.973815  -1.499340  4.521421
C    -1.668863  -2.793737  4.064546
C    -3.153549  -2.968810  4.479113
C    -4.199142  -2.818227  3.367939
N    -4.481788  -1.406089  2.968524
H    -0.894626  -1.463496  5.618553
H    0.082700  -1.563738  4.168465
H    -1.081895  -3.618811  4.487869
H    -1.574145  -2.901757  2.973651
H    -3.411507  -2.321402  5.334464
H    -3.269832  -3.989073  4.868124
H    -5.129132  -3.307777  3.692572
H    -3.861220  -3.350630  2.467986
H    -5.099042  -1.411584  2.151563
H    -5.035208  -0.954171  3.702565
N    -1.690888  2.051132  5.068376
C    -3.136741  2.102645  5.315770
H    -1.142534  2.857966  5.372965
H    -3.697825  1.842814  4.411554
H    -3.389368  3.131446  5.588010
H    -3.419088  1.448043  6.150460
Cd    1.259122  0.094748  2.965094
