34
Energy: -172327.639958 eV PBE+vdW (tier 2 basis)
C    0.579663  1.882151  1.053685
C    0.223353  1.900640  2.500528
O    1.054587  2.358753  3.346386
H    0.489524  2.896189  0.634362
H    -0.030177  1.187115  0.468854
H    1.640084  1.610463  0.966786
N    -0.970221  1.422283  2.933546
C    -2.263436  1.727935  2.323102
C    -2.635258  3.179256  2.748154
O    -2.015942  3.797865  3.671440
H    -1.018447  1.301024  3.946591
H    -2.139822  1.714566  1.229989
C    -3.350358  0.711685  2.731118
C    -3.232072  -0.692447  2.112874
C    -2.182624  -1.626651  2.733009
C    -2.261098  -3.060112  2.165614
N    -3.467039  -3.745865  2.521025
H    -4.321920  1.131366  2.434036
H    -3.387741  0.652250  3.832063
H    -3.059646  -0.602441  1.027781
H    -4.217541  -1.170072  2.215959
H    -2.311882  -1.668384  3.827168
H    -1.160780  -1.264608  2.553456
H    -1.376334  -3.616777  2.545048
H    -2.174971  -3.055764  1.070471
H    -3.846287  -4.445193  1.889386
H    -3.673782  -3.908255  3.503486
N    -3.646328  3.764131  2.125742
C    -4.131615  5.115901  2.426840
H    -4.147490  3.233576  1.417912
H    -4.834830  5.411195  1.644104
H    -3.292317  5.819187  2.447403
H    -4.639163  5.133327  3.399114
Cd    -0.000309  3.829480  4.641828
