34
Energy: -172328.522744 eV PBE+vdW (tier 2 basis)
C    -0.432325  1.368092  0.052446
C    -0.185964  0.898658  1.456315
O    0.963477  0.432012  1.744440
H    0.045094  2.351171  -0.078765
H    -1.495882  1.451681  -0.192645
H    0.069344  0.690728  -0.649086
N    -1.128052  0.911552  2.438349
C    -2.064143  2.010130  2.637836
C    -1.504928  2.948057  3.759749
O    -0.556630  2.601858  4.538608
H    -2.063316  -0.716461  2.254795
H    -2.130120  2.629541  1.727865
C    -3.483675  1.504255  2.977011
C    -3.612722  0.625615  4.249130
C    -4.230077  -0.767600  4.030136
C    -3.279039  -1.871896  3.588103
N    -2.644299  -1.604244  2.232730
H    -3.844994  0.968900  2.085393
H    -4.158156  2.364321  3.061057
H    -4.243170  1.154829  4.973386
H    -2.639650  0.512823  4.753115
H    -5.085175  -0.704166  3.337747
H    -4.657706  -1.124897  4.978215
H    -3.796991  -2.835116  3.507795
H    -2.443938  -1.993524  4.290504
H    -2.036988  -2.384124  1.949309
H    -3.364395  -1.503149  1.505726
N    -2.031819  4.153481  3.929426
C    -3.086734  4.834053  3.176930
H    -1.618272  4.677634  4.701834
H    -4.061012  4.716167  3.668713
H    -3.146399  4.462174  2.149705
H    -2.843042  5.900891  3.137992
Cd    0.556405  0.806138  3.939812
