34
Energy: -172327.436818 eV PBE+vdW (tier 2 basis)
C    -0.648192  0.987028  0.460948
C    0.073761  0.347071  1.598372
O    1.303741  0.608270  1.781820
H    -1.647420  1.331316  0.745149
H    -0.754166  0.262233  -0.363404
H    -0.049648  1.823406  0.086675
N    -0.545951  -0.519127  2.442613
C    -1.442007  -1.621681  2.050869
C    -0.631126  -2.559041  1.114624
O    0.640892  -2.583383  1.134279
H    -0.000697  -0.707957  3.283015
H    -1.572905  -2.200349  2.980084
C    -2.855255  -1.194145  1.585119
C    -3.962905  -2.173439  2.021862
C    -5.370958  -1.819202  1.518858
C    -6.001280  -0.586798  2.194627
N    -7.354802  -0.387823  1.782058
H    -2.880199  -1.042008  0.495387
H    -3.046686  -0.212787  2.038906
H    -3.966264  -2.242080  3.121833
H    -3.742553  -3.197185  1.677246
H    -6.023105  -2.686143  1.702437
H    -5.367043  -1.661231  0.429585
H    -5.444569  0.337477  1.982950
H    -5.949389  -0.729964  3.298970
H    -8.013888  -1.161039  1.818164
H    -7.768436  0.538524  1.820612
N    -1.284696  -3.384372  0.313169
C    -0.633021  -4.374810  -0.551579
H    -2.299851  -3.358360  0.325813
H    -1.408889  -4.922938  -1.091617
H    -0.042854  -5.075329  0.050736
H    0.026869  -3.876396  -1.271006
Cd    2.378500  -1.340715  1.803564
