34
Energy: -172328.023683 eV PBE+vdW (tier 2 basis)
C    -0.899975  0.378146  0.253965
C    -0.406291  0.242735  1.660696
O    0.792753  -0.135931  1.826769
H    -1.939215  0.716442  0.184970
H    -0.806850  -0.598556  -0.241672
H    -0.248080  1.073927  -0.290212
N    -1.274120  0.519699  2.652414
C    -1.206356  0.287992  4.114910
C    -0.403327  1.395475  4.826601
O    0.863297  1.492206  4.727650
H    -2.183325  0.833702  2.324796
H    -2.249287  0.389681  4.434420
C    -0.759756  -1.124789  4.544821
C    -1.252065  -1.505888  5.949588
C    -2.731420  -1.914130  5.991980
C    -3.229837  -2.176128  7.433500
N    -3.388114  -0.961861  8.204377
H    0.348583  -1.221024  4.531002
H    -1.115330  -1.845518  3.794483
H    -1.065886  -0.682675  6.658940
H    -0.644494  -2.350284  6.304297
H    -2.880529  -2.833467  5.407020
H    -3.381723  -1.148252  5.537001
H    -2.527096  -2.841140  7.951779
H    -4.190795  -2.715334  7.355828
H    -4.300692  -0.516285  8.141855
H    -3.060649  -0.994219  9.166146
N    -1.039731  2.278305  5.582026
C    -2.470945  2.361589  5.897823
H    -0.429032  2.969821  6.019530
H    -3.075766  2.469884  4.989653
H    -2.622461  3.256763  6.507329
H    -2.798083  1.489675  6.479490
Cd    2.070185  0.138509  3.537482
