34
Energy: -172327.216237 eV PBE+vdW (tier 2 basis)
C    -0.539061  -1.811943  0.571893
C    -0.185829  -0.674739  1.476294
O    0.953449  -0.616624  2.068868
H    -1.577520  -1.800384  0.231051
H    -0.351239  -2.759299  1.093393
H    0.110965  -1.780806  -0.315478
N    -1.025975  0.319207  1.729768
C    -2.420337  0.512596  1.325565
C    -2.585485  2.060599  1.357455
O    -2.051882  2.667644  2.287791
H    -0.696716  1.069227  2.354204
H    -2.573030  0.104105  0.319568
C    -3.389173  -0.138105  2.347660
C    -4.874039  0.011151  2.000362
C    -5.839940  -0.640976  2.996406
C    -5.943309  0.153685  4.359781
N    -6.911943  -0.386204  5.239549
H    -3.165088  0.313206  3.326750
H    -3.131820  -1.206493  2.419131
H    -5.071264  -0.466498  1.025433
H    -5.137475  1.073464  1.877402
H    -5.546699  -1.676571  3.220674
H    -6.847183  -0.672843  2.561357
H    -6.205678  1.195802  4.132652
H    -4.958334  0.125142  4.851467
H    -7.875841  -0.065543  5.226001
H    -6.719149  -1.211733  5.799347
N    -3.316019  2.667874  0.400013
C    -3.841656  2.106289  -0.841167
H    -3.345142  3.681572  0.503226
H    -4.501504  2.850099  -1.297429
H    -3.041941  1.876681  -1.559819
H    -4.435976  1.203742  -0.656212
Cd    2.906609  -1.465217  1.610306
