34
Energy: -172327.711749 eV PBE+vdW (tier 2 basis)
C    -0.920547  1.132015  -0.602612
C    -0.212301  0.187681  0.297849
O    1.026153  -0.051992  0.067180
H    -1.785844  1.601292  -0.129728
H    -1.226297  0.619914  -1.528348
H    -0.194690  1.898005  -0.911785
N    -0.774759  -0.389294  1.402247
C    -1.999730  -1.198518  1.580829
C    -1.534868  -2.647546  1.868843
O    -0.453680  -3.169920  1.356136
H    -0.085892  -0.545585  2.141197
H    -2.519922  -0.828980  2.475871
C    -2.960295  -1.150074  0.374278
C    -4.302014  -1.871295  0.575036
C    -5.249605  -1.239650  1.626575
C    -5.700823  -2.187798  2.736020
N    -4.606731  -2.493698  3.699528
H    -2.452414  -1.567878  -0.509707
H    -3.171115  -0.094321  0.159154
H    -4.132990  -2.934676  0.796324
H    -4.797624  -1.867246  -0.404125
H    -6.153531  -0.873824  1.122972
H    -4.800901  -0.339546  2.080843
H    -6.041113  -3.140286  2.307492
H    -6.559471  -1.752682  3.269908
H    -4.425880  -1.677588  4.291668
H    -4.906207  -3.233186  4.341508
N    -2.305875  -3.388693  2.611779
C    -2.033018  -4.796281  2.907196
H    -3.252848  -2.965958  3.039697
H    -2.796365  -5.150666  3.605721
H    -1.042925  -4.915020  3.363097
H    -2.073958  -5.401310  1.992638
Cd    1.221357  -2.156561  0.562230
