34
Energy: -172327.751584 eV PBE+vdW (tier 2 basis)
C    -0.281618  -0.342733  -0.006272
C    -0.297586  -0.141702  1.474672
O    0.767707  0.234221  2.047921
H    -0.064780  0.619843  -0.490509
H    -1.226267  -0.736838  -0.396246
H    0.537842  -1.023537  -0.270036
N    -1.447738  -0.369315  2.141925
C    -1.625502  -0.057390  3.557536
C    -0.855556  -1.030921  4.485939
O    0.071467  -0.537482  5.218939
H    -2.265326  -0.613237  1.590328
H    -1.084412  0.889678  3.725529
C    -3.069241  0.307183  3.983599
C    -4.250662  -0.669144  3.892897
C    -4.771488  -0.997958  2.485852
C    -6.153012  -1.688818  2.509883
N    -7.188309  -0.830303  3.016499
H    -3.315049  1.219997  3.417619
H    -2.976891  0.634047  5.030419
H    -5.072984  -0.178854  4.435732
H    -4.051467  -1.590093  4.458023
H    -4.096213  -1.675609  1.934838
H    -4.848781  -0.075092  1.886652
H    -6.119347  -2.592926  3.132996
H    -6.385081  -2.026067  1.478774
H    -7.449918  -0.017235  2.464026
H    -7.972855  -1.259633  3.498300
N    -1.083969  -2.331683  4.577094
C    -2.011581  -3.205463  3.865223
H    -0.470428  -2.795217  5.251357
H    -1.444493  -4.049129  3.452667
H    -2.498154  -2.675353  3.046547
H    -2.769767  -3.598266  4.553561
Cd    1.440972  0.747371  4.089182
