34
Energy: -172328.189451 eV PBE+vdW (tier 2 basis)
C    0.131604  0.490463  -0.080913
C    0.146467  0.267728  1.400322
O    1.256098  -0.024547  1.940808
H    0.546388  -0.399814  -0.572754
H    0.800986  1.326601  -0.323692
H    -0.866259  0.692824  -0.484069
N    -1.022793  0.383725  2.054865
C    -1.402850  0.042703  3.445978
C    -0.964469  1.123068  4.451637
O    0.245864  1.323079  4.790534
H    -1.803766  0.648132  1.461463
H    -2.501284  0.065573  3.424163
C    -1.014035  -1.378458  3.904164
C    -1.628990  -2.491761  3.044704
C    -1.383532  -3.885804  3.637281
C    -2.048430  -5.016286  2.831155
N    -1.446573  -5.221231  1.540009
H    -1.355857  -1.475579  4.946423
H    0.081845  -1.508646  3.935191
H    -1.230707  -2.453875  2.019647
H    -2.715349  -2.319662  2.963677
H    -1.779595  -3.934695  4.662263
H    -0.302326  -4.085592  3.714821
H    -3.118916  -4.814858  2.687086
H    -1.988041  -5.941062  3.443320
H    -0.482808  -5.547657  1.520428
H    -2.021691  -5.646280  0.817485
N    -1.915951  1.853367  5.011703
C    -1.665288  2.892653  6.016987
H    -2.878284  1.693253  4.727982
H    -2.627134  3.225529  6.414738
H    -1.143163  3.743573  5.562584
H    -1.051388  2.487564  6.828961
Cd    1.985443  0.337622  3.950490
