34
Energy: -172328.220928 eV PBE+vdW (tier 2 basis)
C    -1.475582  -0.991033  0.210487
C    -1.014911  -0.648262  1.595147
O    0.272262  -0.620765  1.732566
H    -1.028637  -0.286004  -0.502646
H    -2.564706  -0.957795  0.115663
H    -1.104942  -1.990637  -0.054683
N    -1.939849  -0.404719  2.510127
C    -1.841474  -0.246258  3.973762
C    -1.111022  1.026100  4.452746
O    0.156095  1.088075  4.651842
H    -2.967529  -0.788125  2.276665
H    -2.888652  -0.091383  4.277331
C    -1.385812  -1.524396  4.711372
C    -2.411538  -2.679034  4.679850
C    -2.701885  -3.356753  3.319468
C    -4.055621  -3.059091  2.660149
N    -4.308288  -1.615129  2.341962
H    -1.184248  -1.263793  5.760919
H    -0.430453  -1.912990  4.296257
H    -3.345405  -2.312838  5.138072
H    -2.033646  -3.435812  5.379104
H    -2.688398  -4.444715  3.471141
H    -1.883663  -3.166463  2.607806
H    -4.865020  -3.439570  3.298842
H    -4.110626  -3.622669  1.720822
H    -4.829039  -1.545476  1.465152
H    -4.933195  -1.211212  3.042718
N    -1.850060  2.080459  4.738807
C    -1.336860  3.360473  5.238351
H    -2.858805  1.989480  4.643580
H    -1.310882  3.353161  6.335827
H    -2.003796  4.157914  4.897349
H    -0.326739  3.526774  4.854694
Cd    1.307829  -0.274025  3.513460
