34
Energy: -172327.607225 eV PBE+vdW (tier 2 basis)
C    0.445139  -0.689742  0.640076
C    -0.133582  0.485482  1.350654
O    0.149325  1.660250  0.955629
H    0.424286  -1.606695  1.236571
H    1.479787  -0.447221  0.363920
H    -0.092734  -0.854222  -0.306517
N    -0.951180  0.322708  2.420692
C    -2.063721  -0.624459  2.485227
C    -3.197607  -0.058538  1.581268
O    -3.199924  1.144766  1.167762
H    -1.122543  1.185648  2.939618
H    -1.730466  -1.583452  2.061528
C    -2.550181  -0.835179  3.934158
C    -1.638665  -1.663095  4.855745
C    -0.346657  -0.984633  5.333853
C    0.285267  -1.707937  6.548588
N    0.764015  -3.024778  6.250698
H    -3.525895  -1.339122  3.885760
H    -2.759594  0.151608  4.381732
H    -1.403718  -2.629243  4.382243
H    -2.247671  -1.911187  5.738507
H    -0.552857  0.046902  5.659327
H    0.399949  -0.917734  4.528273
H    -0.441082  -1.778636  7.368272
H    1.118386  -1.069775  6.911604
H    1.575563  -3.131541  5.647979
H    0.657429  -3.759830  6.943451
N    -4.194865  -0.868710  1.263293
C    -5.351551  -0.477621  0.449464
H    -4.186846  -1.812452  1.641713
H    -5.887589  -1.383445  0.154927
H    -5.014932  0.055190  -0.445906
H    -6.022590  0.172925  1.024072
Cd    -1.754850  2.784694  0.697996
