34
Energy: -172328.073131 eV PBE+vdW (tier 2 basis)
C    -0.119322  0.310884  -0.064639
C    -0.162953  0.307780  1.430425
O    0.821573  0.792110  2.062231
H    0.776708  -0.228224  -0.399117
H    -0.014637  1.348094  -0.411502
H    -1.007493  -0.135881  -0.524164
N    -1.253894  -0.204579  2.032585
C    -1.550032  -0.147329  3.466457
C    -0.748800  -1.209697  4.258637
O    0.274387  -0.836217  4.927236
H    -1.989153  -0.548498  1.420535
H    -1.146731  0.808936  3.839173
C    -3.065556  -0.116537  3.738010
C    -3.705418  1.244296  3.422654
C    -5.201693  1.265750  3.767455
C    -5.870855  2.627684  3.516959
N    -5.974186  2.960226  2.121106
H    -3.570859  -0.911316  3.169525
H    -3.219702  -0.357798  4.800815
H    -3.570405  1.501039  2.360118
H    -3.188688  2.028274  4.000280
H    -5.344829  1.018013  4.829605
H    -5.736798  0.489101  3.197279
H    -5.325114  3.434059  4.026506
H    -6.877972  2.594945  3.985764
H    -6.544430  2.353706  1.535441
H    -6.059812  3.943208  1.876331
N    -1.075545  -2.492668  4.296865
C    -2.194395  -3.211758  3.683740
H    -0.448318  -3.050220  4.879247
H    -2.395602  -2.843185  2.673614
H    -3.099451  -3.139881  4.299391
H    -1.908802  -4.265272  3.606771
Cd    1.542443  0.756766  4.134574
