34
Energy: -172328.022016 eV PBE+vdW (tier 2 basis)
C    1.584844  -0.365682  1.261381
C    0.971510  -0.152865  2.608182
O    1.718497  0.237540  3.554278
H    1.999082  0.589709  0.909755
H    0.874380  -0.743877  0.518495
H    2.427085  -1.063364  1.354495
N    -0.349051  -0.378943  2.748291
C    -1.156641  -0.056254  3.927561
C    -0.944505  -1.083988  5.065310
O    -0.256871  -0.736189  6.086106
H    -0.850735  -0.656496  1.907995
H    -0.758174  0.881777  4.347047
C    -2.618396  0.212096  3.517150
C    -3.592003  0.507702  4.667218
C    -3.324086  1.810038  5.435739
C    -4.463114  2.171193  6.410201
N    -5.690349  2.491268  5.735861
H    -3.000001  -0.636289  2.932105
H    -2.591164  1.070271  2.827698
H    -3.624378  -0.338520  5.373288
H    -4.598297  0.563247  4.227600
H    -3.180733  2.643235  4.728122
H    -2.400602  1.742838  6.031814
H    -4.120935  3.026222  7.030711
H    -4.657292  1.343613  7.106360
H    -6.566275  2.325889  6.223237
H    -5.708777  3.308135  5.129886
N    -1.445960  -2.309766  5.043921
C    -2.296412  -2.973903  4.053114
H    -1.209551  -2.856426  5.873746
H    -2.189526  -4.053517  4.195169
H    -1.977825  -2.735043  3.034347
H    -3.352066  -2.708281  4.190874
Cd    1.539951  0.463394  5.722560
