34
Energy: -172328.604216 eV PBE+vdW (tier 2 basis)
C    -0.570159  -0.561514  0.310580
C    -0.132702  0.374298  1.400154
O    1.115393  0.588574  1.543902
H    -0.513143  -0.029988  -0.651469
H    -1.588856  -0.937594  0.448307
H    0.139524  -1.394439  0.241164
N    -0.983736  0.988521  2.263254
C    -2.261665  1.565313  1.868623
C    -2.061643  3.082360  1.555428
O    -1.033280  3.732029  1.935667
H    -1.113749  -0.437110  3.760216
H    -2.632556  1.095869  0.941662
C    -3.302989  1.379759  2.991221
C    -3.718251  -0.099174  3.149408
C    -3.776471  -0.628481  4.590777
C    -2.478511  -0.520377  5.385078
N    -1.295900  -1.055376  4.590430
H    -4.188978  1.997866  2.804285
H    -2.857397  1.782597  3.914105
H    -3.040623  -0.735320  2.555021
H    -4.705420  -0.255297  2.696180
H    -4.105897  -1.678404  4.572260
H    -4.540756  -0.090390  5.170646
H    -2.528447  -1.094531  6.317162
H    -2.216522  0.514123  5.637974
H    -0.445044  -1.093700  5.165820
H    -1.478155  -2.010118  4.252264
N    -2.996820  3.739919  0.882702
C    -4.265031  3.260501  0.333293
H    -2.793609  4.732268  0.754530
H    -4.234657  2.183586  0.144389
H    -4.441302  3.769017  -0.620418
H    -5.097272  3.489360  1.011810
Cd    0.638917  2.505150  2.659163
