34
Energy: -172327.271229 eV PBE+vdW (tier 2 basis)
C    -0.309758  0.857171  -0.133318
C    -0.487508  0.208191  1.204695
O    0.504128  -0.206899  1.912672
H    0.322632  1.750754  -0.029868
H    -1.259112  1.159211  -0.587524
H    0.187962  0.154478  -0.817456
N    -1.711673  0.050700  1.676500
C    -2.085301  -0.626412  2.923985
C    -3.407651  -1.338655  2.555810
O    -4.155564  -0.730202  1.775525
H    -2.530172  0.306098  1.109158
H    -1.277524  -1.319239  3.190882
C    -2.320895  0.413306  4.050286
C    -2.697695  -0.180281  5.407237
C    -2.969232  0.858739  6.505879
C    -4.344705  1.567271  6.386613
N    -4.431502  2.519151  5.329091
H    -3.114574  1.099614  3.704491
H    -1.404285  1.014389  4.146554
H    -1.876918  -0.821294  5.771533
H    -3.574986  -0.839630  5.312420
H    -2.168895  1.613708  6.544757
H    -2.966152  0.358580  7.483211
H    -4.500341  2.081950  7.362550
H    -5.160710  0.841131  6.280194
H    -5.312076  2.649661  4.837857
H    -3.825023  3.336090  5.347872
N    -3.726972  -2.534515  3.078387
C    -2.963520  -3.412620  3.955964
H    -4.635116  -2.878139  2.763795
H    -3.519537  -3.600288  4.883678
H    -1.998724  -2.969046  4.213019
H    -2.783694  -4.374283  3.457645
Cd    2.634839  -0.105712  1.370745
