34
Energy: -172328.082013 eV PBE+vdW (tier 2 basis)
C    1.123354  0.533141  0.622859
C    0.660539  0.441953  2.042241
O    1.455123  0.803846  2.959060
H    2.038061  -0.062565  0.504477
H    1.392807  1.576018  0.406483
H    0.372155  0.196674  -0.099749
N    -0.585067  -0.015667  2.275421
C    -1.269423  -0.026262  3.571236
C    -0.784209  -1.194556  4.464012
O    0.024778  -0.942772  5.420739
H    -1.137302  -0.261308  1.457866
H    -0.936897  0.871574  4.118368
C    -2.795821  0.097820  3.408494
C    -3.247997  1.521833  3.050987
C    -4.767489  1.604690  2.845317
C    -5.268665  3.023187  2.527553
N    -5.153226  3.924502  3.641761
H    -3.263449  -0.210379  4.355770
H    -3.153309  -0.612533  2.647986
H    -2.738569  1.863806  2.135149
H    -2.947934  2.216123  3.851746
H    -5.291131  1.229082  3.739353
H    -5.073881  0.950842  2.015458
H    -6.328254  2.937629  2.202606
H    -4.725008  3.454088  1.674883
H    -5.670588  3.697276  4.488301
H    -5.127617  4.921261  3.444082
N    -1.176109  -2.449349  4.301156
C    -2.110451  -3.041243  3.340975
H    -0.770422  -3.089271  4.986203
H    -1.872285  -4.106184  3.260366
H    -1.994445  -2.594626  2.349104
H    -3.148468  -2.940853  3.681154
Cd    1.561241  0.587184  5.140312
