34
Energy: -172327.010171 eV PBE+vdW (tier 2 basis)
C    0.169539  0.073063  -0.257090
C    0.267391  -0.289125  1.188936
O    1.367513  -0.661807  1.730285
H    -0.854433  0.045272  -0.642016
H    0.780222  -0.613456  -0.856016
H    0.555690  1.095259  -0.387809
N    -0.790970  -0.234747  1.992917
C    -2.139588  0.285014  1.715410
C    -2.021377  1.777446  1.317210
O    -1.085944  2.457045  1.723785
H    -0.583832  -0.437828  2.971296
H    -2.580404  -0.305193  0.898239
C    -2.965955  0.053777  3.003887
C    -4.473674  0.364751  2.949322
C    -4.852373  1.789676  3.375077
C    -6.357450  2.093687  3.141787
N    -6.678966  2.366526  1.759446
H    -2.494272  0.618619  3.823926
H    -2.849028  -1.013623  3.244317
H    -4.975779  -0.334805  3.632195
H    -4.872451  0.126336  1.952709
H    -4.249231  2.555299  2.865533
H    -4.660095  1.918312  4.449552
H    -6.612800  2.979940  3.749461
H    -6.967379  1.252271  3.492626
H    -7.459023  1.862417  1.342922
H    -6.637166  3.338939  1.460501
N    -2.959453  2.326066  0.479193
C    -4.114999  1.749745  -0.155504
H    -2.775606  3.315374  0.307235
H    -5.038906  1.906807  0.466399
H    -4.007616  0.670748  -0.309855
H    -4.285752  2.235321  -1.123527
Cd    3.398297  -0.879229  0.974399
