34
Energy: -172329.346589 eV PBE+vdW (tier 2 basis)
C    -0.285502  -1.534012  -0.022851
C    -0.735000  -0.647773  1.090881
O    -0.230737  0.505598  1.212354
H    0.791179  -1.723436  0.087290
H    -0.418143  -1.006021  -0.976537
H    -0.819960  -2.489145  -0.058447
N    -1.685163  -1.119549  1.938564
C    -2.225122  -0.289466  3.005765
C    -1.299706  -0.288301  4.242041
O    -0.523733  0.713936  4.415512
H    -2.055198  -2.051654  1.773152
H    -2.088438  0.716536  2.597613
C    -3.759188  -0.296740  3.220222
C    -4.305504  1.091513  2.810820
C    -3.793768  2.238450  3.723190
C    -3.418877  3.570532  3.073404
N    -2.171691  3.548382  2.196068
H    -4.012094  -0.511288  4.266798
H    -4.228083  -1.083301  2.613308
H    -5.402243  1.073434  2.821835
H    -4.028347  1.263156  1.756365
H    -2.938827  1.911787  4.341036
H    -4.570312  2.473287  4.465163
H    -3.220703  4.307265  3.860495
H    -4.239989  3.958735  2.453851
H    -1.826580  4.510719  2.111401
H    -2.431701  3.280870  1.240209
N    -1.273236  -1.285896  5.106706
C    -2.038880  -2.531773  5.105577
H    -0.601262  -1.166004  5.867643
H    -2.635095  -2.601161  6.023520
H    -1.348813  -3.383352  5.065682
H    -2.711945  -2.578413  4.246384
Cd    -0.529862  2.111061  2.739894
