34
Energy: -172327.298443 eV PBE+vdW (tier 2 basis)
C    -0.362368  -1.125597  2.833724
C    -0.923530  -0.721203  4.161115
O    -0.626442  -1.346827  5.233127
H    0.730696  -1.009557  2.855738
H    -0.752953  -0.557014  1.986152
H    -0.584997  -2.187700  2.664088
N    -1.761258  0.311202  4.289689
C    -2.368891  1.166887  3.250859
C    -2.536235  2.549004  3.922787
O    -3.407098  2.709697  4.796998
H    -2.112814  0.461039  5.238488
H    -1.668105  1.251014  2.409694
C    -3.702890  0.561332  2.779004
C    -4.475239  1.320490  1.687208
C    -5.119738  2.670650  2.051892
C    -5.938335  2.619129  3.346041
N    -6.705647  3.765162  3.603028
H    -4.333818  0.395148  3.664967
H    -3.471393  -0.442259  2.392185
H    -5.268748  0.642670  1.341122
H    -3.827900  1.480486  0.811064
H    -5.781823  2.970521  1.226394
H    -4.359685  3.463549  2.135195
H    -5.160220  2.493427  4.181187
H    -6.577478  1.724193  3.434792
H    -7.506486  3.735961  4.228275
H    -6.413496  4.685083  3.283278
N    -1.683276  3.514991  3.545374
C    -1.656687  4.851264  4.132572
H    -0.958596  3.281825  2.872528
H    -0.817951  4.948397  4.834932
H    -2.591385  5.016321  4.675236
H    -1.541674  5.596465  3.337331
Cd    0.789121  -2.992242  5.700237
