34
Energy: -172328.274291 eV PBE+vdW (tier 2 basis)
C    -0.826171  1.733213  -0.750500
C    -1.161177  2.304379  0.590678
O    -0.995400  3.548942  0.772828
H    0.229703  1.933423  -0.975288
H    -1.417517  2.261234  -1.511506
H    -1.020273  0.657957  -0.825275
N    -1.640690  1.470414  1.530952
C    -2.250611  1.831505  2.821242
C    -1.161087  1.925004  3.911346
O    -0.404750  2.947423  3.996701
H    -1.704654  0.490436  1.265877
H    -2.648490  2.854480  2.714542
C    -3.430318  0.899193  3.140568
C    -4.624089  1.054632  2.184886
C    -5.819609  0.193888  2.619201
C    -7.049347  0.346166  1.708892
N    -6.854834  -0.213330  0.397273
H    -3.762212  1.122945  4.165941
H    -3.092247  -0.152789  3.139311
H    -4.338768  0.789996  1.155146
H    -4.928418  2.113794  2.160583
H    -6.127549  0.467259  3.639221
H    -5.530104  -0.868799  2.661280
H    -7.327750  1.403469  1.597332
H    -7.905885  -0.144171  2.219516
H    -6.690333  -1.216022  0.336145
H    -7.442463  0.137707  -0.354453
N    -0.998450  0.928518  4.762442
C    0.019036  0.912689  5.820679
H    -1.628236  0.134157  4.694796
H    1.022123  0.967691  5.381970
H    -0.084034  -0.018655  6.382556
H    -0.123991  1.765791  6.494159
Cd    -0.408406  4.609457  2.582960
