34
Energy: -172328.203098 eV PBE+vdW (tier 2 basis)
C    0.793649  0.310462  0.518912
C    0.396615  0.462070  1.952613
O    1.116218  1.192986  2.700099
H    0.803721  1.306383  0.053692
H    0.123491  -0.343192  -0.049494
H    1.820012  -0.075190  0.466010
N    -0.716099  -0.168103  2.370690
C    -1.430951  0.023183  3.644364
C    -0.836192  -0.906561  4.724584
O    0.178895  -0.552486  5.409950
H    -1.194497  -0.732762  1.672060
H    -1.219318  1.049235  3.985246
C    -2.945010  -0.108603  3.398576
C    -3.859626  0.257307  4.578800
C    -3.905417  1.754611  4.917794
C    -4.992574  2.097102  5.955351
N    -6.322867  1.878234  5.457303
H    -3.175123  -1.131691  3.051842
H    -3.182822  0.542079  2.542854
H    -3.589901  -0.318935  5.478618
H    -4.875573  -0.068585  4.312954
H    -4.086083  2.342120  4.002793
H    -2.945946  2.107170  5.327112
H    -4.853416  3.157149  6.255202
H    -4.863304  1.499223  6.868143
H    -7.057354  1.668017  6.127091
H    -6.639748  2.443001  4.672651
N    -1.373054  -2.095963  4.927172
C    -0.859056  -3.078512  5.888231
H    -2.215588  -2.332119  4.410279
H    -1.050666  -2.744380  6.915481
H    0.219968  -3.206041  5.750936
H    -1.367261  -4.030059  5.713517
Cd    1.485480  1.101263  4.839661
