34
Energy: -172328.30101 eV PBE+vdW (tier 2 basis)
C    2.450777  1.294887  2.061394
C    1.474330  1.350190  3.195767
O    1.568210  2.421005  3.917789
H    2.414907  0.342017  1.527721
H    3.464229  1.467841  2.443742
H    2.227452  2.112488  1.361430
N    0.615295  0.351502  3.360927
C    -0.535907  0.386410  4.269135
C    -0.160548  0.057331  5.734860
O    -0.061251  0.996392  6.613125
H    0.610247  -0.454479  2.562277
H    -0.894745  1.435340  4.314966
C    -1.757986  -0.380709  3.691464
C    -1.885715  -1.913040  3.773911
C    -0.816463  -2.817233  3.135044
C    -0.535574  -2.555788  1.650048
N    0.568026  -1.566818  1.466229
H    -1.833976  -0.048622  2.644815
H    -2.642011  0.039753  4.191640
H    -2.843554  -2.142173  3.282594
H    -2.055386  -2.217847  4.818688
H    -1.165872  -3.852251  3.248100
H    0.150080  -2.786915  3.674280
H    -1.432641  -2.158948  1.156104
H    -0.288063  -3.496685  1.141377
H    1.462578  -2.064204  1.506532
H    0.521073  -1.177888  0.520517
N    0.051796  -1.186495  6.103923
C    0.418287  -1.613275  7.458274
H    -0.112994  -1.910934  5.407350
H    -0.484669  -1.775655  8.061346
H    1.031565  -0.843265  7.934680
H    0.978898  -2.549793  7.386080
Cd    0.569603  2.815860  5.719871
