34
Energy: -172327.673328 eV PBE+vdW (tier 2 basis)
C    -0.461395  -0.480395  -0.372069
C    -0.170660  -0.011016  1.011673
O    1.033472  0.055994  1.412621
H    -0.197716  0.304030  -1.097674
H    -1.502586  -0.785001  -0.513018
H    0.202516  -1.328757  -0.587620
N    -1.172932  0.328241  1.862018
C    -2.305425  1.185692  1.520375
C    -1.807432  2.657482  1.613107
O    -0.666983  2.961357  2.085859
H    -0.866965  0.425507  2.831652
H    -2.574768  0.987887  0.471966
C    -3.523431  0.895876  2.420889
C    -4.080718  -0.521563  2.216626
C    -5.420197  -0.795524  2.917453
C    -5.340012  -0.895717  4.452625
N    -6.589699  -1.278370  5.027923
H    -4.308753  1.632552  2.194090
H    -3.238546  1.075340  3.470467
H    -3.334815  -1.268356  2.529980
H    -4.235991  -0.683354  1.138400
H    -5.814935  -1.745832  2.527723
H    -6.159149  -0.024126  2.653257
H    -5.029050  0.050450  4.918480
H    -4.551865  -1.640936  4.711009
H    -7.094146  -2.081922  4.663326
H    -6.829051  -1.000430  5.974199
N    -2.620152  3.611848  1.187162
C    -2.293570  5.042344  1.209538
H    -3.538272  3.344936  0.842524
H    -3.070403  5.581041  0.661207
H    -1.323803  5.213705  0.729672
H    -2.253427  5.410420  2.241897
Cd    1.362038  2.037953  2.372849
