34
Energy: -172327.138496 eV PBE+vdW (tier 2 basis)
C    -0.596124  -0.160293  -0.933899
C    -0.814576  -0.883382  0.356415
O    -0.285691  -2.018218  0.615913
H    -1.437485  0.484866  -1.207916
H    -0.429275  -0.872608  -1.749302
H    0.299905  0.471976  -0.836474
N    -1.562201  -0.343868  1.319137
C    -2.224399  0.965973  1.329080
C    -1.186108  2.110130  1.333593
O    -0.137968  1.991576  1.990143
H    -1.592377  -0.885082  2.182604
H    -2.861162  1.034740  0.436971
C    -3.133363  1.082556  2.575421
C    -2.442646  0.845190  3.941297
C    -2.574028  1.965803  4.967594
C    -1.774537  3.303497  4.632281
N    -0.376397  3.142710  4.575388
H    -3.964867  0.376178  2.442615
H    -3.598892  2.078705  2.541852
H    -1.377028  0.602358  3.808813
H    -2.887981  -0.045625  4.412531
H    -2.229359  1.618408  5.950100
H    -3.619485  2.291489  5.079431
H    -2.039625  4.023031  5.418148
H    -2.138836  3.668866  3.659760
H    0.061128  2.783381  3.719925
H    0.197122  3.250381  5.408010
N    -1.489216  3.230714  0.652542
C    -2.654026  3.502855  -0.192817
H    -0.774028  3.953667  0.708357
H    -2.666018  2.872333  -1.092561
H    -2.596766  4.544951  -0.520127
H    -3.595813  3.377287  0.355068
Cd    0.908989  -3.439015  -0.558602
