34
Energy: -172327.682961 eV PBE+vdW (tier 2 basis)
C    -0.289187  2.516540  -0.215494
C    -0.145364  1.655165  0.991604
O    0.942559  1.669907  1.648144
H    0.657726  2.481583  -0.771164
H    -0.426120  3.565927  0.087188
H    -1.110082  2.206984  -0.869072
N    -1.151949  0.838305  1.394012
C    -2.554340  1.231069  1.510958
C    -2.693892  2.036911  2.834256
O    -1.766761  2.084410  3.702240
H    -0.863465  0.149124  2.090710
H    -2.791520  1.904542  0.673782
C    -3.478930  -0.003992  1.460678
C    -3.408828  -0.738106  0.112961
C    -4.152854  -2.081201  0.068518
C    -5.689568  -1.971784  0.105904
N    -6.319833  -3.240211  -0.076691
H    -4.506309  0.325116  1.672964
H    -3.205969  -0.684240  2.285207
H    -2.354681  -0.938263  -0.129075
H    -3.782676  -0.076166  -0.685391
H    -3.826539  -2.731069  0.894505
H    -3.863814  -2.595340  -0.860354
H    -6.006388  -1.264391  -0.695545
H    -6.055689  -1.545969  1.051156
H    -7.237657  -3.420883  0.317053
H    -6.050317  -3.835039  -0.855598
N    -3.833421  2.676004  3.050954
C    -4.117594  3.465669  4.254897
H    -4.567339  2.603384  2.351862
H    -5.072828  3.977250  4.113180
H    -3.327797  4.208398  4.413136
H    -4.179073  2.814058  5.134808
Cd    0.471096  1.886592  3.813240
