34
Energy: -172327.30163 eV PBE+vdW (tier 2 basis)
C    1.466018  1.071376  1.660760
C    0.799949  0.333427  2.787686
O    1.413347  0.022578  3.821760
H    1.559397  2.129577  1.946405
H    0.926112  1.012028  0.709649
H    2.483917  0.686261  1.535404
N    -0.530281  0.045389  2.619854
C    -1.414476  -0.748650  3.468953
C    -1.583449  -0.222856  4.918806
O    -2.799848  -0.207754  5.311003
H    -0.953165  0.380374  1.758779
H    -2.413662  -0.600595  3.038468
C    -1.207473  -2.294300  3.448273
C    0.140088  -2.903042  3.888212
C    1.074140  -3.207563  2.712196
C    2.399657  -3.899237  3.223916
N    3.262014  -4.299646  2.175561
H    -1.444256  -2.609001  2.420527
H    -2.015511  -2.707888  4.069166
H    -0.081971  -3.843574  4.412946
H    0.654849  -2.264297  4.618510
H    1.362994  -2.301729  2.162981
H    0.586039  -3.887484  1.999679
H    2.105994  -4.785463  3.806625
H    2.924589  -3.187485  3.876548
H    3.143769  -5.191124  1.702560
H    3.980728  -3.683170  1.808732
N    -0.528242  0.127689  5.619069
C    -0.535861  0.644063  6.979939
H    0.378114  0.062710  5.085534
H    0.492888  0.894748  7.257314
H    -0.896399  -0.110654  7.695496
H    -1.132000  1.566127  7.057112
Cd    -3.876399  0.263380  7.171719
