34
Energy: -172327.969431 eV PBE+vdW (tier 2 basis)
C    -0.668449  -1.127158  -0.459163
C    -0.516567  -0.688567  0.964937
O    0.554193  -1.004685  1.564990
H    -1.630302  -0.850702  -0.903879
H    -0.550848  -2.218689  -0.502505
H    0.147766  -0.697118  -1.054943
N    -1.535580  0.001949  1.511071
C    -1.813461  0.405729  2.908944
C    -1.000421  1.643954  3.321439
O    0.252962  1.604626  3.549595
H    -2.302317  0.174566  0.867704
H    -2.865243  0.712706  2.880926
C    -1.709038  -0.727578  3.954015
C    -2.637941  -1.923087  3.687692
C    -4.125557  -1.695520  4.016459
C    -4.472478  -1.811018  5.509899
N    -4.268086  -3.142230  6.016011
H    -1.920149  -0.276894  4.936295
H    -0.672936  -1.101183  4.021251
H    -2.277212  -2.773010  4.284572
H    -2.538226  -2.237231  2.638607
H    -4.724166  -2.432353  3.460138
H    -4.478207  -0.714499  3.659988
H    -5.529393  -1.493289  5.638545
H    -3.878069  -1.118109  6.124446
H    -4.195866  -3.257980  7.023235
H    -4.779713  -3.898511  5.565862
N    -1.621633  2.804172  3.482620
C    -3.038374  3.134220  3.284823
H    -1.010142  3.563488  3.786043
H    -3.360842  2.914791  2.260090
H    -3.153765  4.209253  3.448631
H    -3.676418  2.610919  4.007636
Cd    1.582064  -0.075037  3.225835
