34
Energy: -172327.821518 eV PBE+vdW (tier 2 basis)
C    -0.877903  -2.328164  2.242060
C    -0.507813  -0.984500  2.752371
O    0.621560  -0.820371  3.333648
H    -0.170937  -2.654533  1.466303
H    -1.908236  -2.380047  1.879909
H    -0.756751  -3.038397  3.075918
N    -1.340541  0.081631  2.642150
C    -2.074245  0.532544  1.455150
C    -1.067854  1.186584  0.478556
O    0.067750  1.693712  0.871886
H    -1.178042  0.818096  3.333309
H    -2.522080  -0.339949  0.960214
C    -3.180945  1.514125  1.912168
C    -4.145485  2.015428  0.834034
C    -5.059982  0.938072  0.199535
C    -5.006216  0.893552  -1.325699
N    -3.722763  0.326413  -1.823123
H    -2.694107  2.380922  2.390044
H    -3.744799  0.992492  2.700867
H    -3.589294  2.555593  0.053825
H    -4.768961  2.783367  1.309646
H    -6.101383  1.124490  0.491043
H    -4.834924  -0.066256  0.598313
H    -5.105688  1.905858  -1.739857
H    -5.851323  0.304210  -1.714571
H    -3.721775  -0.690621  -1.703504
H    -3.637187  0.484214  -2.831036
N    -1.413803  1.297803  -0.773614
C    -0.578851  1.941486  -1.789890
H    -2.391410  0.903404  -1.130958
H    -0.493042  3.017990  -1.594731
H    0.427009  1.505843  -1.805951
H    -1.053491  1.791959  -2.763827
Cd    1.311583  1.064860  2.478100
