34
Energy: -172327.250644 eV PBE+vdW (tier 2 basis)
C    -0.465800  0.287111  -0.203325
C    -0.319603  0.079242  1.275861
O    0.784404  -0.147204  1.801817
H    0.285645  1.012718  -0.536598
H    -1.463324  0.621641  -0.506923
H    -0.242854  -0.661399  -0.712099
N    -1.466287  0.150234  2.024009
C    -1.665882  -0.231363  3.417842
C    -0.830183  0.574810  4.451136
O    -1.500943  0.904061  5.487704
H    -2.315479  0.387033  1.518326
H    -2.688028  0.092931  3.649547
C    -1.677071  -1.772628  3.699675
C    -0.560983  -2.689465  3.194242
C    0.741744  -2.721500  4.007168
C    1.730950  -3.760184  3.441430
N    1.281133  -5.105526  3.565628
H    -2.612427  -2.115483  3.232635
H    -1.823306  -1.895557  4.784038
H    -0.340400  -2.482786  2.137156
H    -0.976420  -3.711798  3.201706
H    0.529256  -2.956138  5.062678
H    1.256398  -1.753112  3.991153
H    2.690652  -3.635243  3.997044
H    1.965803  -3.561573  2.386749
H    0.991509  -5.469807  4.470317
H    1.536267  -5.803263  2.872052
N    0.431559  0.850460  4.213188
C    1.315266  1.624669  5.070794
H    0.779414  0.471771  3.289907
H    2.284225  1.718292  4.570059
H    1.483083  1.124726  6.036391
H    0.931780  2.645463  5.227739
Cd    -1.165990  2.111949  7.295879
