34
Energy: -172329.410321 eV PBE+vdW (tier 2 basis)
C    0.087773  -0.258699  0.385660
C    -0.018137  -0.251285  1.882650
O    1.021633  -0.554455  2.534487
H    -0.861462  -0.075828  -0.128576
H    0.498134  -1.223268  0.061537
H    0.811141  0.512596  0.085915
N    -1.227385  0.084098  2.388965
C    -1.810402  0.285869  3.744142
C    -0.985295  1.276083  4.594432
O    0.231160  1.094255  4.915527
H    -1.905611  0.271308  1.656128
H    -2.758038  0.786853  3.520209
C    -2.207662  -1.023723  4.499275
C    -0.966408  -1.771723  4.967678
C    -0.912426  -3.052267  5.793597
C    0.544012  -3.565871  5.792910
N    1.604577  -2.496495  6.037831
H    -2.823813  -1.629410  3.820423
H    -2.847210  -0.742058  5.348754
H    -0.457782  -1.026636  5.601380
H    -0.389295  -1.982329  4.045686
H    -1.535398  -3.852271  5.371335
H    -1.269216  -2.875430  6.817677
H    0.784484  -4.006512  4.816382
H    0.677216  -4.346497  6.553371
H    1.535858  -2.160357  7.005627
H    2.522934  -2.948802  5.978434
N    -1.595129  2.374047  5.030861
C    -2.965207  2.842639  4.788674
H    -0.997967  2.973629  5.601277
H    -3.138034  3.040160  3.723323
H    -3.093971  3.784324  5.329445
H    -3.707437  2.131171  5.170343
Cd    1.465018  -0.723298  4.631929
