34
Energy: -172327.242638 eV PBE+vdW (tier 2 basis)
C    -1.272945  -1.351914  1.244492
C    -1.905974  -1.660073  2.567775
O    -2.139149  -2.906433  2.790421
H    -0.750534  -0.389410  1.245466
H    -2.059066  -1.327316  0.475697
H    -0.577256  -2.153463  0.976145
N    -2.231633  -0.715639  3.429798
C    -1.953483  0.722802  3.414973
C    -2.051693  1.087564  4.925805
O    -2.588885  0.281503  5.696602
H    -2.625639  -0.947790  4.365420
H    -0.928625  0.895537  3.055522
C    -2.945921  1.540697  2.544008
C    -4.396112  1.511866  3.029199
C    -5.416270  2.179293  2.089102
C    -5.369871  3.720839  2.060085
N    -4.282653  4.273646  1.318954
H    -2.880900  1.158511  1.513344
H    -2.570395  2.575053  2.502768
H    -4.472849  1.960393  4.032080
H    -4.722790  0.465931  3.148464
H    -6.426532  1.903993  2.419126
H    -5.316632  1.789457  1.063494
H    -5.366660  4.150685  3.071650
H    -6.333178  4.046734  1.597980
H    -4.161957  3.996753  0.346606
H    -3.968810  5.218250  1.529098
N    -1.567672  2.283989  5.296629
C    -1.585197  2.761537  6.676758
H    -1.064180  2.838483  4.610313
H    -1.798727  3.835881  6.687936
H    -0.614269  2.587225  7.161049
H    -2.358330  2.219485  7.228232
Cd    -2.613797  -4.105695  4.526352
