34
Energy: -172327.108593 eV PBE+vdW (tier 2 basis)
C    0.162525  -0.483546  0.277333
C    0.139877  0.036645  1.679630
O    1.213309  0.115392  2.386469
H    0.853999  0.125298  -0.322151
H    -0.814243  -0.476401  -0.213306
H    0.535739  -1.517342  0.283146
N    -0.972614  0.440275  2.269933
C    -2.359568  0.459107  1.782557
C    -3.010686  1.571004  2.643354
O    -2.595814  1.757193  3.785319
H    -0.901439  0.792801  3.235878
H    -2.369722  0.730660  0.718883
C    -3.017041  -0.928531  1.992883
C    -4.471381  -1.091464  1.507374
C    -5.536346  -0.803257  2.574793
C    -6.975672  -0.815210  1.992661
N    -7.316472  0.392892  1.278433
H    -2.934130  -1.189702  3.058462
H    -2.387720  -1.650264  1.451943
H    -4.596343  -2.132979  1.179418
H    -4.639953  -0.484284  0.605540
H    -5.366691  0.153773  3.089458
H    -5.495785  -1.576536  3.354615
H    -7.672331  -0.936966  2.842290
H    -7.104132  -1.674747  1.323677
H    -7.753695  0.299773  0.364038
H    -7.710631  1.155690  1.825858
N    -4.018689  2.336834  2.134894
C    -4.676900  2.294252  0.856075
H    -4.346207  3.029134  2.810123
H    -5.007524  3.302235  0.580170
H    -5.587064  1.637536  0.893179
H    -4.021724  1.906257  0.069007
Cd    3.298171  -0.285206  1.959675
