34
Energy: -172326.960162 eV PBE+vdW (tier 2 basis)
C    1.348534  -0.217868  0.926423
C    0.412906  -0.847401  1.916496
O    0.771745  -1.997809  2.365558
H    0.811543  0.368881  0.173508
H    1.942240  -0.995270  0.436921
H    2.041644  0.445325  1.465974
N    -0.693575  -0.244167  2.303260
C    -1.220122  1.086295  1.964952
C    -1.983484  1.467035  3.266752
O    -2.457524  0.537393  3.932912
H    -1.303404  -0.654159  3.033472
H    -0.389194  1.770602  1.757663
C    -2.205328  0.973052  0.769575
C    -2.977886  2.241102  0.391220
C    -2.222494  3.298592  -0.426197
C    -2.347573  3.094877  -1.975645
N    -1.672626  1.946447  -2.482794
H    -2.924496  0.181914  1.028491
H    -1.640967  0.600500  -0.102800
H    -3.374887  2.718907  1.301179
H    -3.879438  1.934157  -0.159109
H    -1.155255  3.352134  -0.162053
H    -2.639958  4.296865  -0.236703
H    -1.917156  4.008417  -2.430570
H    -3.408102  3.041053  -2.247681
H    -2.176278  1.272902  -3.052512
H    -0.673829  1.996734  -2.663785
N    -2.146341  2.757410  3.618951
C    -1.555181  3.968071  3.066991
H    -2.726472  2.868586  4.451527
H    -0.805328  3.729216  2.308966
H    -1.062389  4.531605  3.869688
H    -2.323280  4.612570  2.617621
Cd    0.133662  -3.318441  3.963995
