34
Energy: -172327.449109 eV PBE+vdW (tier 2 basis)
C    -1.526880  -1.239744  -0.350527
C    -0.998897  -0.933794  1.004183
O    0.177670  -1.323603  1.323442
H    -0.833895  -0.889378  -1.126168
H    -2.531910  -0.837734  -0.510518
H    -1.564030  -2.337403  -0.444724
N    -1.744635  -0.278090  1.921382
C    -2.509075  0.949869  1.686081
C    -1.492174  2.103806  1.590846
O    -0.305778  2.005739  2.084282
H    -1.408366  -0.377315  2.881859
H    -3.079622  0.846787  0.746089
C    -3.493213  1.190740  2.852414
C    -4.519033  0.071607  3.101743
C    -5.770430  0.010603  2.206146
C    -5.629764  -0.598440  0.809195
N    -5.088215  0.321491  -0.192182
H    -4.013524  2.142909  2.678874
H    -2.898442  1.343959  3.768416
H    -4.871104  0.214231  4.133199
H    -4.019471  -0.910671  3.103405
H    -6.233756  1.008811  2.131125
H    -6.508159  -0.604118  2.740408
H    -6.630891  -0.951771  0.490346
H    -4.995194  -1.498439  0.834366
H    -5.023680  -0.102600  -1.119090
H    -5.654723  1.168156  -0.275987
N    -1.833356  3.261321  1.051518
C    -3.118389  3.671080  0.484133
H    -1.103612  3.975497  1.090942
H    -2.925450  4.271013  -0.411901
H    -3.678536  4.281452  1.204422
H    -3.709334  2.796257  0.200780
Cd    1.152129  0.405330  2.243868
