34
Energy: -172329.181095 eV PBE+vdW (tier 2 basis)
C    0.330111  -0.169543  1.046152
C    -0.207857  -0.026475  2.419542
O    0.568527  -0.099551  3.429327
H    1.084084  0.605392  0.849565
H    -0.445224  -0.168042  0.275083
H    0.868829  -1.130374  1.003548
N    -1.537927  0.174779  2.641485
C    -2.367417  1.206650  2.000446
C    -1.549254  2.508113  1.930114
O    -0.675598  2.764647  2.818618
H    -1.838225  -0.094126  3.575988
H    -2.667132  0.879277  0.996215
C    -3.655467  1.448443  2.841433
C    -3.512221  2.213056  4.179263
C    -3.077444  1.395188  5.418775
C    -2.442981  2.184921  6.560677
N    -1.069580  2.737130  6.217623
H    -4.140654  0.471635  2.992704
H    -4.342159  2.014504  2.198848
H    -4.494790  2.646750  4.408915
H    -2.852860  3.081830  4.030553
H    -2.374154  0.571228  5.177871
H    -3.948933  0.862955  5.827407
H    -2.309774  1.532180  7.430887
H    -3.077836  3.027765  6.867874
H    -1.156598  3.686175  5.838317
H    -0.521252  2.837703  7.078323
N    -1.790385  3.384833  0.965449
C    -2.741907  3.284816  -0.147832
H    -1.244098  4.244071  1.031190
H    -3.768763  3.480629  0.185033
H    -2.688645  2.301479  -0.628161
H    -2.469949  4.038340  -0.892130
Cd    -0.041737  1.588729  4.639267
