34
Energy: -172327.135308 eV PBE+vdW (tier 2 basis)
C    -0.520467  -1.234368  -0.623007
C    -0.227164  -0.124018  0.327606
O    0.427383  0.917040  -0.031042
H    -1.165152  -0.854478  -1.427802
H    -0.974203  -2.105758  -0.144127
H    0.423800  -1.556212  -1.086843
N    -0.641969  -0.117756  1.602532
C    -1.604618  -0.962307  2.337561
C    -0.988471  -2.375368  2.607565
O    -1.081658  -3.256637  1.753177
H    -0.311476  0.702456  2.112750
H    -1.721341  -0.440208  3.297954
C    -2.999043  -1.095583  1.695509
C    -4.020401  -1.595233  2.720889
C    -5.453176  -1.782786  2.199741
C    -5.652019  -3.037213  1.314934
N    -5.154364  -2.908052  -0.015350
H    -2.939551  -1.794218  0.846651
H    -3.303619  -0.112087  1.307861
H    -4.080935  -0.867360  3.548231
H    -3.674603  -2.538684  3.173608
H    -5.797901  -0.888650  1.657518
H    -6.127155  -1.896584  3.058757
H    -6.753408  -3.209437  1.282277
H    -5.211323  -3.931046  1.775414
H    -5.548704  -2.187358  -0.616125
H    -4.819715  -3.734797  -0.503344
N    -0.377174  -2.527337  3.796624
C    0.198618  -3.797200  4.234035
H    -0.425914  -1.770811  4.471730
H    1.061778  -3.594550  4.876501
H    0.510867  -4.365982  3.352810
H    -0.534197  -4.391240  4.796895
Cd    2.043463  1.208257  -1.505481
