34
Energy: -172327.462477 eV PBE+vdW (tier 2 basis)
C    0.012988  0.311196  0.190285
C    0.008437  0.276109  1.690861
O    1.058071  0.263079  2.351427
H    0.523394  1.226972  -0.136694
H    -0.983863  0.271545  -0.260761
H    0.611365  -0.532157  -0.177948
N    -1.224761  0.265604  2.301001
C    -1.537710  0.068616  3.707572
C    -0.938910  1.125177  4.671713
O    -1.798587  1.603635  5.486761
H    -2.029494  0.304265  1.681658
H    -2.618211  0.250360  3.781768
C    -1.366031  -1.392389  4.257516
C    0.015371  -2.047302  4.223660
C    -0.104068  -3.493300  4.737896
C    1.295395  -4.223416  4.686575
N    1.219288  -5.564017  5.133516
H    -2.076150  -1.997062  3.672904
H    -1.758258  -1.373634  5.286454
H    0.735041  -1.491917  4.842918
H    0.418665  -2.058818  3.203015
H    -0.810165  -4.069223  4.123080
H    -0.471591  -3.519536  5.773721
H    1.997488  -3.666213  5.323416
H    1.653435  -4.205135  3.647434
H    1.276428  -5.798670  6.120274
H    0.955752  -6.317566  4.504990
N    0.337896  1.427168  4.602750
C    1.030482  2.413669  5.418431
H    0.840256  0.954651  3.803598
H    2.068014  2.474572  5.075153
H    1.045642  2.120384  6.478431
H    0.587160  3.415307  5.302940
Cd    -1.807838  3.106840  7.109152
