34
Energy: -172327.110966 eV PBE+vdW (tier 2 basis)
C    -0.819807  1.558923  -0.547280
C    -0.360716  1.252031  0.846249
O    0.881826  1.494293  1.079488
H    -0.232331  2.388328  -0.952699
H    -1.887019  1.804187  -0.587424
H    -0.636576  0.679091  -1.181715
N    -1.169683  0.743669  1.757080
C    -2.612990  0.485359  1.698769
C    -3.004853  0.439943  3.198815
O    -2.122980  0.283226  4.050169
H    -0.846387  0.566976  2.727344
H    -3.115079  1.339115  1.219510
C    -2.982393  -0.805686  0.922833
C    -2.338335  -2.113841  1.402465
C    -2.990816  -2.867176  2.575026
C    -4.363051  -3.492620  2.227944
N    -5.458009  -2.576315  2.274069
H    -2.712499  -0.640027  -0.129701
H    -4.081283  -0.889705  0.928427
H    -1.286448  -1.933216  1.681345
H    -2.283299  -2.795830  0.541118
H    -3.087373  -2.242195  3.474390
H    -2.328273  -3.695673  2.857991
H    -4.531166  -4.300442  2.978254
H    -4.348679  -3.982614  1.245584
H    -6.262560  -2.734732  1.671416
H    -5.676258  -2.131906  3.162708
N    -4.318030  0.546816  3.487023
C    -4.818814  0.569920  4.859906
H    -4.955782  0.813103  2.742512
H    -4.238519  -0.128747  5.471192
H    -5.876355  0.286530  4.863504
H    -4.723034  1.573042  5.298945
Cd    2.178966  1.587310  2.802324
