34
Energy: -172328.435433 eV PBE+vdW (tier 2 basis)
C    2.323978  1.473184  2.094216
C    1.288869  1.459926  3.195232
O    1.099591  2.671031  3.676083
H    2.821858  0.501330  2.005530
H    3.082815  2.235289  2.297239
H    1.846435  1.738915  1.139751
N    0.709410  0.323755  3.504963
C    -0.437568  0.240383  4.417804
C    -0.030490  0.151733  5.910297
O    0.053393  1.207452  6.641914
H    0.949228  -0.869070  2.317371
H    -1.047997  1.171373  4.372811
C    -1.409847  -0.875446  3.972605
C    -0.797810  -2.282885  3.758910
C    -0.999248  -2.875871  2.352868
C    -0.463978  -2.027077  1.204052
N    0.950284  -1.571943  1.473687
H    -1.870272  -0.516906  3.041530
H    -2.234570  -0.922673  4.696739
H    -1.237673  -2.994149  4.471392
H    0.284283  -2.268810  3.974208
H    -2.069376  -3.039380  2.160032
H    -0.535510  -3.873312  2.319876
H    -1.045864  -1.109140  1.052741
H    -0.474105  -2.587378  0.262222
H    1.566446  -2.366796  1.683809
H    1.342513  -1.094903  0.653971
N    0.217073  -1.011642  6.477103
C    0.604392  -1.177554  7.883528
H    0.102559  -1.847193  5.911471
H    1.462535  -0.537181  8.114989
H    0.873430  -2.224389  8.044168
H    -0.230191  -0.909242  8.542728
Cd    0.159408  2.988568  5.495158
