34
Energy: -172327.619384 eV PBE+vdW (tier 2 basis)
C    0.129527  0.613412  -0.127405
C    0.011154  -0.010173  1.220151
O    1.025696  -0.563503  1.748739
H    0.682377  1.562418  -0.053965
H    -0.837733  0.780190  -0.610422
H    0.743950  -0.047989  -0.753514
N    -1.169815  -0.013768  1.891009
C    -2.038833  1.149728  2.065729
C    -1.340357  2.082094  3.092389
O    -0.465224  1.648244  3.907843
H    -1.183937  -0.654416  2.686380
H    -2.113887  1.677169  1.103696
C    -3.445919  0.678503  2.501797
C    -4.528314  1.769260  2.527812
C    -5.967940  1.228198  2.541091
C    -6.374801  0.502335  3.837427
N    -7.754922  0.134894  3.829248
H    -3.363954  0.185775  3.484061
H    -3.732705  -0.100091  1.778714
H    -4.434868  2.391518  1.622562
H    -4.384583  2.438616  3.390541
H    -6.125646  0.547157  1.691680
H    -6.649810  2.077965  2.387466
H    -6.158165  1.176172  4.698871
H    -5.783802  -0.409012  4.007203
H    -8.077387  -0.669030  4.358056
H    -8.465363  0.823557  3.597035
N    -1.695113  3.358112  3.117324
C    -1.143600  4.350204  4.046280
H    -2.423131  3.664827  2.477656
H    -0.049810  4.293721  4.047606
H    -1.510394  4.171323  5.064557
H    -1.455885  5.343900  3.715283
Cd    1.208234  0.145840  3.852003
