34
Energy: -172328.018003 eV PBE+vdW (tier 2 basis)
C    0.415468  1.592452  0.977615
C    -0.035318  0.461194  1.847697
O    0.335328  -0.714024  1.553544
H    0.011142  2.565843  1.273946
H    0.114371  1.376603  -0.056826
H    1.512947  1.634137  0.984873
N    -0.839321  0.759028  2.885533
C    -1.608444  -0.098726  3.813480
C    -0.740481  -0.603934  4.974739
O    0.371568  -1.191139  4.787767
H    -1.031387  1.751389  2.990748
H    -2.324109  0.611005  4.241682
C    -2.483908  -1.209215  3.132726
C    -2.119317  -2.694876  3.244205
C    -3.141349  -3.638944  2.601956
C    -4.529507  -3.670581  3.349279
N    -5.426562  -4.623985  2.798213
H    -2.606319  -0.929579  2.077662
H    -3.481850  -1.104066  3.582564
H    -1.940991  -2.988031  4.290359
H    -1.163638  -2.933332  2.682004
H    -2.741458  -4.661148  2.609203
H    -3.310928  -3.364371  1.550883
H    -4.995313  -2.675424  3.291956
H    -4.358660  -3.908992  4.408576
H    -5.340775  -5.603670  3.048502
H    -5.864675  -4.446686  1.900043
N    -1.163258  -0.422737  6.220451
C    -2.348466  0.298130  6.701127
H    -0.529310  -0.794523  6.929237
H    -2.254744  1.378677  6.532726
H    -2.427453  0.128969  7.778653
H    -3.264766  -0.081328  6.234418
Cd    0.892681  -2.267180  2.960706
