34
Energy: -172327.259958 eV PBE+vdW (tier 2 basis)
C    -0.129762  1.432013  0.021179
C    -0.190676  0.944026  1.435667
O    0.784123  1.094006  2.265359
H    0.025804  2.520973  0.013553
H    -1.043446  1.214772  -0.541644
H    0.714207  0.953584  -0.496345
N    -1.281926  0.328104  1.849069
C    -1.515614  -0.252575  3.179386
C    -2.431173  -1.458117  2.871695
O    -3.241010  -1.315375  1.944889
H    -2.059299  0.142098  1.201536
H    -0.547442  -0.552049  3.599314
C    -2.203479  0.803045  4.083442
C    -2.612321  0.373687  5.506048
C    -4.010477  -0.253210  5.607021
C    -4.441239  -0.446484  7.087731
N    -5.768955  -0.929145  7.224033
H    -3.080847  1.187778  3.542204
H    -1.496138  1.640414  4.161612
H    -2.595054  1.281186  6.127196
H    -1.855138  -0.293656  5.945441
H    -4.067926  -1.232352  5.111744
H    -4.742058  0.399053  5.105897
H    -4.358133  0.551903  7.575982
H    -3.761147  -1.117461  7.627792
H    -6.550484  -0.439590  6.795597
H    -6.002883  -1.670117  7.877732
N    -2.350178  -2.594171  3.588234
C    -1.444568  -2.960755  4.669523
H    -3.017533  -3.303575  3.285512
H    -1.064149  -3.973693  4.492931
H    -1.957838  -2.947848  5.641124
H    -0.589908  -2.280508  4.715283
Cd    2.667873  2.144720  1.875516
