34
Energy: -172327.957681 eV PBE+vdW (tier 2 basis)
C    0.052285  -0.457365  -0.118969
C    -0.157470  -0.323532  1.355420
O    0.788636  0.143678  2.056942
H    0.261252  0.537740  -0.535857
H    -0.807422  -0.892225  -0.639972
H    0.943001  -1.072511  -0.301715
N    -1.347272  -0.698010  1.864397
C    -1.804505  -0.483231  3.240258
C    -1.173185  -1.509761  4.213484
O    -0.229335  -1.124248  4.985652
H    -2.037080  -1.034202  1.196732
H    -1.386172  0.480158  3.574142
C    -3.339947  -0.356102  3.286837
C    -3.922718  -0.152344  4.696160
C    -3.783204  1.265881  5.280107
C    -4.804695  2.278416  4.732361
N    -6.151431  1.956448  5.116614
H    -3.798132  -1.239987  2.823552
H    -3.601331  0.492458  2.635890
H    -3.474356  -0.875012  5.395422
H    -4.991332  -0.407572  4.659195
H    -2.775180  1.677218  5.113314
H    -3.895781  1.212534  6.373139
H    -4.769667  2.345339  3.634884
H    -4.517170  3.285696  5.103607
H    -6.913381  2.346945  4.569198
H    -6.360382  1.888808  6.110380
N    -1.559640  -2.773901  4.296707
C    -2.627788  -3.494604  3.599879
H    -1.034898  -3.309091  4.990767
H    -2.405468  -4.563617  3.669707
H    -2.660975  -3.226154  2.539873
H    -3.603142  -3.311388  4.067956
Cd    1.259888  0.262633  4.189612
