34
Energy: -172328.273631 eV PBE+vdW (tier 2 basis)
C    -2.119138  -0.918147  0.870706
C    -1.262912  -0.584732  2.054561
O    -0.005988  -0.449319  1.787808
H    -3.168233  -1.064935  1.145147
H    -1.725202  -1.816604  0.378200
H    -2.051096  -0.099104  0.141514
N    -1.864531  -0.442596  3.227817
C    -1.318132  -0.326768  4.597773
C    -0.578666  0.992302  4.911999
O    0.660183  1.202741  4.659944
H    -2.850630  -0.926718  3.305318
H    -2.224041  -0.277796  5.214159
C    -0.557331  -1.588513  5.061719
C    -1.236155  -2.918360  4.691242
C    -2.560992  -3.286136  5.392884
C    -3.801901  -2.399157  5.220114
N    -4.043320  -1.953386  3.818254
H    -0.393137  -1.510582  6.147043
H    0.470587  -1.624041  4.626339
H    -0.521153  -3.715863  4.936002
H    -1.359178  -2.973379  3.599321
H    -2.388853  -3.391068  6.474368
H    -2.809916  -4.300144  5.043551
H    -3.739010  -1.495820  5.844983
H    -4.666267  -2.961220  5.606419
H    -4.121428  -2.772260  3.207512
H    -4.954961  -1.490949  3.764067
N    -1.259744  1.933230  5.537690
C    -0.704465  3.229926  5.943668
H    -2.227279  1.738395  5.781887
H    -0.074566  3.110225  6.834370
H    -1.534802  3.902872  6.172726
H    -0.101607  3.646958  5.130526
Cd    1.515864  -0.029053  3.160370
