34
Energy: -172327.139669 eV PBE+vdW (tier 2 basis)
C    -1.113010  2.768731  -0.212591
C    -0.991583  1.964306  1.046049
O    -0.064413  2.346959  1.854877
H    -0.948060  3.827570  0.013112
H    -2.084066  2.638439  -0.701135
H    -0.320675  2.455052  -0.907750
N    -1.756037  0.919519  1.295285
C    -2.925231  0.399456  0.579682
C    -3.662993  -0.382065  1.705229
O    -3.026377  -0.660681  2.733156
H    -1.692441  0.397756  2.196344
H    -3.540712  1.237956  0.226749
C    -2.553373  -0.510276  -0.623817
C    -1.846482  -1.813619  -0.246307
C    -1.294557  -2.630033  -1.428475
C    -2.359272  -3.336248  -2.292813
N    -3.062896  -2.480254  -3.191904
H    -1.921055  0.082071  -1.303237
H    -3.479029  -0.718739  -1.181601
H    -2.512059  -2.448704  0.359012
H    -0.983916  -1.590820  0.402963
H    -0.641312  -3.418072  -1.031591
H    -0.656307  -2.003849  -2.072185
H    -3.087354  -3.887255  -1.680719
H    -1.810946  -4.113613  -2.878398
H    -2.528471  -1.915414  -3.849170
H    -3.980762  -2.761310  -3.528763
N    -4.941217  -0.754572  1.526961
C    -5.856745  -0.438799  0.438040
H    -5.315310  -1.294816  2.306744
H    -5.526790  0.447081  -0.113072
H    -6.847268  -0.224187  0.854868
H    -5.953132  -1.283074  -0.259306
Cd    0.414486  1.952244  3.924256
