34
Energy: -172328.148835 eV PBE+vdW (tier 2 basis)
C    -1.225076  -0.541166  -0.207615
C    -0.294063  -0.459230  0.962929
O    0.848768  -0.990925  0.843174
H    -2.191908  -0.057000  -0.034165
H    -1.391340  -1.600991  -0.445722
H    -0.739933  -0.090747  -1.083376
N    -0.744324  0.167995  2.067119
C    -0.179479  0.275103  3.433163
C    0.958791  1.318469  3.493427
O    2.132579  1.082910  3.070654
H    -1.678702  0.554688  1.969417
H    -1.011961  0.681162  4.023067
C    0.198037  -1.074445  4.076236
C    0.343489  -1.031446  5.604923
C    -0.988019  -0.918072  6.360482
C    -0.788379  -1.053708  7.891528
N    -2.025908  -0.955202  8.603856
H    1.148811  -1.461752  3.654585
H    -0.561448  -1.812080  3.779303
H    1.023771  -0.216201  5.901938
H    0.846399  -1.960561  5.910833
H    -1.675905  -1.708206  6.021290
H    -1.491711  0.042896  6.172547
H    -0.111116  -0.272402  8.260225
H    -0.293301  -2.027321  8.085432
H    -2.702121  -1.709660  8.528878
H    -2.055099  -0.448921  9.482507
N    0.664186  2.496426  4.025077
C    1.592537  3.621964  4.160276
H    -0.283964  2.637457  4.363967
H    1.752633  3.842887  5.222453
H    1.165594  4.504573  3.669966
H    2.543985  3.362272  3.692025
Cd    2.698507  -0.691690  1.929979
