34
Energy: -172328.261064 eV PBE+vdW (tier 2 basis)
C    -0.911163  1.925893  1.224949
C    -0.930405  0.458494  1.514018
O    0.081641  -0.232117  1.190599
H    -1.831084  2.439127  1.524693
H    -0.733250  2.081291  0.153050
H    -0.060238  2.374011  1.757258
N    -2.017785  -0.050365  2.124161
C    -2.160602  -1.393917  2.708320
C    -2.630021  -2.387209  1.623056
O    -1.793322  -2.970857  0.862651
H    -2.766654  0.609109  2.322182
H    -1.152748  -1.730570  3.000780
C    -3.016849  -1.318794  3.983626
C    -3.034296  -2.611445  4.813264
C    -3.816906  -2.438198  6.122357
C    -3.782830  -3.703696  6.999411
N    -4.509839  -3.535582  8.220313
H    -4.046074  -0.998426  3.740650
H    -2.597506  -0.504834  4.594566
H    -1.996341  -2.901046  5.044281
H    -3.463353  -3.442556  4.231018
H    -4.864518  -2.177274  5.901417
H    -3.400489  -1.603636  6.705538
H    -2.748420  -3.976615  7.251460
H    -4.192869  -4.556151  6.412311
H    -5.487809  -3.261682  8.192627
H    -4.232745  -4.058546  9.044868
N    -3.922739  -2.613576  1.465114
C    -4.480760  -3.493231  0.431753
H    -4.566756  -2.170859  2.114025
H    -5.568124  -3.384606  0.436409
H    -4.215598  -4.537886  0.635782
H    -4.087903  -3.212387  -0.551550
Cd    0.295350  -2.334861  0.644043
