34
Energy: -172329.094529 eV PBE+vdW (tier 2 basis)
C    -0.317458  -0.240812  -0.085690
C    -0.255368  0.085013  1.358380
O    0.633683  -0.452263  2.102685
H    -0.309402  -1.324466  -0.254467
H    0.615786  0.145317  -0.532946
H    -1.152762  0.245416  -0.596168
N    -1.068269  1.023974  1.925337
C    -2.539599  1.047462  2.068408
C    -2.756880  1.192636  3.591184
O    -1.968134  0.626185  4.412596
H    -0.616289  1.419395  2.751747
H    -2.949266  1.930290  1.555530
C    -3.280959  -0.203868  1.522884
C    -2.893192  -1.598908  2.057622
C    -3.506528  -2.061052  3.399080
C    -2.698412  -3.160658  4.095305
N    -1.518978  -2.633358  4.894168
H    -3.168682  -0.197579  0.431079
H    -4.353962  -0.031693  1.694325
H    -1.790191  -1.708018  2.074251
H    -3.182155  -2.330766  1.290082
H    -4.508287  -2.466194  3.202761
H    -3.664878  -1.229502  4.100604
H    -2.296576  -3.876410  3.366666
H    -3.332967  -3.722206  4.793676
H    -0.901376  -3.415837  5.135938
H    -1.864210  -2.269732  5.789402
N    -3.794075  1.908778  3.991019
C    -4.192642  2.130021  5.383158
H    -4.346739  2.373904  3.273481
H    -4.251915  3.207718  5.574199
H    -3.448620  1.682853  6.045670
H    -5.176531  1.680524  5.565006
Cd    -0.422042  -0.962540  3.942301
