34
Energy: -172329.263303 eV PBE+vdW (tier 2 basis)
C    0.022972  -0.829361  0.385580
C    0.117858  0.066555  1.560274
O    1.254013  0.435110  2.007940
H    0.678872  -0.485924  -0.423151
H    -1.005026  -0.971996  0.038988
H    0.407374  -1.815357  0.701499
N    -1.001474  0.492017  2.216483
C    -2.137612  1.208779  1.620421
C    -1.611705  2.141515  0.513843
O    -0.472011  2.688724  0.617502
H    -0.804972  0.765133  3.179622
H    -2.867075  0.501217  1.200373
C    -2.847810  2.011100  2.752914
C    -1.987833  2.948282  3.628485
C    -1.691009  4.373398  3.112755
C    -0.454653  5.002110  3.762938
N    0.856258  4.610432  3.095058
H    -3.324383  1.262553  3.401707
H    -3.671379  2.579088  2.298372
H    -1.035888  2.448641  3.916995
H    -2.496448  3.040334  4.598343
H    -2.548742  5.016988  3.350175
H    -1.590580  4.415975  2.018988
H    -0.372778  4.711639  4.818048
H    -0.509699  6.097911  3.725600
H    0.993269  5.212973  2.275289
H    1.632156  4.834141  3.727995
N    -2.410560  2.363195  -0.519621
C    -2.125267  3.266718  -1.636354
H    -3.297505  1.864408  -0.543823
H    -2.238050  2.722702  -2.581008
H    -1.101300  3.635512  -1.545929
H    -2.827174  4.109624  -1.624101
Cd    1.005823  2.558339  2.323636
