34
Energy: -172327.434761 eV PBE+vdW (tier 2 basis)
C    -0.198352  0.221213  1.871461
C    -1.315095  0.385504  2.846093
O    -1.048668  0.637432  4.063022
H    -0.389877  0.748512  0.931973
H    -0.061566  -0.848269  1.640138
H    0.728619  0.580527  2.328623
N    -2.615783  0.263714  2.471607
C    -3.171669  -0.798568  1.610331
C    -2.779838  -2.162335  2.247958
O    -2.482105  -2.256358  3.482415
H    -3.258664  0.584878  3.194445
H    -4.260162  -0.728075  1.771611
C    -2.950601  -0.650353  0.093793
C    -3.576775  0.608907  -0.542697
C    -2.729861  1.887208  -0.504416
C    -3.425662  3.038299  -1.266172
N    -2.633214  4.226135  -1.321884
H    -3.448979  -1.508732  -0.381550
H    -1.886673  -0.737609  -0.165760
H    -4.562334  0.795973  -0.086314
H    -3.783383  0.364343  -1.594766
H    -1.749604  1.696529  -0.971089
H    -2.544284  2.226151  0.524544
H    -4.391631  3.285845  -0.806184
H    -3.652732  2.678691  -2.294902
H    -1.722222  4.204393  -1.772397
H    -3.086418  5.134884  -1.313173
N    -2.812993  -3.255821  1.504857
C    -2.564992  -4.606029  2.023919
H    -3.041092  -3.161741  0.520030
H    -2.707854  -5.318521  1.207859
H    -3.265934  -4.834041  2.835058
H    -1.539103  -4.687082  2.401936
Cd    -1.946882  -1.014241  5.258379
