34
Energy: -172328.43348 eV PBE+vdW (tier 2 basis)
C    -0.821070  -0.751198  -0.227206
C    -1.117431  -0.814919  1.235308
O    -1.376461  -1.966944  1.731610
H    -0.635722  0.266948  -0.585256
H    -1.648426  -1.201437  -0.790343
H    0.069372  -1.366163  -0.424808
N    -1.078471  0.319327  1.948058
C    -1.004436  0.503215  3.422557
C    -2.410782  0.742891  4.008990
O    -3.173177  -0.310310  4.282258
H    -0.912439  1.164300  1.404977
H    -0.617235  -0.441899  3.841420
C    0.046444  1.593451  3.697946
C    0.614250  1.662028  5.130202
C    -0.282287  2.109539  6.296633
C    -0.638746  3.591923  6.376874
N    -1.484427  4.077762  5.208882
H    -0.354676  2.557845  3.351179
H    0.897660  1.375231  3.036222
H    1.496744  2.318976  5.090676
H    1.016799  0.668591  5.380298
H    0.267929  1.902717  7.226479
H    -1.196225  1.502932  6.365799
H    0.257799  4.222756  6.415955
H    -1.219805  3.785035  7.285446
H    -2.009663  3.230471  4.728081
H    -2.173269  4.771993  5.517658
N    -2.837759  1.939464  4.228258
C    -4.218598  2.131267  4.683037
H    -0.908192  4.537967  4.497496
H    -4.932752  1.575000  4.062871
H    -4.465463  3.197525  4.627661
H    -4.348577  1.792125  5.721616
Cd    -2.653906  -2.123413  3.420163
