34
Energy: -172328.180759 eV PBE+vdW (tier 2 basis)
C    0.963874  1.500407  1.916553
C    0.026171  0.562972  2.608344
O    0.046285  0.517305  3.877816
H    1.997701  1.221560  2.161106
H    0.807501  2.511520  2.316607
H    0.836874  1.518069  0.828951
N    -0.804917  -0.173207  1.851099
C    -1.953460  -0.978682  2.298564
C    -1.495473  -2.418801  2.616419
O    -0.879566  -2.690060  3.700448
H    -0.708391  -0.059119  0.844434
H    -2.289791  -0.558474  3.260350
C    -3.102124  -0.866355  1.281934
C    -3.730505  0.531389  1.136612
C    -4.537125  1.004013  2.353680
C    -5.408488  2.242410  2.048501
N    -4.641017  3.428493  1.773408
H    -3.885727  -1.580013  1.578804
H    -2.740190  -1.187993  0.289375
H    -4.399633  0.481106  0.264999
H    -2.968249  1.281637  0.876167
H    -3.880637  1.236540  3.208773
H    -5.218591  0.207171  2.689222
H    -6.077199  2.402674  2.918499
H    -6.056693  2.040341  1.185974
H    -4.179221  3.884859  2.556082
H    -5.013179  4.085803  1.093773
N    -1.731187  -3.387330  1.751417
C    -1.321356  -4.783096  1.950238
H    -2.245795  -3.157871  0.905624
H    -1.650107  -5.364010  1.085238
H    -1.782435  -5.185575  2.859830
H    -0.231011  -4.847386  2.043224
Cd    -0.245439  -1.213049  5.165534
