34
Energy: -172329.9952 eV PBE+vdW (tier 2 basis)
C    0.063617  1.091440  1.009821
C    -0.294590  -0.156493  1.752133
O    0.638714  -0.949925  2.074711
H    -0.799762  1.715983  0.758251
H    0.590789  0.815053  0.086666
H    0.769498  1.674016  1.617102
N    -1.600697  -0.360973  2.025962
C    -2.254207  -1.517094  2.677270
C    -1.917562  -1.529752  4.184775
O    -0.784223  -1.898854  4.624439
H    -2.225022  0.375726  1.710274
H    -3.329462  -1.315516  2.592621
C    -1.968743  -2.845833  1.916091
C    -2.131829  -4.150746  2.718628
C    -1.492307  -5.391298  2.063098
C    -0.017527  -5.318188  1.656443
N    0.919812  -4.879654  2.768595
H    -0.968869  -2.782763  1.453993
H    -2.635154  -2.861081  1.042386
H    -3.200038  -4.362328  2.863876
H    -1.737488  -4.037429  3.741843
H    -2.039325  -5.653960  1.145318
H    -1.638145  -6.244853  2.741671
H    0.147599  -4.632565  0.814696
H    0.307167  -6.312720  1.321521
H    1.885492  -5.066503  2.476963
H    0.767868  -5.466492  3.597342
N    -2.864900  -1.119377  5.014914
C    -2.726406  -1.023507  6.470225
H    -3.752346  -0.822912  4.616741
H    -3.586941  -1.507035  6.945618
H    -2.694296  0.031152  6.771187
H    -1.802819  -1.518728  6.777410
Cd    0.662278  -2.752478  3.259594
