34
Energy: -172329.811174 eV PBE+vdW (tier 2 basis)
C    -0.111981  -0.815168  0.552005
C    -0.489476  -0.899733  1.997699
O    -0.032473  -1.844022  2.696563
H    -0.582265  0.018479  0.020418
H    -0.379183  -1.758061  0.056889
H    0.980124  -0.718398  0.479880
N    -1.314803  0.052553  2.479437
C    -1.847293  0.272892  3.840879
C    -0.706622  0.541052  4.856253
O    -0.057368  -0.400292  5.416670
H    -1.600854  0.750506  1.799389
H    -2.400634  1.213238  3.732094
C    -2.874692  -0.759304  4.411609
C    -3.668912  -1.660542  3.444138
C    -3.151133  -3.095234  3.205316
C    -3.007415  -3.977164  4.463038
N    -1.562840  -4.254615  4.842788
H    -3.583766  -0.151448  4.990118
H    -2.408458  -1.372748  5.207225
H    -3.784328  -1.164050  2.470765
H    -4.688631  -1.739701  3.845459
H    -2.204278  -3.097309  2.642316
H    -3.866168  -3.584230  2.530711
H    -3.491281  -4.950883  4.314231
H    -3.479753  -3.515871  5.340074
H    -1.533860  -4.738208  5.747477
H    -1.160603  -4.915507  4.167849
N    -0.435109  1.803828  5.139623
C    0.604679  2.263024  6.064826
H    -0.997996  2.521556  4.689349
H    0.138982  2.803304  6.897832
H    1.287523  2.937888  5.535415
H    1.155952  1.401100  6.445535
Cd    -0.370737  -2.416811  4.775891
