34
Energy: -172327.40956 eV PBE+vdW (tier 2 basis)
C    -1.120319  2.216461  0.440688
C    -0.822474  1.403628  1.659815
O    0.170800  1.684579  2.426311
H    -0.236278  2.229341  -0.210542
H    -1.325290  3.254647  0.742520
H    -1.976596  1.857760  -0.136190
N    -1.541257  0.342387  1.999590
C    -2.649850  -0.307038  1.310508
C    -3.370102  -1.095526  2.442153
O    -2.727219  -1.430476  3.438480
H    -1.315141  -0.134857  2.887702
H    -3.315728  0.459855  0.890335
C    -2.214949  -1.269750  0.170027
C    -1.339146  -2.450214  0.595340
C    -0.943381  -3.310151  -0.616415
C    -0.056914  -4.515548  -0.230750
N    -0.745547  -5.531542  0.489221
H    -1.697558  -0.662433  -0.590679
H    -3.132675  -1.635592  -0.315140
H    -1.864877  -3.080777  1.329334
H    -0.430302  -2.086179  1.100157
H    -0.382043  -2.713122  -1.349483
H    -1.840582  -3.676257  -1.139832
H    0.825020  -4.207212  0.345955
H    0.327394  -4.934487  -1.190528
H    -0.267811  -6.072869  1.203923
H    -1.572553  -5.967107  0.087712
N    -4.664785  -1.394448  2.226426
C    -5.490505  -2.095572  3.205266
H    -5.126373  -1.004221  1.409770
H    -6.064556  -1.385137  3.816229
H    -4.838845  -2.678931  3.862220
H    -6.189094  -2.755706  2.679476
Cd    1.105886  3.586305  2.943877
