34
Energy: -172327.388225 eV PBE+vdW (tier 2 basis)
C    -0.491919  3.928529  2.227337
C    0.374135  2.724838  2.385244
O    1.638880  2.864160  2.391562
H    -1.072936  3.866019  1.293702
H    0.137248  4.821719  2.184309
H    -1.206179  4.014141  3.055548
N    -0.143351  1.475433  2.526140
C    -1.239341  0.885753  1.738479
C    -0.779578  0.863210  0.256188
O    0.446405  0.964815  -0.073008
H    0.545237  0.799531  2.855091
H    -1.241953  -0.174156  2.040880
C    -2.652245  1.456925  2.047274
C    -3.705944  0.416339  2.465863
C    -4.211654  -0.526274  1.366945
C    -5.304012  -1.499033  1.870298
N    -6.514691  -0.837244  2.258340
H    -3.018377  2.069907  1.209398
H    -2.539021  2.149534  2.889083
H    -4.566142  0.967628  2.872184
H    -3.308558  -0.175256  3.306557
H    -3.401026  -1.153854  0.961088
H    -4.626722  0.055981  0.524296
H    -4.934120  -2.077433  2.727151
H    -5.502971  -2.229699  1.058074
H    -7.066420  -0.360553  1.549467
H    -7.061055  -1.219546  3.024485
N    -1.689458  0.675478  -0.685422
C    -1.377275  0.542371  -2.112757
H    -2.662109  0.603296  -0.401271
H    -0.664223  -0.274759  -2.270651
H    -0.945807  1.473964  -2.497662
H    -2.304542  0.325996  -2.648975
Cd    2.418374  1.517410  0.814183
