34
Energy: -172328.012271 eV PBE+vdW (tier 2 basis)
C    -0.371942  0.651307  -0.257581
C    -0.254536  0.532310  1.227940
O    0.818970  0.927597  1.775583
H    -0.280519  1.711463  -0.532861
H    -1.316882  0.258433  -0.647934
H    0.468790  0.125997  -0.729101
N    -1.297913  0.020648  1.909728
C    -1.453196  0.002703  3.367212
C    -0.651770  -1.159938  4.005123
O    0.464536  -0.905122  4.575161
H    -2.115081  -0.229123  1.358153
H    -0.954667  0.907196  3.758528
C    -2.931900  0.124054  3.772707
C    -3.131866  0.161579  5.293747
C    -4.583789  0.408481  5.741428
C    -5.528721  -0.793431  5.631677
N    -5.840793  -1.172408  4.266982
H    -3.536888  -0.678483  3.326197
H    -3.295033  1.065842  3.332477
H    -2.509621  0.967358  5.715531
H    -2.767509  -0.771692  5.754789
H    -5.006901  1.268463  5.197110
H    -4.569437  0.707564  6.798157
H    -6.455942  -0.540716  6.188489
H    -5.105780  -1.670234  6.145404
H    -6.310335  -0.450434  3.720591
H    -6.326549  -2.062889  4.169852
N    -1.064295  -2.417718  3.994845
C    -2.289770  -3.008682  3.450938
H    -0.417405  -3.059520  4.456100
H    -3.148670  -2.827264  4.108712
H    -2.128704  -4.087861  3.374134
H    -2.501570  -2.627048  2.447203
Cd    1.658243  0.729059  3.775489
