34
Energy: -172328.210844 eV PBE+vdW (tier 2 basis)
C    0.155695  0.743565  0.248846
C    -0.009586  0.674701  1.733715
O    0.798405  1.325969  2.461969
H    0.095746  1.796760  -0.059469
H    -0.595498  0.165114  -0.299443
H    1.160422  0.392015  -0.020094
N    -1.024729  -0.061848  2.222710
C    -1.519745  -0.090415  3.608561
C    -0.759962  -1.167531  4.411356
O    0.404644  -0.939124  4.872960
H    -1.586691  -0.558166  1.535114
H    -1.240639  0.871371  4.069730
C    -3.054754  -0.194916  3.629057
C    -3.747917  1.059825  3.068551
C    -5.276126  0.951194  2.953667
C    -6.027011  0.961184  4.296246
N    -7.446214  0.961925  4.107786
H    -3.361607  -0.363359  4.671648
H    -3.380211  -1.080131  3.053137
H    -3.355059  1.277603  2.064404
H    -3.481087  1.928560  3.692093
H    -5.557792  0.045363  2.395402
H    -5.628243  1.802677  2.352224
H    -5.704778  1.857827  4.873908
H    -5.772620  0.091853  4.920763
H    -8.050476  0.643409  4.858810
H    -7.864577  1.648168  3.485333
N    -1.314954  -2.350367  4.608978
C    -0.662116  -3.449653  5.330512
H    -2.255087  -2.503299  4.256050
H    -0.457310  -3.153562  6.366114
H    0.282400  -3.714060  4.841359
H    -1.332340  -4.312523  5.322472
Cd    1.586924  0.852072  4.441058
