34
Energy: -172327.286559 eV PBE+vdW (tier 2 basis)
C    -0.258805  0.230416  -0.169080
C    -0.071150  0.375496  1.306572
O    1.094656  0.309853  1.847021
H    0.281855  1.039532  -0.682209
H    -1.303595  0.265634  -0.488155
H    0.175444  -0.723929  -0.495584
N    -1.086283  0.557412  2.139407
C    -2.531966  0.523095  1.900295
C    -3.107571  1.377259  3.066947
O    -2.615010  1.238867  4.187556
H    -0.861571  0.651335  3.139974
H    -2.758986  0.991139  0.932637
C    -3.059311  -0.931504  1.939240
C    -4.585525  -1.122237  1.857458
C    -5.288356  -1.167409  3.225101
C    -6.799134  -1.457495  3.105864
N    -7.102797  -2.784701  2.691836
H    -2.665190  -1.410937  2.847651
H    -2.593531  -1.450902  1.087543
H    -4.779769  -2.073163  1.339967
H    -5.039923  -0.345195  1.221026
H    -5.180368  -0.220030  3.769295
H    -4.823888  -1.936997  3.861146
H    -7.305656  -0.753274  2.431326
H    -7.233684  -1.277876  4.118705
H    -6.702325  -3.578515  3.186695
H    -7.939928  -2.980042  2.149787
N    -4.135114  2.189296  2.766608
C    -4.767686  3.061397  3.756983
H    -4.399267  2.300413  1.793387
H    -4.324653  4.065609  3.736917
H    -4.617989  2.631104  4.751794
H    -5.838335  3.138216  3.540216
Cd    3.097196  0.652008  1.079483
