34
Energy: -172328.272968 eV PBE+vdW (tier 2 basis)
C    -1.645512  0.157451  -0.414480
C    -1.517746  -0.437157  0.952523
O    -0.472691  -0.171441  1.617750
H    -1.548352  1.248443  -0.338734
H    -2.587811  -0.091678  -0.913756
H    -0.807102  -0.195499  -1.030961
N    -2.528727  -1.222325  1.382655
C    -2.643662  -2.033013  2.613530
C    -2.866366  -1.128961  3.846054
O    -1.922075  -0.501768  4.415352
H    -3.298102  -1.316795  0.725873
H    -3.569947  -2.606195  2.479314
C    -1.481087  -3.062079  2.730706
C    -1.179722  -3.643453  4.135302
C    0.275158  -3.449618  4.582417
C    0.683583  -4.161014  5.928811
N    0.731534  -5.560630  5.717015
H    -0.564656  -2.632851  2.293625
H    -1.725652  -3.870524  2.028933
H    -1.378846  -4.721869  4.115621
H    -1.853813  -3.227749  4.898396
H    0.504456  -2.348334  4.818851
H    0.980627  -3.756105  3.796178
H    -0.050445  -3.900235  6.704588
H    1.661833  -3.776766  6.243784
H    -0.052234  -6.156141  5.951204
H    1.612969  -6.027937  5.543377
N    -4.110798  -1.027692  4.292572
C    -4.536997  -0.190166  5.416571
H    -4.835899  -1.549375  3.806741
H    -3.655245  0.195712  5.932556
H    -5.140464  -0.791327  6.105737
H    -5.141585  0.647179  5.046227
Cd    0.115379  -0.648091  3.645667
