34
Energy: -172327.114892 eV PBE+vdW (tier 2 basis)
C    -0.191099  -0.116691  0.039526
C    -0.170133  -0.056980  1.534043
O    0.864026  -0.409406  2.209249
H    0.531234  0.609834  -0.361394
H    -1.168943  0.096804  -0.399407
H    0.120731  -1.118558  -0.284776
N    -1.220505  0.350006  2.235640
C    -2.529138  0.817347  1.770252
C    -3.043194  1.734181  2.901563
O    -2.856187  1.380144  4.078272
H    -1.121320  0.368184  3.257392
H    -2.382917  1.403792  0.856771
C    -3.577242  -0.309931  1.489784
C    -3.336929  -1.698679  2.090998
C    -3.401334  -1.897189  3.617487
C    -4.800683  -1.700077  4.230783
N    -5.181427  -0.344225  4.389606
H    -3.649266  -0.431607  0.399057
H    -4.567060  0.069864  1.797413
H    -2.352034  -2.072860  1.765577
H    -4.062081  -2.377464  1.617439
H    -2.690412  -1.252274  4.152255
H    -3.102231  -2.931327  3.833091
H    -4.760268  -2.186140  5.239364
H    -5.588981  -2.243755  3.687813
H    -6.163568  -0.086382  4.441368
H    -4.490511  0.345330  4.699839
N    -3.715325  2.843618  2.565302
C    -3.966526  3.386392  1.228825
H    -4.021798  3.399188  3.362354
H    -4.662776  4.223882  1.329998
H    -4.435575  2.642307  0.573842
H    -3.046861  3.767658  0.764633
Cd    2.934638  -0.800939  1.629348
