34
Energy: -172327.263864 eV PBE+vdW (tier 2 basis)
C    -0.399224  -1.419310  0.170518
C    -0.140902  -0.692129  1.455644
O    1.036981  -0.850466  1.950691
H    0.521840  -1.459922  -0.419344
H    -1.198534  -0.955447  -0.417485
H    -0.688735  -2.454534  0.403619
N    -1.068719  0.031866  2.052389
C    -2.409884  0.412933  1.597786
C    -2.696498  1.686238  2.444153
O    -2.001981  1.903241  3.445849
H    -0.865348  0.560232  2.924167
H    -2.372379  0.676648  0.530695
C    -3.480204  -0.684934  1.815163
C    -3.714164  -1.081187  3.276864
C    -4.632037  -2.307127  3.458423
C    -6.121171  -2.065160  3.174304
N    -6.761786  -1.234363  4.139146
H    -3.178669  -1.567684  1.229822
H    -4.410353  -0.325397  1.349425
H    -4.121961  -0.230081  3.844484
H    -2.750013  -1.327837  3.746159
H    -4.528460  -2.680535  4.488526
H    -4.299530  -3.130556  2.809902
H    -6.614581  -3.068765  3.164607
H    -6.315283  -1.655214  2.171356
H    -7.650499  -0.792180  3.918685
H    -6.591765  -1.393169  5.130292
N    -3.716724  2.463790  2.046523
C    -4.101460  3.692402  2.735975
H    -4.165307  2.259462  1.158110
H    -3.643943  4.568650  2.255926
H    -3.758309  3.638554  3.772939
H    -5.190926  3.800207  2.704624
Cd    2.230381  0.127259  3.464423
