34
Energy: -172327.090184 eV PBE+vdW (tier 2 basis)
C    0.780353  0.507885  0.568618
C    0.207220  -0.164108  1.776025
O    1.002259  -0.350006  2.763506
H    1.600368  -0.111135  0.177705
H    1.215001  1.473586  0.855961
H    0.034874  0.652602  -0.220955
N    -1.064528  -0.542166  1.753566
C    -1.785564  -1.400591  2.691658
C    -2.959240  -1.979658  1.843192
O    -3.332287  -1.353114  0.851759
H    -1.622951  -0.365045  0.907190
H    -1.121300  -2.220187  3.009078
C    -2.339689  -0.661765  3.928722
C    -3.154428  0.592025  3.633824
C    -3.707585  1.319194  4.877588
C    -4.983333  0.694092  5.439176
N    -6.086202  0.801739  4.533927
H    -1.461378  -0.370600  4.581970
H    -2.895479  -1.385443  4.544838
H    -4.013205  0.317182  2.991510
H    -2.543832  1.291230  3.046775
H    -3.915262  2.366016  4.610730
H    -2.952894  1.363678  5.677256
H    -5.229294  1.200280  6.402805
H    -4.857896  -0.367011  5.711358
H    -6.930204  0.263209  4.715206
H    -6.248748  1.687526  4.058066
N    -3.520242  -3.122308  2.282881
C    -4.612783  -3.784250  1.573060
H    -3.054929  -3.642281  3.021590
H    -5.236742  -4.320458  2.295555
H    -4.223740  -4.500897  0.835898
H    -5.202926  -3.028697  1.045598
Cd    0.863091  -0.610207  4.901443
