34
Energy: -172328.066896 eV PBE+vdW (tier 2 basis)
C    1.057230  2.175988  1.332110
C    0.290846  1.136170  2.090189
O    0.693941  -0.061225  2.017431
H    0.659313  3.189131  1.452579
H    1.046806  1.909160  0.266289
H    2.106054  2.153011  1.655844
N    -0.781759  1.549687  2.793971
C    -1.823391  0.785463  3.518294
C    -1.271156  0.214590  4.843701
O    -0.646377  -0.891395  4.905341
H    -0.952312  2.549683  2.740421
H    -2.561221  1.549324  3.788589
C    -2.570705  -0.257593  2.665611
C    -3.892995  -0.740253  3.273750
C    -5.035093  0.284752  3.202891
C    -6.386847  -0.314439  3.650647
N    -6.859270  -1.343726  2.766837
H    -1.937411  -1.152490  2.471467
H    -2.734565  0.182092  1.670838
H    -3.739732  -1.069108  4.315072
H    -4.211393  -1.637628  2.723088
H    -5.136840  0.663628  2.173503
H    -4.841464  1.162940  3.838469
H    -7.111454  0.523455  3.710213
H    -6.307506  -0.734492  4.662304
H    -7.426248  -2.086483  3.165226
H    -7.164691  -1.064549  1.837416
N    -1.466082  0.890274  5.968067
C    -2.158409  2.168447  6.167564
H    -1.061298  0.449557  6.795248
H    -1.668245  2.979598  5.615668
H    -2.109326  2.409931  7.232954
H    -3.216520  2.100549  5.886184
Cd    0.228426  -1.848352  3.151975
