34
Energy: -172327.568497 eV PBE+vdW (tier 2 basis)
C    -1.103849  -0.261917  -0.762944
C    -0.392024  -0.255818  0.545219
O    0.813889  -0.653759  0.607988
H    -2.188826  -0.166554  -0.662264
H    -0.865634  -1.206431  -1.271908
H    -0.710747  0.537563  -1.409024
N    -1.012289  0.154696  1.680859
C    -1.789053  1.391999  1.814600
C    -0.781878  2.557283  1.675168
O    0.427607  2.411326  2.062737
H    -0.509556  -0.097271  2.533723
H    -2.533378  1.430821  1.008989
C    -2.495400  1.366623  3.190511
C    -3.487678  2.496017  3.487442
C    -4.224941  2.242269  4.813378
C    -5.279199  3.306843  5.151159
N    -4.714858  4.585714  5.480212
H    -1.720364  1.339570  3.974813
H    -3.020184  0.399857  3.233903
H    -4.228686  2.566551  2.675322
H    -2.974575  3.468371  3.541483
H    -3.502415  2.169607  5.642314
H    -4.739971  1.271471  4.772644
H    -5.880244  2.920410  6.004667
H    -5.991362  3.442417  4.324350
H    -5.315179  5.403770  5.413221
H    -4.055228  4.630092  6.254318
N    -1.147449  3.731356  1.178081
C    -2.445082  4.189243  0.680973
H    -0.392511  4.419912  1.159830
H    -3.117612  3.347498  0.500786
H    -2.287805  4.722930  -0.263188
H    -2.912534  4.872677  1.400223
Cd    1.993339  0.842181  1.758128
