34
Energy: -172327.176707 eV PBE+vdW (tier 2 basis)
C    -0.031658  -0.476112  -0.134960
C    -0.395867  -0.690152  1.316011
O    0.649383  -0.609655  2.240424
H    0.507419  0.471657  -0.250210
H    -0.934343  -0.450549  -0.754863
H    0.601433  -1.295130  -0.498252
N    -1.307842  0.258396  1.904835
C    -2.347925  -0.354599  2.695011
C    -2.139958  -1.821390  2.345737
O    -1.117050  -1.945315  1.454225
H    -0.987097  1.208202  2.082183
H    -2.179338  -0.215508  3.777985
C    -3.717022  0.299631  2.333064
C    -4.904751  -0.175684  3.188154
C    -5.705263  -1.343133  2.571397
C    -6.232637  -2.355340  3.578275
N    -5.079499  -3.006721  4.331176
H    -3.913477  0.150308  1.262517
H    -3.575454  1.379795  2.476517
H    -5.577740  0.677957  3.340367
H    -4.537170  -0.421422  4.197892
H    -5.100455  -1.876505  1.824945
H    -6.570814  -0.950316  2.021147
H    -6.780771  -3.158374  3.073404
H    -6.902096  -1.905591  4.321210
H    -4.930553  -2.564925  5.243860
H    -5.268637  -3.997696  4.513289
N    -2.792048  -2.817750  2.798680
C    -2.429324  -4.168989  2.359860
H    -4.148841  -2.907245  3.755505
H    -2.751736  -4.891918  3.117938
H    -1.350868  -4.285587  2.198878
H    -2.941029  -4.412125  1.417177
Cd    2.496173  -1.572653  2.081986
