34
Energy: -172327.561652 eV PBE+vdW (tier 2 basis)
C    -0.490199  2.739484  1.007955
C    -0.356810  1.361520  1.557923
O    0.270152  1.178116  2.648258
H    -1.210944  3.315565  1.607860
H    -0.781077  2.756295  -0.046532
H    0.477397  3.246076  1.128421
N    -0.875820  0.290443  0.904677
C    -2.230855  0.224852  0.359682
C    -3.183707  -0.038131  1.555541
O    -2.740430  -0.463241  2.674295
H    -0.544755  -0.603227  1.269877
H    -2.472665  1.208807  -0.065315
C    -2.340111  -0.835808  -0.759916
C    -2.039090  -2.280818  -0.333549
C    -2.338022  -3.328106  -1.419699
C    -1.400715  -3.274337  -2.642765
N    -1.654013  -4.343950  -3.554883
H    -1.659516  -0.507549  -1.558251
H    -3.353262  -0.785994  -1.182651
H    -2.646734  -2.542615  0.547005
H    -0.984576  -2.384018  -0.025513
H    -3.376604  -3.228242  -1.769050
H    -2.259951  -4.325811  -0.962696
H    -0.348471  -3.316811  -2.277687
H    -1.493469  -2.329739  -3.196527
H    -1.467104  -4.228231  -4.545700
H    -1.677525  -5.303730  -3.221568
N    -4.488866  0.154810  1.422363
C    -5.252930  0.606858  0.258104
H    -5.028275  -0.069253  2.260104
H    -4.632736  1.209611  -0.411827
H    -6.080767  1.230294  0.612010
H    -5.667869  -0.246503  -0.293633
Cd    -0.944505  -0.132334  3.976648
