34
Energy: -172328.031324 eV PBE+vdW (tier 2 basis)
C    -0.376797  0.575419  -0.107183
C    -0.280698  0.459302  1.380034
O    0.804146  0.807906  1.937335
H    0.456434  0.029063  -0.567447
H    -0.257149  1.632657  -0.383794
H    -1.326720  0.205574  -0.507844
N    -1.353965  0.002206  2.053347
C    -1.534601  0.011929  3.508971
C    -0.798428  -1.176965  4.176136
O    0.323608  -0.963370  4.753400
H    -2.173506  -0.217303  1.492327
H    -1.002645  0.897087  3.896731
C    -3.015749  0.202926  3.878142
C    -3.263647  0.205709  5.392340
C    -4.712014  0.539056  5.789307
C    -5.778568  -0.460508  5.331416
N    -5.544430  -1.801071  5.826262
H    -3.630471  -0.560619  3.381646
H    -3.319038  1.171383  3.450905
H    -2.604836  0.949770  5.866045
H    -2.986936  -0.768494  5.825066
H    -4.990312  1.530241  5.402222
H    -4.752726  0.628020  6.885454
H    -5.856156  -0.509095  4.233801
H    -6.765045  -0.078595  5.670053
H    -6.196332  -2.508491  5.491281
H    -5.413404  -1.877028  6.834859
N    -1.267351  -2.414868  4.185965
C    -2.527014  -2.960179  3.673438
H    -0.651725  -3.074293  4.665027
H    -2.743447  -2.577519  2.671090
H    -3.362839  -2.741577  4.353757
H    -2.409099  -4.045281  3.600125
Cd    1.642870  0.557211  3.929360
