34
Energy: -172327.889744 eV PBE+vdW (tier 2 basis)
C    0.611830  3.753491  2.806821
C    0.177202  2.727623  3.803936
O    0.078200  3.027300  5.037395
H    -0.109993  4.582647  2.833869
H    0.678699  3.373568  1.781960
H    1.581850  4.173584  3.103278
N    -0.132044  1.501464  3.355973
C    -0.785699  0.402982  4.074894
C    -0.104046  0.035450  5.396335
O    1.115975  0.326134  5.624187
H    -0.054083  1.366286  2.351008
H    -1.807967  0.736659  4.320181
C    -0.901580  -0.823542  3.133023
C    0.415368  -1.527634  2.775433
C    0.175896  -2.697354  1.810810
C    1.473836  -3.444829  1.452676
N    1.247663  -4.525766  0.546822
H    -1.417700  -0.479615  2.221967
H    -1.591602  -1.541729  3.595715
H    0.901058  -1.899585  3.691688
H    1.126717  -0.816467  2.324840
H    -0.295986  -2.327545  0.886330
H    -0.525918  -3.419131  2.254737
H    1.964259  -3.845127  2.351516
H    2.191745  -2.715017  1.012450
H    0.737432  -4.370990  -0.318187
H    1.859671  -5.335543  0.555669
N    -0.801833  -0.641656  6.304718
C    -2.190187  -1.106097  6.276636
H    -0.255151  -0.905349  7.125146
H    -2.818752  -0.434062  5.683637
H    -2.570205  -1.115494  7.303138
H    -2.257758  -2.123437  5.869684
Cd    1.571663  2.314305  6.462217
