34
Energy: -172329.426972 eV PBE+vdW (tier 2 basis)
C    0.277636  0.210871  0.836960
C    -0.335184  0.341125  2.191662
O    0.148413  1.173114  3.013680
H    0.281368  1.195585  0.350583
H    -0.240448  -0.509489  0.195270
H    1.327941  -0.090923  0.950095
N    -1.404090  -0.440673  2.486743
C    -2.117105  -0.318372  3.752114
C    -1.408003  -1.132392  4.859048
O    -0.566891  -0.544300  5.615874
H    -1.741854  -1.079177  1.771220
H    -1.929237  0.726726  4.023796
C    -3.662640  -0.334927  3.705833
C    -4.170458  1.012768  4.273644
C    -3.748988  1.269722  5.746115
C    -3.276185  2.673356  6.127808
N    -1.952446  3.123344  5.516660
H    -4.076669  -1.174104  4.281190
H    -4.011373  -0.455653  2.671496
H    -5.263078  1.057311  4.188612
H    -3.795761  1.810288  3.609221
H    -2.982673  0.550331  6.080992
H    -4.604261  1.056840  6.403217
H    -3.137126  2.718751  7.214199
H    -4.024883  3.431693  5.856857
H    -2.128347  3.532767  4.592292
H    -1.596612  3.903174  6.080444
N    -1.664411  -2.422287  4.978611
C    -1.025193  -3.329408  5.937984
H    -2.361368  -2.825561  4.356376
H    -1.787543  -3.760164  6.597778
H    -0.296473  -2.770627  6.528711
H    -0.521052  -4.137165  5.394461
Cd    -0.356278  1.579140  5.140145
