34
Energy: -172327.386964 eV PBE+vdW (tier 2 basis)
C    0.438460  -1.079250  0.448991
C    -0.116274  0.012413  1.310992
O    0.521373  1.106449  1.544375
H    0.654319  -0.685096  -0.554400
H    -0.246952  -1.926769  0.345279
H    1.376379  -1.450743  0.887293
N    -1.307132  -0.151438  1.858545
C    -1.974596  0.766477  2.788838
C    -2.702280  -0.186183  3.765506
O    -3.158125  -1.236551  3.295296
H    -1.816227  -1.038392  1.751395
H    -1.206443  1.369445  3.294513
C    -2.977899  1.674094  2.034215
C    -3.666387  2.721534  2.909027
C    -4.683387  3.606292  2.172268
C    -6.033518  2.907770  1.867970
N    -5.975636  1.938302  0.823683
H    -3.729350  1.019321  1.557742
H    -2.432119  2.170863  1.218056
H    -2.907096  3.396748  3.339651
H    -4.163969  2.242830  3.768023
H    -4.258156  4.006079  1.238739
H    -4.921075  4.476984  2.797353
H    -6.736144  3.723207  1.578991
H    -6.453954  2.437871  2.766559
H    -6.584258  1.124444  0.857227
H    -5.711071  2.236709  -0.112625
N    -2.806088  0.183406  5.051521
C    -3.501302  -0.612158  6.060377
H    -2.399020  1.069473  5.335229
H    -2.911418  -0.622469  6.983473
H    -3.620651  -1.631498  5.681828
H    -4.493196  -0.192353  6.276265
Cd    2.540601  1.623230  0.844178
