34
Energy: -172329.405912 eV PBE+vdW (tier 2 basis)
C    -0.007361  0.987608  0.863346
C    -0.659349  0.823248  2.195806
O    -0.325796  1.595933  3.142437
H    -0.388628  0.293790  0.106732
H    1.075530  0.841136  0.978219
H    -0.152125  2.020143  0.518222
N    -1.588816  -0.151984  2.337138
C    -2.336692  -0.356502  3.570398
C    -1.528185  -1.117193  4.643172
O    -1.002121  -0.429429  5.581723
H    -1.810769  -0.711754  1.517991
H    -2.393843  0.648359  3.999021
C    -3.826191  -0.699376  3.426946
C    -4.693388  0.555697  3.137009
C    -4.275382  1.881020  3.816206
C    -4.141651  1.869502  5.353682
N    -2.970635  2.704447  5.835551
H    -4.140689  -1.162093  4.374077
H    -4.006050  -1.459479  2.654909
H    -5.728670  0.310463  3.409742
H    -4.714719  0.749285  2.055911
H    -5.011125  2.643681  3.527793
H    -3.332890  2.244418  3.366765
H    -3.991842  0.859788  5.758592
H    -5.052637  2.261950  5.825216
H    -3.052131  3.659371  5.467548
H    -3.020176  2.800190  6.856347
N    -1.371206  -2.429146  4.626477
C    -1.921601  -3.410398  3.689830
H    -0.818517  -2.796093  5.403343
H    -2.049390  -2.976081  2.694575
H    -2.882807  -3.799164  4.049302
H    -1.213792  -4.241231  3.607307
Cd    -1.028109  1.742830  5.217522
