34
Energy: -172327.475336 eV PBE+vdW (tier 2 basis)
C    -2.343094  1.670036  0.972449
C    -1.642774  1.144141  2.190969
O    -0.504664  0.655083  2.147208
H    -1.751261  2.497762  0.558889
H    -3.364900  2.015512  1.160791
H    -2.359906  0.882464  0.208137
N    -2.324100  1.229566  3.385413
C    -1.922234  0.598462  4.628331
C    -0.675038  1.267428  5.276409
O    -0.860747  1.670702  6.470166
H    -3.248091  1.651167  3.365042
H    -2.734342  0.784993  5.342286
C    -1.719354  -0.951559  4.541824
C    -3.036144  -1.669100  4.264714
C    -2.949054  -3.207785  4.263797
C    -2.234945  -3.789900  3.029452
N    -0.817710  -3.620781  3.038679
H    -1.297899  -1.286953  5.501349
H    -0.967853  -1.159950  3.763022
H    -3.462083  -1.323002  3.309334
H    -3.775699  -1.400765  5.038341
H    -3.967933  -3.616820  4.277075
H    -2.461021  -3.573916  5.180349
H    -2.637492  -3.379560  2.093402
H    -2.483513  -4.877997  3.020635
H    -0.318417  -3.593342  2.152908
H    -0.286840  -4.027233  3.806360
N    0.433127  1.344959  4.571189
C    1.686556  1.948080  5.002036
H    0.330665  0.998441  3.588476
H    2.395630  1.894916  4.170048
H    2.125741  1.399435  5.848355
H    1.555447  3.010831  5.256911
Cd    0.360534  2.643633  8.045301
