35
Energy: -105405.152543 eV PBE+vdW (tier 2 basis)
C    -0.924220  0.792849  1.831597
C    -0.212514  -0.250133  2.631092
O    1.051965  -0.296732  2.646588
H    -0.209462  1.564035  1.528589
H    -1.737887  1.255344  2.401629
H    -1.360534  0.356271  0.918886
N    -0.904012  -1.169618  3.361379
C    -2.032277  -1.958870  2.838155
C    -1.548042  -2.642432  1.513125
O    -0.312887  -2.623821  1.208327
H    -0.288063  -1.704811  3.972777
H    -2.141269  -2.784829  3.559702
C    -3.397854  -1.232141  2.774077
C    -3.799382  -0.565739  4.105667
C    -5.102234  0.264159  4.014897
C    -6.426005  -0.458549  4.281455
N    -6.795300  -0.483026  5.763258
H    -4.161707  -1.975484  2.495333
H    -3.397720  -0.483930  1.969576
H    -2.989637  0.105363  4.422571
H    -3.867447  -1.330106  4.897973
H    -5.187255  0.704016  3.010346
H    -5.029773  1.135297  4.684487
H    -6.425734  -1.505312  3.952751
H    -7.262388  0.050969  3.789029
H    -7.689351  -0.974569  5.916272
H    -6.910612  0.472544  6.133805
H    -6.085805  -0.952667  6.342908
N    -2.428959  -3.271774  0.758664
C    -2.098323  -4.028078  -0.457648
H    -3.403617  -3.258198  1.044555
H    -3.020701  -4.456166  -0.858132
H    -1.398960  -4.838779  -0.222137
H    -1.655579  -3.364836  -1.209794
Sr    1.946827  -2.008783  1.347757
