35
Energy: -105403.734399 eV PBE+vdW (tier 2 basis)
C    0.313414  0.235075  0.823235
C    0.003097  -0.456312  2.121998
O    0.806574  -1.216040  2.665746
H    -0.552839  0.501640  0.208135
H    1.003799  -0.373328  0.231175
H    0.848264  1.167041  1.065407
N    -1.192277  -0.168624  2.786704
C    -2.498340  -0.205658  2.128012
C    -3.413361  0.908029  2.689475
O    -4.581779  0.630203  3.180603
H    -1.182484  -0.609487  3.708682
H    -2.338370  0.058625  1.071459
C    -3.150837  -1.616290  2.201874
C    -2.182458  -2.818147  2.154683
C    -1.455268  -3.114143  0.828857
C    -0.401381  -4.222739  0.964601
N    0.967322  -3.714107  1.410363
H    -3.903364  -1.699234  1.402835
H    -3.690354  -1.696302  3.158369
H    -2.778584  -3.706411  2.410152
H    -1.454175  -2.722084  2.973956
H    -0.996681  -2.219351  0.380634
H    -2.184495  -3.460579  0.082707
H    -0.237280  -4.740764  0.013658
H    -0.709838  -4.973882  1.701733
H    1.496082  -4.449137  1.899128
H    0.923603  -2.867994  2.033149
H    1.535765  -3.439189  0.598930
N    -3.021383  2.166123  2.680143
C    -1.790677  2.763877  2.142710
H    -3.672851  2.825085  3.105512
H    -0.932727  2.505555  2.772786
H    -1.924867  3.849091  2.138417
H    -1.617801  2.431891  1.114189
Sr    -6.631869  0.311901  3.937474
