35
Energy: -105404.449694 eV PBE+vdW (tier 2 basis)
C    -0.022591  1.556274  0.983153
C    -0.108739  0.259636  1.713047
O    0.974448  -0.325287  2.131441
H    -0.755510  1.632064  0.170253
H    0.982137  1.708627  0.579504
H    -0.247122  2.382374  1.677586
N    -1.280812  -0.299572  1.968522
C    -2.608155  0.199735  1.531432
C    -3.041938  1.536566  2.199171
O    -3.518727  2.395319  1.461992
H    -1.260572  -1.164907  2.509496
H    -2.508731  0.467617  0.471637
C    -3.670285  -0.918719  1.646046
C    -4.866664  -0.795181  0.677041
C    -5.933826  0.266683  1.011132
C    -7.098257  0.163575  0.028690
N    -8.153011  1.231110  0.290191
H    -4.029551  -1.007994  2.682000
H    -3.174067  -1.871317  1.403609
H    -5.348146  -1.784069  0.654468
H    -4.484659  -0.623185  -0.341454
H    -5.494252  1.274176  0.963945
H    -6.301030  0.111047  2.038738
H    -7.620669  -0.799177  0.094377
H    -6.775918  0.310544  -1.009894
H    -8.930968  1.161826  -0.382582
H    -7.759482  2.179929  0.209301
H    -8.556681  1.144616  1.234001
N    -2.914702  1.705590  3.538917
C    -2.457039  0.783652  4.571682
H    -3.232773  2.622272  3.848316
H    -2.861170  1.115071  5.533617
H    -1.360542  0.764949  4.661809
H    -2.826950  -0.235760  4.407032
Sr    3.046148  -0.963843  2.492134
