35
Energy: -105404.662309 eV PBE+vdW (tier 2 basis)
C    -0.440506  2.021999  1.729195
C    -0.329078  0.722095  2.452017
O    0.691522  0.482533  3.213374
H    0.217013  2.770100  2.180728
H    -1.467863  2.406076  1.723153
H    -0.134601  1.888731  0.678547
N    -1.263778  -0.210120  2.313041
C    -2.433729  -0.182466  1.401173
C    -3.632778  0.679355  1.871910
O    -4.368006  1.155693  0.993297
H    -1.104077  -1.087189  2.812441
H    -2.110192  0.283842  0.462032
C    -2.864488  -1.648859  1.136754
C    -4.172961  -1.827955  0.353930
C    -4.142649  -1.381071  -1.124224
C    -5.519937  -0.998432  -1.661134
N    -5.896391  0.418578  -1.239528
H    -2.986097  -2.151143  2.110936
H    -2.039240  -2.155917  0.613193
H    -4.984348  -1.322860  0.898586
H    -4.428606  -2.895773  0.390396
H    -3.761182  -2.199082  -1.749968
H    -3.450858  -0.540051  -1.289321
H    -5.561695  -1.023181  -2.755355
H    -6.303144  -1.664120  -1.278754
H    -5.553556  1.103777  -1.924494
H    -6.914894  0.541822  -1.178280
H    -5.457466  0.675825  -0.320744
N    -3.834974  0.842181  3.185928
C    -4.978236  1.572354  3.742655
H    -3.222731  0.362232  3.837048
H    -4.678733  2.049536  4.680812
H    -5.818390  0.893329  3.937573
H    -5.293450  2.338236  3.028527
Sr    2.630179  0.462417  4.283778
