35
Energy: -105404.924108 eV PBE+vdW (tier 2 basis)
C    -0.000037  -0.029050  0.083430
C    -0.212128  0.496346  1.462463
O    0.792951  1.058908  2.077300
H    0.829220  -0.749674  0.092423
H    0.293925  0.795327  -0.581623
H    -0.884431  -0.516749  -0.334281
N    -1.361577  0.422793  2.086013
C    -2.696626  -0.008264  1.639630
C    -3.610443  0.896705  2.531410
O    -3.157061  1.250824  3.626790
H    -1.484195  0.842432  3.036087
H    -2.828315  0.216859  0.572314
C    -2.910814  -1.517457  1.926275
C    -4.292078  -2.058834  1.520031
C    -4.432179  -3.569668  1.797550
C    -5.822484  -4.073940  1.415165
N    -5.985348  -5.562076  1.699538
H    -2.744167  -1.683270  3.001542
H    -2.124321  -2.074504  1.393481
H    -4.468322  -1.868336  0.448814
H    -5.077314  -1.521464  2.071864
H    -4.248905  -3.762522  2.866959
H    -3.666534  -4.125307  1.232459
H    -6.030991  -3.948149  0.345307
H    -6.615736  -3.572227  1.983371
H    -6.926641  -5.891998  1.437892
H    -5.853696  -5.776406  2.698924
H    -5.305804  -6.129016  1.171669
N    -4.822417  1.206929  2.054683
C    -5.784431  2.038944  2.782773
H    -5.051405  0.945749  1.100783
H    -6.778908  1.582006  2.735658
H    -5.830763  3.044404  2.346138
H    -5.463499  2.112969  3.824947
Sr    2.488382  2.112124  2.940835
