35
Energy: -105405.966038 eV PBE+vdW (tier 2 basis)
C    -1.835340  -3.678355  1.394685
C    -1.017441  -2.450773  1.627535
O    -0.036961  -2.170514  0.876395
H    -2.259577  -3.630503  0.381320
H    -2.646567  -3.811458  2.117979
H    -1.185797  -4.563900  1.420016
N    -1.354263  -1.643349  2.651547
C    -0.733730  -0.347680  2.981341
C    0.656604  -0.579363  3.636734
O    1.643379  -0.839814  2.881564
H    -2.114387  -1.958379  3.249357
H    -0.505824  0.150237  2.026246
C    -1.698671  0.541065  3.789692
C    -2.917779  1.088002  3.013718
C    -3.669966  2.139427  3.857134
C    -4.741850  2.970467  3.149505
N    -6.096702  2.276466  3.027018
H    -1.115632  1.400658  4.153197
H    -2.049007  0.001504  4.687229
H    -3.584371  0.262130  2.717404
H    -2.567684  1.558326  2.081355
H    -2.940754  2.880887  4.218200
H    -4.087707  1.686792  4.771621
H    -4.452833  3.254032  2.129683
H    -4.945523  3.889490  3.711584
H    -6.783343  2.898016  2.571952
H    -6.480674  2.032752  3.952140
H    -6.055009  1.413686  2.468411
N    0.782643  -0.509285  4.949702
C    2.030708  -0.713191  5.694989
H    -0.047603  -0.301803  5.498736
H    2.086809  -1.745477  6.064256
H    2.047036  -0.027316  6.547995
H    2.882614  -0.507305  5.042546
Sr    2.208202  -1.705474  0.821211
