35
Energy: -105405.150977 eV PBE+vdW (tier 2 basis)
C    -0.427855  0.356213  -0.044505
C    -0.222967  0.212833  1.429332
O    0.939211  0.371293  1.913017
H    -0.361935  -0.623698  -0.542419
H    0.380485  0.981150  -0.440201
H    -1.391296  0.806454  -0.297056
N    -1.244367  -0.042090  2.296285
C    -2.212141  -1.149890  2.198558
C    -1.396675  -2.451008  2.481344
O    -0.149682  -2.476275  2.207270
H    -0.945905  0.118303  3.260320
H    -2.905934  -0.991722  3.036221
C    -3.050462  -1.153724  0.889705
C    -4.423786  -1.847751  0.967406
C    -5.290020  -1.525137  -0.270576
C    -6.672516  -2.171868  -0.173821
N    -7.549649  -1.822504  -1.368924
H    -2.468844  -1.579146  0.060861
H    -3.219739  -0.093469  0.654543
H    -4.957335  -1.512125  1.870438
H    -4.304473  -2.937669  1.048244
H    -4.779251  -1.872891  -1.182765
H    -5.400672  -0.432305  -0.358801
H    -7.225443  -1.833503  0.711521
H    -6.619588  -3.267497  -0.150493
H    -7.702442  -0.806141  -1.450148
H    -8.479312  -2.262831  -1.289370
H    -7.137546  -2.143122  -2.257744
N    -1.961509  -3.511948  3.038888
C    -3.298218  -3.704552  3.608387
H    -1.328262  -4.306996  3.143648
H    -3.886671  -4.385909  2.982492
H    -3.824186  -2.753418  3.714593
H    -3.188551  -4.153892  4.602343
Sr    2.031562  -1.605606  2.400198
