35
Energy: -105403.576442 eV PBE+vdW (tier 2 basis)
C    0.042549  0.519377  0.256451
C    -0.036992  -0.275131  1.529126
O    0.832945  -0.195175  2.398143
H    -0.879759  0.525403  -0.334886
H    0.832115  0.063585  -0.361454
H    0.364645  1.545503  0.465720
N    -1.070595  -1.195693  1.685160
C    -2.490049  -0.847993  1.527757
C    -2.976745  -0.965716  0.072981
O    -3.754396  -0.065915  -0.450294
H    -0.892414  -1.790597  2.493792
H    -3.043079  -1.656048  2.042276
C    -2.815010  0.476956  2.256909
C    -2.523666  0.357651  3.775982
C    -2.087182  1.645090  4.498811
C    -0.672738  2.174535  4.251521
N    0.427331  1.232783  4.713329
H    -3.872369  0.743532  2.117824
H    -2.223221  1.284316  1.798702
H    -1.768846  -0.422498  3.953554
H    -3.429070  -0.012881  4.275419
H    -2.219781  1.493911  5.581429
H    -2.768276  2.473271  4.250154
H    -0.533818  3.112987  4.800653
H    -0.460276  2.374119  3.193616
H    0.597296  0.478791  3.999037
H    0.216095  0.810071  5.627201
H    1.317519  1.739544  4.816536
N    -2.653125  -2.020759  -0.647806
C    -1.908183  -3.234275  -0.270025
H    -3.002617  -2.013959  -1.605749
H    -2.173917  -4.016385  -0.987870
H    -2.190963  -3.568883  0.732750
H    -0.828254  -3.055702  -0.311125
Sr    -5.306432  1.168591  -1.429915
