35
Energy: -105404.720194 eV PBE+vdW (tier 2 basis)
C    0.244027  -0.483533  -0.822930
C    0.211079  0.217585  0.492047
O    1.317710  0.748611  0.938239
H    0.947528  -1.326353  -0.765227
H    0.623094  0.198970  -1.595779
H    -0.731259  -0.863703  -1.134916
N    -0.866679  0.324925  1.231183
C    -2.294056  0.142394  0.921045
C    -2.908158  1.390482  1.648199
O    -2.218522  1.913258  2.539437
H    -0.850479  0.951064  2.078823
H    -2.450670  0.191980  -0.163893
C    -2.915716  -1.147055  1.508561
C    -2.495875  -2.457262  0.823361
C    -3.422856  -3.662717  1.100096
C    -3.410144  -4.165833  2.541904
N    -4.284264  -5.406399  2.688788
H    -4.006409  -1.030016  1.419381
H    -2.698703  -1.166284  2.587397
H    -1.458831  -2.718527  1.085805
H    -2.510649  -2.317483  -0.267856
H    -3.112263  -4.481801  0.432504
H    -4.452674  -3.396059  0.811370
H    -3.807187  -3.435680  3.257550
H    -2.406352  -4.464819  2.869328
H    -4.284269  -5.759427  3.657437
H    -3.958185  -6.174223  2.082830
H    -5.264405  -5.214580  2.433290
N    -4.128517  1.819954  1.311929
C    -5.036196  1.335318  0.275919
H    -4.452839  2.604160  1.877651
H    -5.513089  2.193543  -0.210124
H    -5.824031  0.697677  0.700069
H    -4.495438  0.777533  -0.495467
Sr    3.092543  1.882312  1.489593
