35
Energy: -105404.621821 eV PBE+vdW (tier 2 basis)
C    0.329966  -0.617339  0.881438
C    0.277685  0.779904  1.395456
O    1.282937  1.582259  1.213097
H    1.360391  -0.917493  0.673302
H    -0.249706  -0.681268  -0.054050
H    -0.125085  -1.335368  1.575218
N    -0.802005  1.230850  2.017797
C    -2.028620  0.459866  2.335857
C    -2.843628  -0.012143  1.095888
O    -3.311181  -1.145949  1.128953
H    -0.775472  2.205011  2.324159
H    -1.710972  -0.476252  2.812773
C    -2.893798  1.280051  3.318731
C    -4.323461  0.758079  3.554261
C    -4.446774  -0.623922  4.225242
C    -5.920399  -0.951735  4.455555
N    -6.109633  -2.326941  5.082236
H    -2.993471  2.305936  2.926650
H    -2.357219  1.358038  4.277003
H    -4.867906  0.743852  2.598096
H    -4.828979  1.509574  4.178420
H    -3.907932  -0.624248  5.186732
H    -3.997241  -1.393955  3.578983
H    -6.486025  -0.971413  3.515538
H    -6.404799  -0.240821  5.136714
H    -5.643708  -2.396094  5.998477
H    -5.726514  -3.072345  4.482982
H    -7.108320  -2.535454  5.230865
N    -3.003542  0.865819  0.080480
C    -3.835340  0.570150  -1.089328
H    -2.689751  1.822873  0.203566
H    -3.423526  1.077463  -1.967548
H    -4.870291  0.903269  -0.935870
H    -3.834855  -0.510878  -1.256102
Sr    3.221188  2.511672  0.750317
