35
Energy: -105403.608240 eV PBE+vdW (tier 2 basis)
C    -0.702409  1.623940  0.659404
C    -0.441055  0.498639  1.630641
O    0.672866  0.136395  1.959696
H    -1.583364  2.222291  0.925076
H    -0.831124  1.238230  -0.363019
H    0.180347  2.271144  0.650518
N    -1.549343  -0.155001  2.212176
C    -2.790773  -0.440889  1.513621
C    -4.005313  -0.019012  2.360932
O    -4.880510  0.794400  1.842636
H    -1.214489  -0.877541  2.848043
H    -2.829735  0.229146  0.645020
C    -2.906281  -1.899350  0.982809
C    -1.754155  -2.324379  0.033612
C    -0.507641  -2.910476  0.727919
C    0.663062  -3.271250  -0.185243
N    0.458637  -4.560339  -0.979889
H    -3.860900  -1.986373  0.443307
H    -2.974526  -2.608325  1.821294
H    -1.456890  -1.468555  -0.593609
H    -2.182523  -3.065476  -0.659134
H    -0.783188  -3.783520  1.342594
H    -0.074199  -2.178438  1.424640
H    1.573831  -3.435733  0.402316
H    0.874712  -2.489663  -0.925788
H    1.286871  -4.768294  -1.558242
H    -0.348908  -4.510617  -1.615489
H    0.315732  -5.368375  -0.356601
N    -4.188274  -0.417278  3.603601
C    -3.353541  -1.271321  4.459907
H    -5.006024  -0.022379  4.067761
H    -2.891753  -2.077815  3.885527
H    -4.001133  -1.721869  5.218332
H    -2.583868  -0.668556  4.959066
Sr    -6.354097  2.266584  1.133467
