35
Energy: -105405.791448 eV PBE+vdW (tier 2 basis)
C    0.249264  0.421127  -0.093724
C    0.250852  0.194677  1.379443
O    1.289974  0.402496  2.075192
H    0.500005  1.474385  -0.287755
H    -0.707083  0.188189  -0.573055
H    1.042323  -0.181258  -0.557878
N    -0.881185  -0.232339  1.972359
C    -1.056949  -0.358660  3.427704
C    -0.208356  -1.540646  3.971715
O    0.915042  -1.252727  4.495689
H    -1.695567  -0.367077  1.377752
H    -0.569575  0.517227  3.881694
C    -2.554304  -0.285828  3.803360
C    -2.804343  -0.354514  5.322286
C    -4.161745  0.204228  5.806779
C    -5.376419  -0.659194  5.466233
N    -6.638205  -0.102880  6.115315
H    -3.127519  -1.057903  3.271518
H    -2.906346  0.684377  3.418531
H    -2.034884  0.240036  5.836931
H    -2.677735  -1.385140  5.689365
H    -4.302400  1.221423  5.407236
H    -4.095886  0.304814  6.901411
H    -5.273407  -1.684139  5.844911
H    -5.589098  -0.703353  4.391023
H    -6.844441  0.855970  5.797040
H    -6.554303  -0.069938  7.142853
H    -7.463970  -0.680872  5.896311
N    -0.584402  -2.808760  3.883482
C    -1.765296  -3.406569  3.254214
H    0.077714  -3.463468  4.303223
H    -2.619210  -3.420831  3.943188
H    -1.520516  -4.441149  2.994076
H    -2.029392  -2.883523  2.330571
Sr    2.753361  -0.022183  3.780009
