35
Energy: -105405.032634 eV PBE+vdW (tier 2 basis)
C    -0.855562  1.384032  -1.068716
C    -0.060246  0.355649  -0.328455
O    0.862463  -0.272340  -0.925855
H    -0.998760  2.294449  -0.477927
H    -1.851118  0.994647  -1.333024
H    -0.331292  1.634796  -1.996342
N    -0.272782  0.089732  0.994572
C    -1.586655  -0.225070  1.584771
C    -2.123275  -1.507473  0.864443
O    -1.564679  -1.911909  -0.209744
H    0.467286  -0.512399  1.359436
H    -1.359035  -0.536598  2.616477
C    -2.616962  0.928695  1.681800
C    -2.408980  1.916412  2.853391
C    -1.318990  2.985465  2.660844
C    -1.064865  3.893123  3.866784
N    -2.183936  4.896635  4.137139
H    -3.603617  0.469354  1.817506
H    -2.691285  1.465815  0.729465
H    -2.206788  1.346855  3.775360
H    -3.385278  2.401787  3.011228
H    -1.534859  3.603952  1.773777
H    -0.348354  2.508102  2.459804
H    -0.942641  3.324302  4.797345
H    -0.163598  4.499036  3.716884
H    -2.339272  5.522729  3.333295
H    -1.946779  5.495747  4.943082
H    -3.081188  4.442151  4.356391
N    -3.119391  -2.200702  1.390077
C    -3.844175  -2.011267  2.651759
H    -3.407491  -3.009004  0.835990
H    -4.040845  -2.998833  3.083142
H    -4.805280  -1.510908  2.476180
H    -3.248912  -1.437589  3.367914
Sr    0.198019  -2.370243  -1.680843
