35
Energy: -105405.308343 eV PBE+vdW (tier 2 basis)
C    0.048375  0.204762  0.013315
C    -0.128207  -0.078692  1.463348
O    0.842706  -0.472289  2.176511
H    0.423102  -0.723117  -0.449189
H    0.830695  0.957783  -0.152883
H    -0.872893  0.493212  -0.500344
N    -1.352220  0.040740  2.054289
C    -2.158799  1.257561  1.952617
C    -1.481899  2.320567  2.876705
O    -0.484912  1.976621  3.599149
H    -1.351949  -0.357099  2.993826
H    -2.055040  1.640827  0.925845
C    -3.667837  0.982224  2.163396
C    -4.122240  0.367654  3.499060
C    -5.645556  0.105446  3.474623
C    -6.152806  -0.549197  4.758965
N    -7.651237  -0.817771  4.695608
H    -3.957500  0.314070  1.339133
H    -4.214750  1.918702  1.992572
H    -3.874727  1.035656  4.339581
H    -3.605004  -0.588002  3.681526
H    -5.881786  -0.541856  2.614665
H    -6.175458  1.057631  3.311359
H    -5.997707  0.083948  5.641453
H    -5.682038  -1.522921  4.943622
H    -7.989050  -1.260622  5.563838
H    -7.895962  -1.449079  3.917973
H    -8.193218  0.049722  4.566883
N    -1.893049  3.577786  2.877135
C    -2.907162  4.239417  2.047229
H    -1.386505  4.184673  3.523584
H    -3.870245  4.289580  2.570306
H    -3.027661  3.729104  1.086981
H    -2.567750  5.261572  1.849075
Sr    1.546926  0.857095  3.947949
