35
Energy: -105404.626214 eV PBE+vdW (tier 2 basis)
C    0.560791  0.358390  1.116005
C    0.014642  -0.386864  2.284570
O    0.862339  -0.986171  3.067153
H    -0.208568  0.715695  0.432392
H    1.252424  -0.278353  0.554962
H    1.121166  1.224515  1.503718
N    -1.250282  -0.291247  2.710953
C    -2.456758  -0.309481  1.863084
C    -2.165417  -1.311177  0.688977
O    -1.053204  -1.843779  0.604071
H    -1.388556  -0.738665  3.615387
H    -3.199854  -0.812893  2.500235
C    -3.122524  1.048002  1.523460
C    -2.530593  1.974201  0.449411
C    -3.503066  3.136854  0.150603
C    -2.947677  4.111759  -0.884693
N    -3.932386  5.238710  -1.175088
H    -3.219858  1.596750  2.471997
H    -4.158193  0.803626  1.237898
H    -2.337860  1.412938  -0.478641
H    -1.569742  2.389221  0.787480
H    -3.721624  3.676891  1.086180
H    -4.459388  2.723606  -0.209192
H    -2.750461  3.629092  -1.850053
H    -2.025248  4.599735  -0.546123
H    -3.554294  5.898253  -1.871700
H    -4.151984  5.782548  -0.327444
H    -4.824358  4.880625  -1.547300
N    -3.185089  -1.554861  -0.145893
C    -3.110988  -2.549628  -1.220737
H    -4.096933  -1.162074  0.063051
H    -3.331468  -3.555895  -0.841541
H    -2.104372  -2.543635  -1.648550
H    -3.839669  -2.290452  -1.994446
Sr    2.428951  -2.287857  3.842183
