35
Energy: -105405.357784 eV PBE+vdW (tier 2 basis)
C    0.323830  0.146545  0.256469
C    0.052490  -0.020779  1.709637
O    0.991382  -0.246167  2.529687
H    1.083184  0.919905  0.080687
H    -0.568589  0.341867  -0.344102
H    0.771291  -0.798531  -0.093972
N    -1.221307  0.032002  2.191913
C    -2.149365  1.131276  1.903179
C    -1.478654  2.426625  2.450451
O    -0.583609  2.319016  3.355985
H    -1.278047  -0.289611  3.159637
H    -2.274116  1.215398  0.815263
C    -3.513284  0.776033  2.558614
C    -4.751120  1.574120  2.115307
C    -6.049465  0.932987  2.654954
C    -7.293151  1.691664  2.190751
N    -8.575130  1.034403  2.685309
H    -3.405796  0.832824  3.654040
H    -3.672229  -0.285002  2.313409
H    -4.800019  1.603255  1.015733
H    -4.688933  2.615466  2.464054
H    -6.019491  0.906366  3.756028
H    -6.105288  -0.111783  2.309162
H    -7.375351  1.721843  1.096961
H    -7.318743  2.721560  2.568175
H    -9.407270  1.555047  2.367731
H    -8.616562  0.995046  3.714597
H    -8.671186  0.068619  2.337371
N    -1.794419  3.622844  1.978913
C    -2.664935  4.008691  0.865057
H    -1.305831  4.393601  2.439007
H    -3.558013  4.522986  1.239656
H    -2.963865  3.137875  0.277656
H    -2.114393  4.697730  0.213863
Sr    1.387750  1.340595  4.183561
