35
Energy: -105404.986070 eV PBE+vdW (tier 2 basis)
C    -0.477799  0.347106  -0.031202
C    -0.273876  0.175279  1.440169
O    0.866162  0.413290  1.942406
H    -0.349258  -0.613677  -0.553432
H    0.290211  1.033116  -0.404822
H    -1.467030  0.743611  -0.274860
N    -1.280034  -0.194179  2.281283
C    -2.157619  -1.366513  2.116952
C    -1.238370  -2.616327  2.303985
O    0.008036  -2.516914  2.041036
H    -1.009856  -0.050707  3.256150
H    -2.844305  -1.322478  2.974350
C    -3.037209  -1.342501  0.830841
C    -4.360789  -2.126815  0.938860
C    -5.478228  -1.691366  -0.038373
C    -5.285330  -2.126167  -1.490780
N    -6.529705  -1.819473  -2.316555
H    -2.456057  -1.675281  -0.039494
H    -3.278980  -0.281214  0.675094
H    -4.781211  -1.978752  1.943681
H    -4.187221  -3.207299  0.832141
H    -5.606856  -0.598324  0.013432
H    -6.415201  -2.131743  0.337471
H    -5.126880  -3.208420  -1.580771
H    -4.458035  -1.610177  -1.993102
H    -6.413852  -2.107556  -3.300058
H    -6.753917  -0.813003  -2.317266
H    -7.358355  -2.313388  -1.951119
N    -1.712907  -3.760381  2.774022
C    -3.025280  -4.107847  3.328214
H    -1.015386  -4.505633  2.818510
H    -3.590843  -4.730783  2.625291
H    -3.600376  -3.212588  3.575024
H    -2.865778  -4.680900  4.248760
Sr    2.108720  -1.492293  2.354572
