35
Energy: -105405.860838 eV PBE+vdW (tier 2 basis)
C    1.215683  0.891093  0.988185
C    0.606723  0.099150  2.096264
O    1.300646  -0.715763  2.773494
H    0.498936  1.521959  0.452288
H    1.705082  0.214266  0.275252
H    2.006731  1.528920  1.410025
N    -0.700204  0.277863  2.371965
C    -1.414826  -0.300758  3.522400
C    -1.708432  -1.803615  3.270837
O    -0.794285  -2.641318  3.541464
H    -1.204231  0.930349  1.777698
H    -0.688695  -0.326058  4.348459
C    -2.557863  0.627775  4.009454
C    -3.707938  1.004306  3.049257
C    -4.463973  2.303280  3.422531
C    -5.320196  2.200545  4.686181
N    -6.142497  3.466105  4.894158
H    -2.051642  1.551795  4.329941
H    -2.959404  0.173325  4.926749
H    -4.449845  0.192543  2.974299
H    -3.336204  1.162605  2.025152
H    -5.113388  2.559197  2.571004
H    -3.740528  3.127688  3.526469
H    -4.727222  2.075996  5.600448
H    -6.045784  1.379106  4.627701
H    -5.547124  4.301825  4.996056
H    -6.724067  3.401731  5.743862
H    -6.780509  3.641808  4.102837
N    -2.871196  -2.193467  2.777545
C    -3.229066  -3.588671  2.491128
H    -3.556508  -1.479892  2.550751
H    -2.823086  -3.897748  1.519254
H    -4.319167  -3.670906  2.464808
H    -2.833566  -4.239326  3.276684
Sr    1.514114  -2.814192  3.656396
