35
Energy: -105404.278207 eV PBE+vdW (tier 2 basis)
C    -0.956934  0.839708  -0.251837
C    -0.758083  0.620976  1.215810
O    0.300555  0.194926  1.705315
H    -0.229606  1.581971  -0.608456
H    -1.965416  1.172596  -0.519608
H    -0.731216  -0.095822  -0.781514
N    -1.820674  0.898357  2.041986
C    -1.700588  0.769521  3.491172
C    -2.917699  -0.001897  4.017554
O    -3.806542  0.570482  4.771311
H    -2.642086  1.339606  1.638458
H    -0.827078  0.110926  3.627339
C    -1.434325  2.102628  4.214485
C    -0.159426  2.861835  3.772307
C    1.154783  2.589172  4.534110
C    1.938973  1.293869  4.324760
N    2.511147  1.154262  2.927939
H    -1.389065  1.911409  5.298982
H    -2.296655  2.766074  4.041559
H    -0.364757  3.930176  3.921398
H    -0.022390  2.763857  2.685576
H    0.964987  2.648814  5.617012
H    1.834537  3.432765  4.332965
H    2.788186  1.269673  5.017963
H    1.346060  0.386845  4.492846
H    2.956250  2.025013  2.608965
H    1.748788  0.872952  2.258340
H    3.231266  0.420002  2.897136
N    -3.076967  -1.269945  3.693948
C    -2.223735  -2.127359  2.860768
H    -3.929155  -1.711422  4.040769
H    -2.306434  -3.153104  3.233892
H    -1.178097  -1.811651  2.910805
H    -2.565568  -2.097293  1.818155
Sr    -5.317683  1.461989  6.111520
