35
Energy: -105405.037005 eV PBE+vdW (tier 2 basis)
C    0.224963  0.423794  0.402911
C    -0.207976  0.351837  1.831596
O    0.610834  0.677004  2.743770
H    -0.598535  0.621534  -0.286206
H    0.725301  -0.509450  0.101131
H    0.968600  1.225970  0.321077
N    -1.473590  0.001737  2.203199
C    -2.178873  -1.239855  1.832169
C    -1.459636  -2.381527  2.618062
O    -0.215447  -2.263888  2.882835
H    -1.637500  0.246633  3.181927
H    -3.191094  -1.125091  2.244452
C    -2.322209  -1.474385  0.303568
C    -3.371258  -2.528636  -0.095451
C    -3.609051  -2.673626  -1.618502
C    -4.515927  -1.596762  -2.217528
N    -4.865901  -1.914040  -3.666357
H    -1.353179  -1.752290  -0.132476
H    -2.597700  -0.494618  -0.112786
H    -4.332716  -2.317824  0.398031
H    -3.050550  -3.516718  0.260026
H    -4.078121  -3.656420  -1.780290
H    -2.645104  -2.698242  -2.151230
H    -4.058913  -0.599915  -2.232391
H    -5.475036  -1.529396  -1.688460
H    -5.481578  -1.192443  -4.071792
H    -5.360458  -2.815414  -3.749237
H    -4.028172  -1.971340  -4.264345
N    -2.121730  -3.442070  3.056773
C    -3.554031  -3.758700  3.056990
H    -1.529806  -4.127563  3.530271
H    -3.765854  -4.577706  2.359403
H    -4.153391  -2.885313  2.791411
H    -3.834887  -4.080212  4.066716
Sr    1.576471  -1.099952  3.868043
