35
Energy: -105403.644440 eV PBE+vdW (tier 2 basis)
C    0.208465  0.324793  0.326875
C    0.183873  0.825386  1.746227
O    1.101183  1.498923  2.212606
H    0.817003  0.990947  -0.292254
H    -0.779049  0.195249  -0.129059
H    0.713108  -0.655289  0.328692
N    -0.837246  0.390967  2.618738
C    -2.278654  0.615651  2.429997
C    -2.935276  -0.455035  1.548506
O    -4.143590  -0.317617  1.113155
H    -0.555026  0.618060  3.574536
H    -2.719768  0.358020  3.411631
C    -2.660867  2.107967  2.216622
C    -1.944178  2.916113  1.113280
C    -1.585070  4.363568  1.514471
C    -0.524593  4.584633  2.596926
N    0.896703  4.263733  2.163640
H    -2.468014  2.573739  3.194078
H    -3.750918  2.180260  2.092104
H    -2.578937  2.970317  0.218407
H    -1.036885  2.407040  0.769442
H    -2.488011  4.875791  1.880820
H    -1.296849  4.921811  0.609996
H    -0.522795  5.640556  2.891780
H    -0.698119  3.991126  3.503521
H    1.570813  4.632773  2.849439
H    1.127492  4.697304  1.259508
H    1.069018  3.228115  2.102105
N    -2.269094  -1.572930  1.367468
C    -2.750601  -2.772563  0.686536
H    -1.343440  -1.587777  1.805407
H    -1.926939  -3.488621  0.614918
H    -3.083576  -2.530398  -0.330944
H    -3.561852  -3.245478  1.257805
Sr    -6.264085  -0.527451  0.514743
