35
Energy: -105404.138100 eV PBE+vdW (tier 2 basis)
C    1.161740  -0.313520  0.201375
C    0.654594  0.560890  1.311042
O    1.308557  1.509884  1.768620
H    1.995274  -0.919954  0.585065
H    1.569530  0.318786  -0.596780
H    0.409583  -0.990122  -0.219016
N    -0.598927  0.262645  1.786896
C    -1.270960  0.751313  2.994366
C    -2.513612  1.611183  2.710450
O    -3.546265  1.433703  3.484825
H    -1.033397  -0.551283  1.361260
H    -1.706529  -0.150694  3.450103
C    -0.360607  1.359224  4.108641
C    -0.000158  2.853832  4.058407
C    1.239384  3.207144  4.926570
C    2.447943  3.762478  4.174634
N    3.193401  2.716933  3.362924
H    0.543381  0.736551  4.111462
H    -0.858078  1.147278  5.066755
H    -0.855465  3.449071  4.408503
H    0.189206  3.163924  3.025567
H    1.548155  2.346658  5.541787
H    0.972543  3.985955  5.653226
H    2.159703  4.550454  3.467674
H    3.177464  4.188305  4.873790
H    3.959684  3.149855  2.829719
H    2.562067  2.221039  2.683009
H    3.621255  2.010938  3.975983
N    -2.604390  2.491113  1.737557
C    -1.622856  2.921793  0.730800
H    -3.516042  2.943614  1.659314
H    -1.815132  3.977788  0.514243
H    -1.754384  2.341572  -0.191197
H    -0.602435  2.811916  1.100785
Sr    -5.358702  1.026647  4.677804
