35
Energy: -105405.913373 eV PBE+vdW (tier 2 basis)
C    0.428365  -0.388280  -0.058654
C    -0.072852  0.290215  1.175272
O    0.236877  -0.152503  2.320573
H    0.107755  0.089091  -0.990440
H    0.081324  -1.431716  -0.051400
H    1.526189  -0.423956  -0.035482
N    -0.856359  1.375232  1.019132
C    -1.573781  2.184490  2.032527
C    -0.606758  2.909252  2.997797
O    0.042041  2.272473  3.881817
H    -0.999008  1.661264  0.054640
H    -2.077406  2.961435  1.440909
C    -2.646971  1.390859  2.814279
C    -3.833557  0.853612  1.984755
C    -4.996046  1.846195  1.762730
C    -6.182284  1.135997  1.105705
N    -7.398461  2.040713  0.957637
H    -3.015766  2.036299  3.626050
H    -2.157529  0.538999  3.304196
H    -4.228343  -0.021216  2.521198
H    -3.476684  0.466650  1.017541
H    -5.308145  2.258151  2.736002
H    -4.678997  2.696828  1.137963
H    -6.520563  0.279038  1.701744
H    -5.947474  0.778462  0.095405
H    -8.185329  1.533399  0.523708
H    -7.204618  2.860937  0.364753
H    -7.731008  2.390575  1.868533
N    -0.518982  4.225849  2.888265
C    0.302484  5.091893  3.741116
H    -1.038178  4.680409  2.141373
H    -0.201069  6.057687  3.848597
H    1.287685  5.252445  3.284077
H    0.421834  4.629954  4.724532
Sr    1.079615  0.286270  4.394148
