35
Energy: -105404.210680 eV PBE+vdW (tier 2 basis)
C    0.143652  0.302405  0.598382
C    0.038323  -0.507540  1.846107
O    1.108063  -0.835927  2.506650
H    -0.429375  -0.143808  -0.226516
H    1.186642  0.407321  0.289449
H    -0.280166  1.306521  0.756947
N    -1.144635  -0.889720  2.303991
C    -2.452993  -0.610916  1.667768
C    -2.891455  0.885020  1.707609
O    -3.379034  1.345535  0.680462
H    -1.144895  -1.412384  3.180366
H    -2.318420  -0.803073  0.596011
C    -3.571038  -1.546238  2.206743
C    -4.440786  -2.194979  1.106067
C    -5.292338  -1.254201  0.227924
C    -6.578331  -0.706433  0.841176
N    -7.731464  -1.707258  0.765785
H    -4.194733  -0.996459  2.926426
H    -3.109962  -2.367304  2.776923
H    -5.070578  -2.955650  1.596088
H    -3.781545  -2.769833  0.439206
H    -5.534932  -1.766093  -0.716890
H    -4.702895  -0.375344  -0.072415
H    -6.929135  0.180135  0.300428
H    -6.479465  -0.440813  1.901111
H    -8.591744  -1.323728  1.184303
H    -7.518536  -2.587918  1.254095
H    -7.949312  -1.944945  -0.213188
N    -2.758542  1.604224  2.849640
C    -2.346689  1.185185  4.184223
H    -3.091045  2.561743  2.748618
H    -2.761738  1.891345  4.910615
H    -1.253424  1.189120  4.307348
H    -2.741163  0.194776  4.445422
Sr    3.182221  -1.193469  3.148770
