35
Energy: -105404.464814 eV PBE+vdW (tier 2 basis)
C    0.667233  0.380593  2.689353
C    -0.327597  -0.725363  2.567203
O    -0.028974  -1.916640  2.984650
H    0.201820  1.343963  2.928121
H    1.202252  0.503738  1.733227
H    1.406770  0.143518  3.459802
N    -1.514720  -0.513707  2.018233
C    -1.975747  0.732659  1.361387
C    -2.486924  1.859379  2.293461
O    -2.221082  3.021690  1.943478
H    -2.135769  -1.321968  1.964699
H    -1.097457  1.180419  0.880727
C    -2.993927  0.396142  0.245778
C    -3.328937  1.603029  -0.657066
C    -4.552192  2.448498  -0.234745
C    -4.483158  3.895522  -0.717579
N    -3.594603  4.745853  0.192109
H    -3.914130  -0.030614  0.675274
H    -2.539158  -0.390081  -0.374058
H    -3.511182  1.225549  -1.671432
H    -2.430097  2.233452  -0.742616
H    -4.711976  2.437184  0.854546
H    -5.463244  2.007685  -0.661592
H    -5.468168  4.373842  -0.729417
H    -4.065033  3.965072  -1.728749
H    -3.069267  5.454113  -0.335353
H    -2.923724  4.153849  0.740074
H    -4.161790  5.251905  0.883387
N    -3.214565  1.595867  3.393283
C    -3.742715  0.329800  3.896941
H    -3.461517  2.433558  3.918674
H    -4.570158  0.553930  4.577439
H    -2.990204  -0.237294  4.461578
H    -4.153011  -0.287285  3.088655
Sr    0.980952  -3.758254  3.675240
