35
Energy: -105403.946592 eV PBE+vdW (tier 2 basis)
C    0.285591  1.635581  1.132776
C    -0.024077  0.348571  1.833373
O    0.946172  -0.429303  2.195283
H    0.899816  2.274394  1.784490
H    -0.607452  2.205763  0.854421
H    0.856448  1.431959  0.215267
N    -1.292943  0.050635  2.056851
C    -1.916442  -1.091807  2.769721
C    -3.223087  -1.451548  2.002370
O    -4.324554  -1.344547  2.557463
H    -1.953535  0.770489  1.760958
H    -1.221510  -1.940653  2.695785
C    -2.104311  -0.668283  4.252675
C    -3.096295  -1.351085  5.220803
C    -3.087225  -2.874849  5.444868
C    -3.871674  -3.767932  4.480160
N    -5.286514  -3.270116  4.261828
H    -2.388408  0.394302  4.250159
H    -1.097016  -0.705199  4.696328
H    -4.107642  -0.996651  4.990087
H    -2.864964  -0.897502  6.195193
H    -3.482369  -3.056161  6.456195
H    -2.059885  -3.269212  5.474730
H    -3.942198  -4.786654  4.878935
H    -3.428862  -3.830310  3.478891
H    -5.237913  -2.421394  3.649670
H    -5.753487  -3.031038  5.147266
H    -5.867789  -3.976244  3.791636
N    -3.113020  -1.873922  0.726302
C    -1.927274  -2.093378  -0.095463
H    -4.015086  -2.029378  0.275793
H    -2.153417  -2.871151  -0.832311
H    -1.087290  -2.448760  0.513101
H    -1.632412  -1.185027  -0.639850
Sr    3.113574  -0.854506  2.470718
