35
Energy: -105404.502248 eV PBE+vdW (tier 2 basis)
C    -0.011711  -1.298126  1.050991
C    0.077293  0.147940  1.407655
O    1.237526  0.638591  1.728049
H    -1.006458  -1.620181  0.734765
H    0.277538  -1.899392  1.925598
H    0.701374  -1.524563  0.246621
N    -0.979679  0.937315  1.415404
C    -2.356531  0.631656  0.982356
C    -2.961381  1.981444  0.541644
O    -2.638414  3.021470  1.158923
H    -0.860653  1.924882  1.675688
H    -2.296122  -0.033178  0.112560
C    -3.243206  -0.063025  2.061195
C    -3.146136  0.367901  3.537483
C    -3.386442  1.838067  3.926845
C    -4.730785  2.429948  3.478781
N    -4.548318  3.878372  3.068607
H    -3.015576  -1.138104  2.031427
H    -4.280588  0.008281  1.701390
H    -2.157529  0.089749  3.932030
H    -3.854282  -0.273307  4.082829
H    -2.577088  2.457290  3.515767
H    -3.306490  1.914086  5.019697
H    -5.491592  2.400863  4.266527
H    -5.145857  1.929440  2.595963
H    -3.856204  3.903087  2.281727
H    -5.431205  4.307406  2.759615
H    -4.189171  4.451199  3.844347
N    -3.843862  1.971018  -0.462348
C    -4.264606  0.844702  -1.306563
H    -4.189015  2.893378  -0.724652
H    -5.079851  1.190968  -1.948186
H    -4.645890  0.009054  -0.708350
H    -3.448170  0.501413  -1.955565
Sr    3.395935  0.979153  2.012909
