35
Energy: -105404.642574 eV PBE+vdW (tier 2 basis)
C    0.272844  0.697138  0.640614
C    -0.252064  0.075780  1.891050
O    0.618585  -0.291546  2.783686
H    1.028368  0.043930  0.190613
H    0.753369  1.649608  0.915842
H    -0.489123  0.903468  -0.109489
N    -1.542823  0.084922  2.255107
C    -2.663553  -0.195548  1.344144
C    -2.258300  -1.529193  0.610247
O    -1.060527  -1.829581  0.555075
H    -1.684485  -0.270214  3.200016
H    -3.522727  -0.377780  2.004855
C    -3.019300  0.949357  0.353590
C    -4.505250  1.076148  -0.046642
C    -5.395426  1.876912  0.926576
C    -6.784312  2.083140  0.320510
N    -7.671664  2.972142  1.182900
H    -2.448596  0.812006  -0.573221
H    -2.680798  1.898337  0.793817
H    -4.947995  0.084829  -0.230856
H    -4.526097  1.580399  -1.023668
H    -4.926731  2.856545  1.114361
H    -5.481860  1.367665  1.900144
H    -7.331797  1.140421  0.196985
H    -6.729635  2.577739  -0.657554
H    -8.598546  3.103267  0.749612
H    -7.262113  3.909019  1.312199
H    -7.827482  2.571848  2.119247
N    -3.248215  -2.240440  0.057436
C    -3.029212  -3.470770  -0.709232
H    -4.207545  -1.966355  0.236920
H    -3.156771  -4.355503  -0.072419
H    -2.013191  -3.460657  -1.112370
H    -3.747609  -3.514260  -1.534122
Sr    2.424339  -1.173879  3.628387
