35
Energy: -105404.626604 eV PBE+vdW (tier 2 basis)
C    0.023643  2.149586  0.645278
C    -0.126427  1.114227  1.707407
O    0.875152  0.895671  2.513162
H    0.206763  3.127985  1.111833
H    -0.847863  2.232495  -0.008809
H    0.902633  1.913619  0.029755
N    -1.224613  0.414441  1.871406
C    -2.531723  0.470220  1.185785
C    -3.488590  -0.009632  2.316244
O    -3.064003  -0.892092  3.069142
H    -1.283898  -0.291041  2.629945
H    -2.741388  1.499229  0.870945
C    -2.505619  -0.499435  -0.025946
C    -3.796158  -0.714782  -0.847467
C    -4.838921  -1.673740  -0.226294
C    -5.553886  -2.597610  -1.208919
N    -6.508227  -1.871927  -2.156423
H    -2.148729  -1.474745  0.338554
H    -1.730946  -0.123123  -0.710021
H    -3.451939  -1.139466  -1.804162
H    -4.250521  0.255108  -1.102617
H    -5.577297  -1.133505  0.384351
H    -4.338706  -2.358987  0.475410
H    -6.171274  -3.334553  -0.681515
H    -4.849888  -3.137857  -1.854757
H    -6.965510  -2.538339  -2.797003
H    -6.023642  -1.175754  -2.739667
H    -7.256178  -1.384750  -1.642432
N    -4.715918  0.532911  2.415120
C    -5.250292  1.706141  1.722552
H    -5.248588  0.178374  3.208377
H    -5.156465  1.614992  0.633811
H    -4.766057  2.636304  2.050591
H    -6.315811  1.785493  1.958347
Sr    2.620429  0.741159  3.812622
