35
Energy: -105405.640930 eV PBE+vdW (tier 2 basis)
C    -0.698828  -1.296667  -0.519715
C    -0.386000  -0.869949  0.874438
O    0.807438  -0.635340  1.235236
H    -0.412418  -0.483149  -1.203594
H    -1.755028  -1.536783  -0.679920
H    -0.083401  -2.165159  -0.789043
N    -1.401240  -0.724017  1.744234
C    -1.316623  -0.148257  3.104069
C    -0.621788  -1.168413  4.041090
O    0.643996  -1.151033  4.133544
H    -2.333552  -0.934150  1.393000
H    -0.624824  0.706533  3.052865
C    -2.724170  0.364929  3.484431
C    -2.871076  1.406746  4.616750
C    -2.829354  0.894952  6.072313
C    -3.710072  1.664133  7.060772
N    -3.284548  3.110318  7.300988
H    -3.414414  -0.477251  3.664812
H    -3.105390  0.851546  2.574204
H    -3.854882  1.869408  4.439489
H    -2.132814  2.209934  4.463478
H    -1.799133  0.826760  6.455098
H    -3.229861  -0.129455  6.120594
H    -3.700949  1.188414  8.048691
H    -4.750993  1.716632  6.716575
H    -3.914980  3.562573  7.981699
H    -3.316473  3.677973  6.442440
H    -2.331498  3.174326  7.686667
N    -1.356768  -2.057925  4.688835
C    -0.828688  -3.129541  5.540725
H    -2.361101  -2.045797  4.530852
H    -1.581789  -3.387050  6.291447
H    0.083178  -2.787519  6.037952
H    -0.608468  -4.023166  4.941762
Sr    2.491969  -0.925038  2.728519
