35
Energy: -105404.644632 eV PBE+vdW (tier 2 basis)
C    0.312835  -0.459208  0.565927
C    -0.005023  -0.423627  2.018364
O    0.843912  -0.950029  2.857210
H    -0.551355  -0.221617  -0.062631
H    0.661852  -1.465674  0.300330
H    1.140088  0.239831  0.367311
N    -1.099162  0.125235  2.526059
C    -2.279505  0.797185  1.896008
C    -3.058527  -0.203722  0.989041
O    -2.661667  -0.418032  -0.155702
H    -1.151358  0.065247  3.542578
H    -2.898308  1.070095  2.762285
C    -1.914243  2.081287  1.132313
C    -3.156218  2.870463  0.676061
C    -2.762088  4.182405  -0.025634
C    -3.907817  5.119014  -0.399995
N    -4.708193  4.643467  -1.610836
H    -1.294780  2.712947  1.786432
H    -1.312196  1.820485  0.251706
H    -3.789803  3.103509  1.547067
H    -3.753793  2.230073  0.006734
H    -2.140757  3.979345  -0.913667
H    -2.120404  4.773290  0.645813
H    -4.634549  5.241292  0.413117
H    -3.530912  6.111200  -0.674701
H    -4.111233  4.561860  -2.446662
H    -5.148495  3.727015  -1.453140
H    -5.461586  5.309442  -1.838663
N    -4.146877  -0.765585  1.553025
C    -5.002931  -1.728292  0.860027
H    -4.407971  -0.498080  2.496503
H    -6.021924  -1.334193  0.764572
H    -5.039422  -2.672567  1.416458
H    -4.586047  -1.907664  -0.134637
Sr    2.505579  -2.016732  3.803966
