35
Energy: -105404.501495 eV PBE+vdW (tier 2 basis)
C    -0.109633  1.822724  0.319823
C    0.090047  0.752857  1.340450
O    1.292409  0.430857  1.716318
H    -0.303622  1.360463  -0.662293
H    0.790252  2.438275  0.231617
H    -0.970653  2.466162  0.544739
N    -0.940851  0.104043  1.861020
C    -2.367749  0.362221  1.552383
C    -2.882208  1.695440  2.193415
O    -3.222149  2.580170  1.415076
H    -0.723911  -0.617090  2.549651
H    -2.420212  0.587908  0.480730
C    -3.244231  -0.877037  1.811639
C    -4.716814  -0.582818  1.466806
C    -5.628852  -1.821130  1.552717
C    -7.064804  -1.451818  1.183459
N    -7.997583  -2.655035  1.237048
H    -3.161000  -1.209993  2.856833
H    -2.869784  -1.699413  1.182292
H    -4.771621  -0.161140  0.451142
H    -5.101681  0.199732  2.138689
H    -5.600737  -2.240035  2.571666
H    -5.258828  -2.603627  0.870637
H    -7.139918  -1.058812  0.161801
H    -7.491729  -0.709371  1.869215
H    -8.031708  -3.071737  2.178770
H    -7.703709  -3.395720  0.583767
H    -8.961807  -2.390580  0.984903
N    -2.918925  1.845861  3.541557
C    -2.674355  0.884339  4.608480
H    -3.283239  2.756176  3.818064
H    -1.748599  0.316716  4.447341
H    -3.507555  0.180218  4.745103
H    -2.548537  1.435664  5.545724
Sr    3.476123  0.364711  1.921475
