35
Energy: -105404.646025 eV PBE+vdW (tier 2 basis)
C    -0.058923  -1.505575  1.790672
C    0.196800  -0.101254  1.354246
O    1.386995  0.393099  1.526026
H    0.225046  -1.612096  2.846793
H    -1.097342  -1.826812  1.683457
H    0.577353  -2.188549  1.208891
N    -0.736012  0.647583  0.798586
C    -2.116480  0.266534  0.429446
C    -2.476101  1.187156  -0.752875
O    -2.077957  2.375230  -0.714627
H    -0.501261  1.607167  0.515430
H    -2.106071  -0.781894  0.112394
C    -3.123835  0.436990  1.601365
C    -3.478569  1.882916  1.998412
C    -4.722179  2.459555  1.280329
C    -4.718990  3.980269  1.141326
N    -3.941053  4.422318  -0.096156
H    -2.701672  -0.095032  2.465459
H    -4.035631  -0.118488  1.336384
H    -2.606152  2.536487  1.845409
H    -3.670408  1.905192  3.078904
H    -5.622182  2.184443  1.846621
H    -4.868920  2.005954  0.286814
H    -4.249910  4.468936  2.003685
H    -5.729534  4.389065  1.033173
H    -3.579823  5.379733  0.001473
H    -3.144106  3.769974  -0.312420
H    -4.553558  4.423064  -0.921638
N    -3.230626  0.694583  -1.737617
C    -3.727729  -0.676944  -1.910418
H    -3.411791  1.348767  -2.497703
H    -4.422698  -0.680183  -2.754917
H    -4.278418  -1.019829  -1.027007
H    -2.911960  -1.373989  -2.142358
Sr    3.531089  0.679623  1.932859
