35
Energy: -105405.244794 eV PBE+vdW (tier 2 basis)
C    0.776223  -1.607906  1.608815
C    0.245852  -0.665829  2.641418
O    0.903831  -0.435373  3.697544
H    0.249342  -2.574627  1.655390
H    1.837267  -1.793102  1.802471
H    0.653602  -1.211733  0.595056
N    -0.950097  -0.035630  2.469614
C    -2.189091  -0.725251  2.068440
C    -2.385209  -1.942645  3.038013
O    -1.654691  -2.046217  4.075626
H    -1.101461  0.679677  3.180507
H    -2.991611  -0.020657  2.342220
C    -2.353528  -1.017109  0.560450
C    -2.353697  0.245354  -0.327256
C    -2.706625  -0.100032  -1.789085
C    -3.104377  1.059485  -2.702742
N    -1.931808  1.900357  -3.202464
H    -3.326597  -1.513348  0.421272
H    -1.601358  -1.738797  0.215142
H    -1.374154  0.744423  -0.257508
H    -3.096594  0.957847  0.066444
H    -3.588373  -0.759714  -1.794773
H    -1.906601  -0.694362  -2.260003
H    -3.792931  1.761326  -2.215392
H    -3.590601  0.681556  -3.609960
H    -2.263344  2.643326  -3.837177
H    -1.257101  1.330796  -3.734031
H    -1.420238  2.362943  -2.439120
N    -3.346907  -2.810716  2.790701
C    -3.699867  -3.939439  3.663285
H    -3.910477  -2.680139  1.955375
H    -4.039753  -3.574059  4.639719
H    -2.836406  -4.601158  3.795980
H    -4.509763  -4.499833  3.189447
Sr    0.075928  -1.550083  5.570033
