35
Energy: -105405.103663 eV PBE+vdW (tier 2 basis)
C    0.026813  0.203833  -0.518356
C    0.407898  0.264095  0.924969
O    1.582246  -0.032079  1.291449
H    0.935031  0.146819  -1.126383
H    -0.561392  1.076604  -0.822720
H    -0.575695  -0.695384  -0.725126
N    -0.490249  0.642904  1.879162
C    -1.850314  0.092227  2.002243
C    -1.716866  -1.468556  2.076082
O    -0.567736  -1.999646  2.202403
H    -0.035529  0.787462  2.780391
H    -2.175314  0.398530  3.009628
C    -2.893712  0.627287  0.988332
C    -2.969367  2.169049  0.902596
C    -3.783910  2.873406  2.013485
C    -5.271794  3.099535  1.730850
N    -5.525978  4.317514  0.846135
H    -3.881068  0.231368  1.274737
H    -2.690423  0.215223  -0.007654
H    -3.376890  2.418978  -0.089328
H    -1.949142  2.576025  0.901279
H    -3.317321  3.837308  2.269045
H    -3.740085  2.297663  2.950328
H    -5.826954  3.296381  2.655491
H    -5.747285  2.252215  1.220524
H    -5.066392  4.245408  -0.072641
H    -5.186971  5.183122  1.292617
H    -6.534850  4.444341  0.671043
N    -2.811305  -2.205775  2.051421
C    -2.835984  -3.668807  2.193719
H    -3.706066  -1.736661  1.945589
H    -2.397905  -3.964060  3.154266
H    -2.281974  -4.140378  1.373747
H    -3.876739  -4.000546  2.157996
Sr    1.773162  -2.124991  2.291388
