35
Energy: -105404.274618 eV PBE+vdW (tier 2 basis)
C    -0.337449  -0.628915  -0.135010
C    -0.207612  -0.769951  1.359400
O    0.599654  -1.520398  1.899013
H    0.665989  -0.580887  -0.573089
H    -0.918356  0.242662  -0.457728
H    -0.818019  -1.532456  -0.536347
N    -1.087940  0.015181  2.099873
C    -1.330078  -0.007246  3.539050
C    -0.740484  1.233757  4.244312
O    -1.554350  1.989721  4.932818
H    -1.744373  0.566919  1.557067
H    -2.416154  0.122255  3.665971
C    -0.936201  -1.304225  4.299932
C    -1.631583  -2.571428  3.760454
C    -0.802592  -3.836590  4.051710
C    -1.465389  -5.085006  3.475889
N    -0.615157  -6.328284  3.706924
H    -1.208737  -1.151555  5.355775
H    0.148808  -1.437912  4.263740
H    -1.767987  -2.487070  2.674028
H    -2.637139  -2.663575  4.197496
H    -0.663674  -3.955370  5.138545
H    0.193916  -3.704816  3.600801
H    -1.602474  -5.014423  2.389553
H    -2.439220  -5.295677  3.935187
H    -1.064062  -7.169025  3.313908
H    -0.461177  -6.504621  4.710338
H    0.311824  -6.240733  3.265113
N    0.525187  1.580175  4.188016
C    1.666304  0.950699  3.512049
H    0.752885  2.442405  4.684877
H    1.416847  -0.048966  3.145985
H    1.973810  1.582792  2.668887
H    2.494210  0.891316  4.228102
Sr    -2.865437  3.369257  6.016557
