35
Energy: -105403.890986 eV PBE+vdW (tier 2 basis)
C    -0.313878  -0.157947  0.283300
C    -0.893733  -0.659843  1.578660
O    -0.185958  -1.139116  2.465843
H    -1.047235  0.044930  -0.503820
H    0.408846  -0.901080  -0.076732
H    0.261785  0.760791  0.465249
N    -2.270295  -0.623238  1.772159
C    -3.198433  0.418170  1.309925
C    -3.600763  0.209473  -0.161101
O    -3.971526  -0.957486  -0.565973
H    -2.506769  -1.002139  2.687914
H    -4.140250  0.198453  1.843351
C    -2.806704  1.867194  1.696955
C    -2.485958  2.059103  3.201686
C    -0.990676  1.895595  3.586246
C    -0.766480  1.006168  4.814355
N    0.607172  0.363940  4.778361
H    -3.660480  2.519025  1.455199
H    -1.951127  2.216751  1.096629
H    -3.113924  1.378435  3.798043
H    -2.817060  3.064619  3.485200
H    -0.546676  2.884058  3.764650
H    -0.432942  1.474244  2.740444
H    -1.471376  0.166895  4.848694
H    -0.849911  1.559390  5.756923
H    0.792666  -0.182466  5.631262
H    1.360291  1.060777  4.695227
H    0.647744  -0.282944  3.960691
N    -3.621151  1.237802  -0.980134
C    -4.063827  1.221117  -2.377566
H    -3.313802  2.131998  -0.600781
H    -3.957431  2.229555  -2.786406
H    -5.119993  0.929915  -2.440659
H    -3.442802  0.536822  -2.969100
Sr    -4.677297  -2.946851  -1.199069
