35
Energy: -105404.728629 eV PBE+vdW (tier 2 basis)
C    0.038119  -0.120277  -0.033231
C    -0.072711  0.046251  1.445954
O    1.020754  0.163946  2.139192
H    -0.914420  -0.294913  -0.538380
H    0.701614  -0.968377  -0.251759
H    0.500312  0.778985  -0.466438
N    -1.235602  0.084953  2.067753
C    -2.592126  0.056057  1.478029
C    -3.478601  0.827538  2.477499
O    -3.294716  0.642872  3.701267
H    -1.246939  0.202068  3.088130
H    -2.554259  0.584301  0.517516
C    -3.119273  -1.387559  1.245905
C    -3.534411  -2.180898  2.499476
C    -5.026821  -2.037986  2.882538
C    -5.317147  -2.250927  4.366548
N    -5.109640  -0.963688  5.161251
H    -2.334596  -1.932495  0.702285
H    -3.964211  -1.317026  0.544806
H    -2.888929  -1.904471  3.347147
H    -3.332824  -3.244153  2.315994
H    -5.612395  -2.780411  2.323732
H    -5.439589  -1.065399  2.568942
H    -4.657289  -3.007483  4.807780
H    -6.351735  -2.562473  4.546921
H    -4.350108  -0.365781  4.744993
H    -5.966797  -0.396542  5.152701
H    -4.892783  -1.154537  6.147716
N    -4.418716  1.616538  1.955193
C    -5.382874  2.388452  2.740118
H    -4.470691  1.702920  0.943409
H    -5.497667  3.381833  2.293668
H    -5.007926  2.496932  3.761822
H    -6.364770  1.895951  2.746397
Sr    3.112078  0.415632  2.779617
