35
Energy: -105404.597978 eV PBE+vdW (tier 2 basis)
C    0.973834  0.425605  0.474937
C    0.533482  -0.191479  1.755316
O    1.339457  -1.000435  2.375955
H    0.216115  1.063097  0.012510
H    1.240972  -0.370908  -0.234137
H    1.882923  1.016664  0.656981
N    -0.653924  0.040503  2.295232
C    -1.764489  0.962319  1.900352
C    -2.270091  0.743993  0.436268
O    -2.016762  1.584359  -0.445857
H    -0.810082  -0.442383  3.180373
H    -2.580025  0.668487  2.577212
C    -1.442718  2.442657  2.139227
C    -2.736812  3.288884  2.197581
C    -2.600993  4.741562  1.688026
C    -3.152809  5.004532  0.291082
N    -2.351597  4.335176  -0.814976
H    -0.888125  2.548196  3.081199
H    -0.775236  2.788064  1.337285
H    -3.087194  3.307599  3.237297
H    -3.542734  2.791231  1.634394
H    -1.560652  5.095865  1.764639
H    -3.173728  5.408689  2.347132
H    -4.180019  4.631928  0.189634
H    -3.158138  6.077167  0.063455
H    -2.804444  4.478359  -1.727562
H    -1.411358  4.744662  -0.882176
H    -2.244578  3.297858  -0.665372
N    -2.976941  -0.368584  0.215710
C    -3.563933  -0.722629  -1.080103
H    -3.211847  -0.960353  1.007476
H    -4.603892  -0.375878  -1.139429
H    -3.545941  -1.810801  -1.197165
H    -2.981746  -0.255006  -1.878420
Sr    2.969105  -2.281787  3.133780
