35
Energy: -105405.731312 eV PBE+vdW (tier 2 basis)
C    -0.070919  -0.468498  0.030410
C    -0.137346  -0.248576  1.503142
O    0.916243  -0.106289  2.194389
H    0.433535  0.393377  -0.430897
H    -1.051427  -0.599642  -0.438760
H    0.552184  -1.348078  -0.181936
N    -1.344961  -0.195557  2.095485
C    -1.579094  0.154627  3.507826
C    -1.054685  -0.978997  4.430091
O    0.101436  -0.821372  4.940855
H    -2.159625  -0.299675  1.494434
H    -0.910676  0.995943  3.745308
C    -3.036577  0.635808  3.671672
C    -3.449173  1.112317  5.077521
C    -4.942410  1.503295  5.089827
C    -5.552965  1.898551  6.436080
N    -5.322747  3.359597  6.814942
H    -3.732410  -0.146724  3.338014
H    -3.157528  1.469556  2.962337
H    -2.811558  1.959354  5.379405
H    -3.281456  0.315164  5.819450
H    -5.534349  0.639520  4.750960
H    -5.143996  2.289393  4.343231
H    -5.164806  1.303002  7.271899
H    -6.642723  1.781044  6.413808
H    -5.776996  3.579286  7.714988
H    -5.725079  3.997876  6.112424
H    -4.325987  3.593936  6.914208
N    -1.729545  -2.093683  4.674035
C    -3.013106  -2.570727  4.147282
H    -1.247944  -2.730220  5.311023
H    -3.117818  -2.335813  3.083927
H    -3.856400  -2.157540  4.714439
H    -3.033092  -3.659769  4.252959
Sr    2.206806  -0.387256  4.053184
