35
Energy: -105404.605270 eV PBE+vdW (tier 2 basis)
C    0.085434  -0.446297  -0.323547
C    0.076430  -0.398869  1.169497
O    1.196401  -0.476159  1.820056
H    -0.796246  -0.946507  -0.737719
H    0.980480  -0.966915  -0.677280
H    0.111956  0.577770  -0.728455
N    -1.051383  -0.261311  1.847904
C    -2.431323  -0.146903  1.314687
C    -3.179260  0.863090  2.228525
O    -3.593533  0.464174  3.334980
H    -0.977433  -0.265254  2.868022
H    -2.364751  0.233932  0.289987
C    -3.168592  -1.494524  1.355741
C    -4.608987  -1.390048  0.799324
C    -5.654721  -2.275170  1.511028
C    -6.476086  -1.609577  2.611989
N    -5.687171  -1.277417  3.868798
H    -3.166359  -1.841001  2.398892
H    -2.595213  -2.237752  0.784429
H    -4.590751  -1.657293  -0.264673
H    -4.958153  -0.344575  0.824301
H    -5.197449  -3.207132  1.880304
H    -6.399715  -2.602433  0.771911
H    -7.297007  -2.263772  2.929234
H    -6.913204  -0.662401  2.270783
H    -4.879512  -0.624084  3.679628
H    -6.295362  -0.826578  4.565649
H    -5.317006  -2.130801  4.305935
N    -3.344058  2.119934  1.804523
C    -2.925705  2.726680  0.537256
H    -3.846717  2.716811  2.461386
H    -3.201582  3.784689  0.562486
H    -3.436328  2.268974  -0.319722
H    -1.838025  2.671243  0.402157
Sr    3.302259  -0.626147  2.469974
