35
Energy: -105404.482783 eV PBE+vdW (tier 2 basis)
C    0.616611  0.632790  0.420707
C    0.262166  -0.023433  1.719457
O    1.171944  -0.126033  2.644783
H    1.435457  0.081091  -0.063705
H    0.957250  1.661767  0.604922
H    -0.223212  0.672282  -0.280666
N    -0.960622  -0.475127  1.872595
C    -1.629686  -1.217935  2.951436
C    -2.455395  -2.268426  2.152595
O    -3.001831  -1.873349  1.118640
H    -1.598741  -0.439254  1.059012
H    -0.881376  -1.670857  3.614393
C    -2.566954  -0.252126  3.732895
C    -3.587786  -0.927236  4.677743
C    -4.937648  -1.320882  4.033905
C    -5.971860  -0.204843  3.887436
N    -6.734024  0.063717  5.184045
H    -3.090729  0.369459  2.990750
H    -1.927439  0.430640  4.308838
H    -3.754596  -0.247366  5.528542
H    -3.143612  -1.824558  5.132151
H    -5.387492  -2.158341  4.590291
H    -4.779862  -1.711024  3.019318
H    -6.740331  -0.468108  3.151447
H    -5.532314  0.755951  3.590973
H    -7.258888  -0.770391  5.486226
H    -7.418455  0.825543  5.064643
H    -6.110850  0.331098  5.958477
N    -2.540717  -3.506495  2.664493
C    -3.298431  -4.588460  2.030068
H    -2.008354  -3.727547  3.499643
H    -2.624608  -5.403529  1.740581
H    -3.786521  -4.191068  1.136093
H    -4.053955  -4.979695  2.721820
Sr    3.231232  0.051450  3.396159
