35
Energy: -105404.536376 eV PBE+vdW (tier 2 basis)
C    -0.576486  0.350166  -0.084562
C    -0.412558  0.374694  1.404509
O    0.689558  0.574989  1.944869
H    0.152439  -0.354492  -0.506043
H    -0.315210  1.338920  -0.486057
H    -1.583059  0.080259  -0.421782
N    -1.540283  0.179366  2.163878
C    -1.569285  -0.010748  3.620094
C    -1.178239  1.275423  4.381447
O    -1.969876  1.780546  5.281500
H    -2.423829  0.091469  1.673425
H    -2.620933  -0.196206  3.871978
C    -0.696712  -1.201540  4.128482
C    -0.832431  -2.531436  3.362055
C    -2.123976  -3.327104  3.607390
C    -2.257139  -4.619620  2.800931
N    -1.283825  -5.712110  3.237047
H    -0.932188  -1.350717  5.193890
H    0.357918  -0.905428  4.082775
H    0.043852  -3.129012  3.660886
H    -0.709712  -2.346437  2.284038
H    -3.005309  -2.731009  3.323878
H    -2.251231  -3.544697  4.680865
H    -2.068908  -4.463529  1.731109
H    -3.255933  -5.057288  2.913519
H    -1.425232  -6.570535  2.683230
H    -1.415092  -5.965637  4.227099
H    -0.300572  -5.432627  3.114722
N    -0.024597  1.819344  4.100615
C    0.500891  3.029580  4.714690
H    0.488826  1.339703  3.283578
H    1.488901  3.237207  4.293097
H    0.618965  2.899069  5.800798
H    -0.143048  3.896175  4.497054
Sr    -2.880366  3.158469  6.717701
