35
Energy: -105404.432672 eV PBE+vdW (tier 2 basis)
C    1.332385  -0.592487  0.802321
C    0.631271  0.348715  1.728754
O    1.272947  1.354260  2.226995
H    1.668474  -0.046296  -0.091452
H    0.701568  -1.424660  0.471309
H    2.222581  -1.009810  1.294035
N    -0.645313  0.121131  2.016747
C    -1.573470  0.943913  2.808116
C    -2.114399  0.245720  4.085791
O    -3.043148  0.802249  4.689689
H    -1.063528  -0.661692  1.513496
H    -0.991186  1.800015  3.176079
C    -2.715629  1.496403  1.921272
C    -3.690320  0.500437  1.262298
C    -4.812930  -0.132331  2.110926
C    -5.817188  0.868294  2.716531
N    -5.738781  0.906374  4.229877
H    -3.256549  2.221702  2.544385
H    -2.241413  2.089934  1.126640
H    -3.143146  -0.319342  0.767385
H    -4.164334  1.037621  0.427589
H    -4.403387  -0.778133  2.902145
H    -5.367886  -0.812811  1.452550
H    -5.638533  1.895005  2.374751
H    -6.851401  0.614645  2.461059
H    -4.732441  0.969274  4.534045
H    -6.265911  1.699853  4.617530
H    -6.137282  0.052877  4.642150
N    -1.531054  -0.884511  4.505128
C    -1.934987  -1.592202  5.725118
H    -0.775438  -1.283947  3.960035
H    -2.284472  -0.866589  6.465439
H    -1.072533  -2.134184  6.124289
H    -2.737361  -2.310910  5.513711
Sr    2.943362  2.779226  2.574667
