35
Energy: -105405.075796 eV PBE+vdW (tier 2 basis)
C    0.339725  -1.184022  1.708713
C    -0.668317  -1.313985  2.800673
O    -0.675663  -2.340659  3.541225
H    0.682463  -2.168841  1.376732
H    1.216535  -0.665005  2.130321
H    -0.006870  -0.596541  0.853794
N    -1.572780  -0.324196  3.049452
C    -2.442828  0.273025  2.015020
C    -2.792866  -0.833447  0.975542
O    -2.781964  -2.051795  1.347009
H    -2.040490  -0.463094  3.944912
H    -3.408751  0.400328  2.534178
C    -2.091202  1.712717  1.556962
C    -0.751675  1.989447  0.857790
C    -0.572374  3.446002  0.362325
C    -0.337289  4.471514  1.473474
N    -0.021481  5.845402  0.895066
H    -2.164782  2.315995  2.473947
H    -2.926162  2.071900  0.931041
H    -0.642138  1.348564  -0.029738
H    0.082359  1.733892  1.527820
H    -1.444553  3.744004  -0.241770
H    0.294841  3.454033  -0.315994
H    -1.209658  4.616820  2.121925
H    0.522394  4.206933  2.102207
H    0.824630  5.826745  0.305540
H    0.143632  6.538675  1.640956
H    -0.791272  6.205228  0.311057
N    -3.170300  -0.470407  -0.236187
C    -3.674911  -1.362293  -1.286230
H    -3.178245  0.525054  -0.443100
H    -3.246617  -1.058963  -2.247419
H    -4.768963  -1.292907  -1.342949
H    -3.383422  -2.390545  -1.063559
Sr    -2.295922  -3.838865  2.801158
