35
Energy: -105403.782594 eV PBE+vdW (tier 2 basis)
C    0.096757  -0.731610  0.530578
C    -0.197523  0.153491  1.703960
O    0.567416  1.053115  2.052247
H    0.979378  -1.336337  0.792799
H    0.392844  -0.125628  -0.333942
H    -0.715490  -1.410412  0.252463
N    -1.324520  -0.107113  2.501638
C    -2.699639  -0.321273  2.035131
C    -3.071829  -1.816250  2.032235
O    -4.227290  -2.213778  1.612964
H    -1.272569  0.444164  3.356554
H    -3.337753  0.105162  2.827527
C    -3.080435  0.388422  0.704034
C    -2.492610  1.791469  0.431034
C    -2.851165  2.986037  1.343017
C    -2.030531  3.295880  2.599026
N    -0.557597  3.548423  2.330818
H    -4.177832  0.454590  0.673672
H    -2.786115  -0.246940  -0.143553
H    -2.866795  2.049473  -0.569804
H    -1.405311  1.724626  0.287171
H    -3.897393  2.911514  1.678475
H    -2.833946  3.890081  0.714658
H    -2.426908  4.205786  3.065326
H    -2.062628  2.506531  3.359344
H    -0.124437  4.049142  3.119121
H    -0.414326  4.131966  1.495319
H    -0.029051  2.637262  2.215658
N    -2.188627  -2.661911  2.507119
C    -2.349250  -4.108325  2.640835
H    -1.324438  -2.221578  2.837283
H    -1.412847  -4.530748  3.015877
H    -2.564533  -4.563801  1.665397
H    -3.144204  -4.344436  3.361258
Sr    -6.133246  -3.176585  1.036787
