35
Energy: -105404.168443 eV PBE+vdW (tier 2 basis)
C    -0.038429  0.315760  0.156599
C    0.020288  0.048941  1.632843
O    1.070526  -0.192034  2.225345
H    0.031675  -0.628138  -0.404840
H    0.848364  0.901880  -0.114523
H    -0.936082  0.855093  -0.164685
N    -1.170430  0.119535  2.375397
C    -2.404571  -0.522301  1.923763
C    -3.606220  0.420242  2.097466
O    -4.806381  0.030080  1.818410
H    -0.965647  -0.042470  3.363291
H    -2.320834  -0.682363  0.836323
C    -2.611686  -1.906676  2.600697
C    -1.358511  -2.821376  2.528241
C    -0.504534  -2.807203  3.813036
C    0.848183  -3.514857  3.758715
N    1.880607  -2.771118  2.913866
H    -3.457358  -2.405259  2.109201
H    -2.905234  -1.759046  3.652173
H    -0.760493  -2.550049  1.643370
H    -1.690679  -3.852224  2.345865
H    -1.068925  -3.306403  4.614973
H    -0.332630  -1.783992  4.180681
H    0.780159  -4.534285  3.360320
H    1.268904  -3.577889  4.768230
H    2.824111  -2.874630  3.310576
H    1.665614  -1.744982  2.835660
H    1.927428  -3.135780  1.955032
N    -3.360335  1.639258  2.514317
C    -4.338027  2.704324  2.727979
H    -2.364250  1.834552  2.662117
H    -3.826206  3.565298  3.167049
H    -5.117203  2.375154  3.427515
H    -4.783364  3.018612  1.774204
Sr    -6.929330  -0.337316  1.337924
