35
Energy: -105404.173974 eV PBE+vdW (tier 2 basis)
C    -0.033412  0.046023  0.154473
C    -0.157442  -0.106863  1.641295
O    0.773050  -0.494019  2.362399
H    0.203586  -0.935952  -0.278150
H    0.814842  0.702950  -0.078108
H    -0.932034  0.441093  -0.332251
N    -1.375598  0.206858  2.199299
C    -1.597307  0.080834  3.628783
C    -2.973761  -0.486718  3.943707
O    -4.037228  -0.123139  3.290291
H    -2.063447  0.667097  1.615080
H    -0.856953  -0.665487  3.950981
C    -1.346503  1.368678  4.480170
C    0.144602  1.629393  4.790084
C    0.920650  2.402207  3.706521
C    2.440604  2.275709  3.771236
N    2.922043  0.852259  3.491594
H    -1.878781  1.258871  5.437031
H    -1.805041  2.232241  3.974632
H    0.616142  0.656967  5.001921
H    0.200852  2.196269  5.729647
H    0.701267  3.475770  3.800473
H    0.589632  2.126188  2.696831
H    2.848112  2.564433  4.747511
H    2.905928  2.913993  3.012092
H    3.836927  0.857890  3.023146
H    2.234765  0.320945  2.896288
H    3.041414  0.314310  4.357873
N    -3.091443  -1.338289  4.943453
C    -2.029277  -1.886751  5.805133
H    -4.037210  -1.646910  5.165061
H    -2.483744  -2.637526  6.457403
H    -1.588814  -1.100776  6.430076
H    -1.254442  -2.373990  5.201937
Sr    -6.051046  0.257533  2.441843
