35
Energy: -105405.863288 eV PBE+vdW (tier 2 basis)
C    2.262789  -0.248545  0.016243
C    1.646239  -0.817683  1.250861
O    2.365957  -1.204912  2.218184
H    3.005566  -0.949727  -0.386233
H    2.810526  0.664960  0.292220
H    1.536971  -0.004385  -0.766410
N    0.302810  -0.896426  1.315566
C    -0.489006  -1.273975  2.496950
C    -0.485073  -2.815530  2.684281
O    0.577244  -3.361700  3.111912
H    -0.205766  -0.608824  0.484469
H    0.078664  -0.919711  3.370977
C    -1.850725  -0.530654  2.535704
C    -2.720672  -0.511430  1.260265
C    -4.156526  0.034848  1.457184
C    -4.235400  1.545250  1.690388
N    -5.681698  2.023984  1.702717
H    -1.618414  0.502664  2.831247
H    -2.421920  -0.953970  3.376391
H    -2.832850  -1.519288  0.831440
H    -2.234532  0.081365  0.468225
H    -4.644382  -0.497517  2.289376
H    -4.725478  -0.213728  0.547920
H    -3.740680  2.111100  0.890656
H    -3.810234  1.857779  2.651748
H    -5.738456  3.042935  1.854068
H    -6.231972  1.575054  2.450307
H    -6.158990  1.823129  0.810584
N    -1.562527  -3.535692  2.427392
C    -1.644087  -4.992786  2.600129
H    -2.391051  -3.058658  2.088037
H    -2.687202  -5.297506  2.483568
H    -1.294161  -5.271448  3.599993
H    -1.032798  -5.501976  1.845037
Sr    2.822669  -3.004417  3.553883
