35
Energy: -105404.879879 eV PBE+vdW (tier 2 basis)
C    -0.876086  -1.017030  1.853578
C    0.122630  -0.059971  1.296490
O    1.368331  -0.439616  1.207908
H    -0.529452  -1.376799  2.831713
H    -0.951241  -1.893359  1.193525
H    -1.872659  -0.584017  1.971420
N    -0.194831  1.143943  0.887063
C    -1.502116  1.790919  0.689345
C    -1.192304  2.718046  -0.532784
O    -0.028618  3.122007  -0.651805
H    0.522736  1.769414  0.456111
H    -2.258851  1.034974  0.438130
C    -1.932377  2.604239  1.939349
C    -3.341369  3.209037  1.810717
C    -3.894232  3.904759  3.074507
C    -3.312731  5.295795  3.320427
N    -4.051130  6.004154  4.450783
H    -1.172344  3.380813  2.115037
H    -1.903537  1.926560  2.807116
H    -4.050612  2.405598  1.560564
H    -3.376493  3.918227  0.970340
H    -3.737206  3.266855  3.958963
H    -4.984068  3.996603  2.944326
H    -3.418917  5.945632  2.442545
H    -2.256418  5.280029  3.614703
H    -5.053378  6.114240  4.234684
H    -3.670133  6.946849  4.620949
H    -3.987817  5.482279  5.337128
N    -2.209391  3.022549  -1.348193
C    -2.068216  3.884429  -2.525095
H    -3.101179  2.557300  -1.209618
H    -2.888756  4.609711  -2.553043
H    -2.088810  3.285252  -3.443955
H    -1.112963  4.411489  -2.459733
Sr    3.357512  -1.280737  0.937601
