35
Energy: -105405.212920 eV PBE+vdW (tier 2 basis)
C    0.062969  -1.857387  0.251377
C    0.277140  -0.764235  1.247971
O    1.426539  -0.543816  1.729720
H    -0.483799  -2.700317  0.703481
H    1.032795  -2.226730  -0.094695
H    -0.520933  -1.508543  -0.607990
N    -0.760469  0.012715  1.664213
C    -2.065450  -0.525050  2.078635
C    -1.787556  -1.622994  3.159305
O    -0.635561  -1.705659  3.692337
H    -0.447749  0.808918  2.218908
H    -2.530595  0.302669  2.638478
C    -3.035600  -0.880683  0.912029
C    -4.498837  -0.475280  1.190556
C    -5.514545  -0.777248  0.063448
C    -5.482948  0.224532  -1.092655
N    -6.640957  -0.009694  -2.054780
H    -2.972581  -1.949903  0.661799
H    -2.664026  -0.333206  0.035499
H    -4.539073  0.596883  1.440507
H    -4.877984  -0.987983  2.088413
H    -6.517105  -0.755582  0.518050
H    -5.366406  -1.800287  -0.317426
H    -4.572056  0.160250  -1.699971
H    -5.593299  1.258017  -0.740465
H    -6.614564  -0.952064  -2.471950
H    -6.627286  0.668443  -2.831967
H    -7.552951  0.088880  -1.583015
N    -2.772712  -2.417144  3.535532
C    -2.673808  -3.422269  4.603389
H    -3.674958  -2.309429  3.081691
H    -1.942040  -4.193419  4.335697
H    -3.653952  -3.889156  4.729012
H    -2.379709  -2.946059  5.545859
Sr    1.668284  -1.294853  3.918214
