35
Energy: -105405.183887 eV PBE+vdW (tier 2 basis)
C    0.094906  1.082391  -0.047652
C    -0.149859  0.348346  1.223050
O    0.783674  -0.273427  1.810778
H    0.432410  0.336042  -0.786108
H    0.924272  1.794136  0.058225
H    -0.789944  1.582053  -0.451010
N    -1.397843  0.299277  1.770262
C    -2.214857  1.491497  2.026714
C    -1.388659  2.387391  2.998028
O    -0.481716  1.841655  3.712603
H    -1.458321  -0.389888  2.521709
H    -2.376544  2.023426  1.079737
C    -3.574054  1.007549  2.606149
C    -4.774137  1.971612  2.579969
C    -6.028187  1.265053  3.138931
C    -7.305033  2.099761  3.258669
N    -8.108710  2.192066  1.963220
H    -3.410533  0.660361  3.639549
H    -3.832332  0.115108  2.016042
H    -4.942312  2.317540  1.546620
H    -4.573944  2.864398  3.190125
H    -5.811891  0.924681  4.162892
H    -6.238049  0.341946  2.573460
H    -7.111300  3.133667  3.570704
H    -7.991825  1.650506  3.985511
H    -8.968766  2.744199  2.105853
H    -8.402497  1.259852  1.635200
H    -7.586320  2.639915  1.198257
N    -1.590517  3.693392  3.078935
C    -2.451039  4.575024  2.286392
H    -1.005712  4.162448  3.773646
H    -1.842072  5.393556  1.884254
H    -3.236269  5.005265  2.919648
H    -2.906715  4.035846  1.453184
Sr    1.393970  0.438869  3.940985
