35
Energy: -105404.437937 eV PBE+vdW (tier 2 basis)
C    0.148110  0.971776  0.058026
C    0.346956  1.093755  1.527279
O    1.496211  1.528974  1.963616
H    1.010739  0.447661  -0.375588
H    0.119969  1.981308  -0.380682
H    -0.754419  0.412372  -0.209113
N    -0.575219  0.796464  2.433327
C    -1.978225  0.288310  2.303838
C    -1.981077  -1.113811  1.623930
O    -1.946780  -1.191081  0.397775
H    -0.267484  0.945260  3.393922
H    -2.301851  0.195443  3.347438
C    -2.893764  1.287465  1.568306
C    -4.340539  0.825018  1.307230
C    -5.292991  0.768194  2.518746
C    -6.713380  0.489598  2.026635
N    -7.741347  0.500095  3.151523
H    -2.460052  1.498776  0.583663
H    -2.889658  2.234425  2.129156
H    -4.325391  -0.146586  0.792388
H    -4.755980  1.537217  0.578918
H    -5.267992  1.729023  3.058560
H    -4.985533  -0.015865  3.230115
H    -6.800279  -0.493214  1.546787
H    -7.049128  1.250410  1.310813
H    -7.544468  -0.219537  3.861434
H    -8.689541  0.318547  2.788761
H    -7.769391  1.410179  3.633782
N    -2.043037  -2.196348  2.432828
C    -2.029471  -2.262017  3.891977
H    -2.046738  -3.078587  1.923511
H    -2.063238  -3.315333  4.185802
H    -2.904868  -1.770506  4.339173
H    -1.112406  -1.834081  4.320344
Sr    3.575523  2.216658  2.049203
