35
Energy: -105403.563214 eV PBE+vdW (tier 2 basis)
C    -0.045956  0.548082  0.464019
C    -0.098932  0.101134  1.893956
O    0.883924  -0.368041  2.476043
H    0.871681  1.137675  0.334515
H    -0.901317  1.150273  0.140555
H    0.054181  -0.320231  -0.203077
N    -1.282618  0.261060  2.614554
C    -2.567091  -0.179125  2.076392
C    -3.730049  0.493821  2.820647
O    -4.804106  -0.175551  3.114034
H    -1.129603  -0.003041  3.588249
H    -2.650152  0.219682  1.048785
C    -2.610633  -1.729429  1.961514
C    -2.106819  -2.521614  3.190476
C    -1.307975  -3.801844  2.863329
C    0.068396  -3.661835  2.206709
N    1.119454  -3.003919  3.082736
H    -1.977684  -1.955858  1.091056
H    -3.614052  -2.064724  1.664173
H    -2.957408  -2.820876  3.818825
H    -1.493869  -1.885017  3.845182
H    -1.892603  -4.440889  2.184000
H    -1.200924  -4.393968  3.785584
H    0.447505  -4.659121  1.955088
H    0.049082  -3.075893  1.279027
H    1.098719  -3.359238  4.047427
H    1.015800  -1.950289  3.079513
H    2.061892  -3.197286  2.715548
N    -3.680863  1.775554  3.128174
C    -2.683905  2.808714  2.790210
H    -4.489421  2.121959  3.644153
H    -2.283958  2.650492  1.786041
H    -1.866190  2.813452  3.519239
H    -3.198208  3.774609  2.820459
Sr    -6.842353  -0.982599  3.423086
