35
Energy: -105403.464065 eV PBE+vdW (tier 2 basis)
C    0.459041  -1.146892  1.005812
C    -0.131755  -0.745068  2.330446
O    0.584161  -0.578858  3.321235
H    1.040609  -2.063284  1.180267
H    1.181704  -0.394388  0.665474
H    -0.263909  -1.342874  0.210328
N    -1.513329  -0.672382  2.494093
C    -2.488816  0.002027  1.619920
C    -2.717508  -0.771555  0.308473
O    -3.325754  -1.915768  0.411265
H    -1.723932  -0.512472  3.480574
H    -3.456432  -0.195373  2.107629
C    -2.358793  1.559261  1.593925
C    -0.950343  2.168922  1.770530
C    -0.631240  2.574003  3.227188
C    0.844378  2.930859  3.484002
N    1.562997  1.851500  4.277004
H    -2.994005  1.921093  2.415312
H    -2.848174  1.948843  0.692032
H    -0.877696  3.068520  1.143342
H    -0.172477  1.490381  1.389542
H    -0.939341  1.784000  3.929498
H    -1.247328  3.444837  3.488295
H    1.407231  3.056593  2.551051
H    0.949806  3.856972  4.059014
H    1.274669  1.866796  5.264562
H    2.582483  1.991700  4.263661
H    1.344937  0.891864  3.910026
N    -2.424896  -0.339901  -0.901566
C    -1.667983  0.829937  -1.368909
H    -2.764131  -0.945195  -1.650842
H    -0.924915  1.136648  -0.632565
H    -2.348073  1.661021  -1.595548
H    -1.152276  0.541070  -2.291090
Sr    -4.402972  -3.821845  0.691318
