35
Energy: -105404.560460 eV PBE+vdW (tier 2 basis)
C    0.204027  0.313097  0.601549
C    -0.310110  0.089294  1.982817
O    0.502053  0.332739  2.968317
H    -0.494818  0.026142  -0.182511
H    1.132381  -0.249767  0.455376
H    0.426744  1.386801  0.495479
N    -1.595645  -0.130321  2.286836
C    -2.509483  -1.011535  1.542038
C    -1.727776  -2.368785  1.389894
O    -0.493342  -2.341752  1.405917
H    -1.767893  -0.123089  3.291538
H    -3.369873  -1.147295  2.212854
C    -3.036522  -0.445981  0.193562
C    -4.403785  -1.016024  -0.231566
C    -4.851685  -0.548386  -1.635453
C    -5.586073  0.789353  -1.730950
N    -7.085866  0.646112  -1.478116
H    -2.317640  -0.659241  -0.609305
H    -3.093307  0.648307  0.293199
H    -5.164719  -0.777502  0.531523
H    -4.345084  -2.112419  -0.266387
H    -5.467958  -1.329319  -2.108290
H    -3.970719  -0.468301  -2.288887
H    -5.506224  1.218159  -2.736614
H    -5.227233  1.536088  -1.011711
H    -7.566192  1.556174  -1.542652
H    -7.292623  0.255016  -0.548709
H    -7.520660  0.024051  -2.176067
N    -2.466628  -3.474307  1.225200
C    -1.885718  -4.806026  1.028026
H    -3.470461  -3.417922  1.359119
H    -2.540150  -5.390167  0.373365
H    -1.774673  -5.330155  1.986046
H    -0.903123  -4.699718  0.560665
Sr    2.303360  0.391008  4.197729
