35
Energy: -105404.571242 eV PBE+vdW (tier 2 basis)
C    -0.090289  0.119169  -0.088607
C    -0.204832  -0.235339  1.361008
O    0.839977  -0.663427  1.997387
H    0.659555  0.912682  -0.219530
H    -1.032425  0.468367  -0.524425
H    0.239928  -0.760889  -0.659408
N    -1.381079  -0.100979  1.947416
C    -1.800528  -0.359183  3.340626
C    -3.222753  -0.978050  3.239378
O    -4.158141  -0.231514  2.892906
H    -2.131952  0.261284  1.355884
H    -1.080248  -1.051879  3.794930
C    -1.897584  0.966056  4.122060
C    -2.490181  0.803760  5.541511
C    -3.408689  1.958844  5.998023
C    -4.909228  1.774850  5.780976
N    -5.347977  1.820055  4.326302
H    -2.514627  1.645632  3.517011
H    -0.902724  1.429243  4.171310
H    -1.665486  0.711883  6.259317
H    -3.046523  -0.143826  5.623614
H    -3.073735  2.918847  5.573307
H    -3.303549  2.081833  7.085327
H    -5.468792  2.565573  6.294926
H    -5.256908  0.809438  6.170533
H    -6.368188  1.704495  4.255986
H    -4.900270  1.058094  3.748713
H    -5.123544  2.728307  3.900295
N    -3.353554  -2.278530  3.507841
C    -4.622848  -3.008949  3.443590
H    -2.531934  -2.797778  3.801596
H    -4.469499  -3.957117  2.916894
H    -5.352308  -2.403643  2.899723
H    -4.995494  -3.219166  4.454186
Sr    2.985336  -1.200433  2.182587
