35
Energy: -105405.655881 eV PBE+vdW (tier 2 basis)
C    -0.688795  -1.045960  -0.289432
C    -0.539819  -0.502362  1.091816
O    0.547975  0.023270  1.475184
H    -1.674266  -1.480285  -0.487115
H    0.081799  -1.808519  -0.468130
H    -0.501689  -0.236528  -1.009948
N    -1.591967  -0.575158  1.929657
C    -1.639920  -0.007093  3.288013
C    -0.676959  -0.782890  4.231956
O    0.488770  -0.293216  4.395375
H    -2.432385  -1.028786  1.578867
H    -1.176257  0.989420  3.234061
C    -3.098656  0.134991  3.773251
C    -3.913936  1.294386  3.147810
C    -3.764558  2.644192  3.872451
C    -4.589837  3.801840  3.304882
N    -6.075210  3.722500  3.648924
H    -3.085272  0.244730  4.867687
H    -3.632540  -0.804618  3.580542
H    -4.966862  0.973349  3.164823
H    -3.659988  1.413564  2.082328
H    -2.720274  2.989355  3.826952
H    -3.981781  2.528644  4.947306
H    -4.537547  3.859835  2.210283
H    -4.251359  4.760767  3.714340
H    -6.581834  4.535327  3.265051
H    -6.230354  3.725985  4.668084
H    -6.528229  2.880231  3.268049
N    -0.996788  -1.913041  4.843701
C    -2.203821  -2.746310  4.780252
H    -0.256551  -2.262140  5.455110
H    -2.965684  -2.397621  5.487931
H    -1.917595  -3.765409  5.058375
H    -2.610542  -2.777861  3.765313
Sr    2.224502  0.334454  3.009713
