35
Energy: -105405.021533 eV PBE+vdW (tier 2 basis)
C    0.534474  0.395929  0.426780
C    -0.069077  -0.735811  1.193079
O    0.581538  -1.803149  1.389696
H    0.073192  0.486400  -0.569877
H    0.393856  1.353236  0.941644
H    1.604130  0.211016  0.290838
N    -1.334643  -0.649265  1.692441
C    -2.488458  -0.179288  0.908743
C    -2.523204  -1.026889  -0.409203
O    -1.824494  -2.086144  -0.494698
H    -1.551984  -1.430903  2.310058
H    -3.362659  -0.522595  1.485272
C    -2.601830  1.364993  0.751936
C    -4.039496  1.932285  0.861574
C    -4.570969  2.118858  2.302180
C    -4.194595  3.426183  3.006017
N    -5.105889  4.589093  2.621446
H    -2.153701  1.681955  -0.199435
H    -1.975437  1.808904  1.537729
H    -4.752838  1.287316  0.325366
H    -4.065523  2.887519  0.314638
H    -4.206148  1.308396  2.951109
H    -5.666016  2.004990  2.315890
H    -3.172050  3.757999  2.785539
H    -4.293953  3.332565  4.093673
H    -4.827424  5.454189  3.110091
H    -6.086010  4.399918  2.880817
H    -5.089047  4.793585  1.612315
N    -3.311605  -0.646015  -1.397483
C    -3.501246  -1.392430  -2.649629
H    -3.837878  0.215870  -1.288798
H    -4.282520  -0.896727  -3.231398
H    -3.811904  -2.420679  -2.433024
H    -2.573236  -1.402084  -3.233784
Sr    -0.103286  -3.588414  0.064175
