35
Energy: -105405.177460 eV PBE+vdW (tier 2 basis)
C    0.102929  -0.246693  -0.439050
C    0.047618  0.166886  0.995399
O    1.110555  0.386225  1.647198
H    -0.425112  -1.193926  -0.619440
H    1.144300  -0.351123  -0.755146
H    -0.379302  0.515154  -1.067814
N    -1.145542  0.329867  1.633297
C    -2.244560  -0.644433  1.572274
C    -1.652968  -2.034275  1.983394
O    -0.493081  -2.102807  2.499283
H    -1.033702  0.770449  2.545850
H    -2.901001  -0.363631  2.411379
C    -3.101894  -0.593144  0.271730
C    -4.627295  -0.508690  0.501396
C    -5.391629  -0.449941  -0.836027
C    -6.919514  -0.486131  -0.765579
N    -7.558567  0.856524  -0.418511
H    -2.868168  -1.447228  -0.381272
H    -2.787286  0.301773  -0.280376
H    -4.839853  0.379106  1.119852
H    -4.986242  -1.375691  1.081627
H    -5.115673  -1.324823  -1.444613
H    -5.065250  0.419902  -1.429871
H    -7.293380  -1.200440  -0.021184
H    -7.342578  -0.759231  -1.739429
H    -8.587470  0.778129  -0.410111
H    -7.318763  1.579763  -1.112859
H    -7.276090  1.206511  0.506986
N    -2.399091  -3.113001  1.828950
C    -2.007374  -4.466257  2.248435
H    -3.316692  -3.005304  1.407391
H    -1.132395  -4.803371  1.680292
H    -2.842112  -5.143815  2.052015
H    -1.778796  -4.479402  3.320252
Sr    1.642323  -1.328954  3.121075
