35
Energy: -105403.907359 eV PBE+vdW (tier 2 basis)
C    -0.526013  -0.709318  0.304374
C    -0.020043  -0.267572  1.645090
O    0.771694  -0.935333  2.308811
H    0.344986  -0.774310  -0.365774
H    -1.259592  -0.036266  -0.151705
H    -0.934880  -1.725893  0.363829
N    -0.409345  0.989067  2.131806
C    -1.797905  1.442795  2.165333
C    -1.992455  2.691741  1.286078
O    -3.157943  3.230460  1.138506
H    0.104245  1.197114  2.989374
H    -2.446599  0.662810  1.737247
C    -2.245330  1.743272  3.630464
C    -1.772372  0.788620  4.751492
C    -2.397273  -0.616143  4.893222
C    -1.814136  -1.814015  4.140924
N    -0.363869  -2.111100  4.485202
H    -3.342412  1.805714  3.647945
H    -1.872395  2.744450  3.897559
H    -2.014538  1.324308  5.680063
H    -0.671783  0.732576  4.772857
H    -3.465154  -0.583485  4.627336
H    -2.393665  -0.869341  5.964910
H    -2.389506  -2.710700  4.398825
H    -1.843140  -1.709874  3.049785
H    -0.142393  -3.100993  4.309784
H    -0.152538  -1.928101  5.475176
H    0.279793  -1.552369  3.864964
N    -0.926661  3.187499  0.705759
C    -0.864800  4.373038  -0.146130
H    -0.070570  2.652255  0.888299
H    0.177174  4.545636  -0.429960
H    -1.221836  5.257499  0.397945
H    -1.449395  4.221230  -1.063610
Sr    -4.983401  4.387033  0.673555
