35
Energy: -105404.394559 eV PBE+vdW (tier 2 basis)
C    0.396782  -2.537569  0.287514
C    0.394098  -1.549737  1.401185
O    1.501267  -1.345232  2.053539
H    -0.526098  -2.553030  -0.295105
H    0.563133  -3.542927  0.703149
H    1.237912  -2.318802  -0.383421
N    -0.680082  -0.878415  1.785248
C    -2.090143  -0.813269  1.291150
C    -2.663515  -2.149737  0.741733
O    -2.946701  -2.278477  -0.462201
H    -0.505407  -0.238843  2.562230
H    -2.657841  -0.602084  2.210326
C    -2.334366  0.374056  0.343521
C    -1.591779  0.377658  -1.006093
C    -2.358718  1.081060  -2.144928
C    -3.741755  0.531628  -2.490689
N    -3.720936  -0.952800  -2.804324
H    -3.423876  0.382790  0.195289
H    -2.121636  1.303528  0.891593
H    -1.351900  -0.648132  -1.315042
H    -0.627065  0.892682  -0.898236
H    -1.729532  1.077329  -3.047806
H    -2.510257  2.143390  -1.901362
H    -4.466289  0.651530  -1.676188
H    -4.148567  1.044076  -3.370177
H    -4.655728  -1.283416  -3.078328
H    -3.086879  -1.163489  -3.585967
H    -3.414404  -1.501315  -1.960896
N    -2.881952  -3.138074  1.623610
C    -2.782161  -3.105408  3.083817
H    -3.321294  -3.960293  1.209924
H    -1.773849  -2.830842  3.417334
H    -2.993999  -4.110225  3.460487
H    -3.517624  -2.419609  3.526749
Sr    3.530172  -1.288491  2.925024
