35
Energy: -105404.055441 eV PBE+vdW (tier 2 basis)
C    0.043996  0.545078  0.046524
C    -0.092540  0.148193  1.484939
O    0.833036  -0.353846  2.145717
H    -0.880510  0.926403  -0.400525
H    0.389827  -0.324951  -0.527628
H    0.824898  1.312220  -0.047120
N    -1.313646  0.358225  2.074589
C    -1.534039  0.014649  3.477805
C    -2.914045  -0.630886  3.651729
O    -2.991273  -1.852319  4.088659
H    -2.014539  0.854738  1.535335
H    -0.804200  -0.781045  3.673941
C    -1.300425  1.159146  4.518626
C    -0.068216  2.070893  4.282752
C    1.157486  1.868636  5.193881
C    2.054903  0.647713  5.010866
N    2.798863  0.649248  3.689322
H    -1.241732  0.685831  5.511047
H    -2.189183  1.800121  4.558300
H    -0.400680  3.101572  4.461875
H    0.217320  2.061309  3.221425
H    0.829200  1.849979  6.244327
H    1.785058  2.771797  5.122351
H    2.812601  0.625702  5.802982
H    1.505890  -0.301544  5.037796
H    3.193887  1.575306  3.479042
H    2.145443  0.350304  2.915083
H    3.583743  -0.014976  3.704420
N    -4.038781  0.007485  3.390822
C    -4.288334  1.362730  2.879002
H    -4.887896  -0.535372  3.554673
H    -4.995861  1.866831  3.548580
H    -3.371296  1.952325  2.835984
H    -4.739030  1.294903  1.880079
Sr    -3.263763  -3.956255  4.709161
