35
Energy: -105403.998770 eV PBE+vdW (tier 2 basis)
C    1.081208  -0.761180  0.885964
C    0.673944  -0.287894  2.248540
O    1.384797  -0.419208  3.244402
H    2.174224  -0.719873  0.820322
H    0.646231  -0.172717  0.070023
H    0.797409  -1.816764  0.751747
N    -0.560036  0.367969  2.396855
C    -1.789268  -0.105402  1.764953
C    -2.700582  1.080058  1.411360
O    -3.878784  0.886123  0.917107
H    -0.687250  0.600124  3.381961
H    -1.516516  -0.522894  0.780493
C    -2.470008  -1.251664  2.564401
C    -2.723223  -1.076194  4.080097
C    -1.538598  -1.078499  5.080359
C    -0.595311  -2.287706  5.004360
N    0.785427  -1.916317  5.499805
H    -1.862554  -2.149519  2.380555
H    -3.436045  -1.473313  2.087804
H    -3.400531  -1.893653  4.367535
H    -3.297650  -0.154827  4.265447
H    -1.972423  -1.028143  6.089285
H    -0.941309  -0.158631  4.993951
H    -0.955212  -3.130029  5.605938
H    -0.442021  -2.646895  3.980132
H    0.765837  -1.510000  6.445185
H    1.195628  -1.219512  4.826974
H    1.410104  -2.734010  5.534251
N    -2.215727  2.289171  1.573081
C    -2.877516  3.549299  1.239667
H    -1.246554  2.309947  1.906869
H    -2.288693  4.373026  1.653270
H    -3.879012  3.584473  1.685882
H    -2.935218  3.681113  0.150356
Sr    -5.810063  0.807070  -0.154453
