35
Energy: -105404.522597 eV PBE+vdW (tier 2 basis)
C    -0.042976  -0.827554  0.367393
C    -0.239578  -0.131903  1.677844
O    0.658343  0.565514  2.213794
H    0.199048  -0.078301  -0.399179
H    -0.907519  -1.413690  0.038602
H    0.829087  -1.492381  0.435875
N    -1.448443  -0.260091  2.283542
C    -1.777883  0.215897  3.635892
C    -2.096464  1.721404  3.637927
O    -3.203824  2.161022  4.142976
H    -2.149992  -0.823886  1.812840
H    -2.708369  -0.298500  3.907466
C    -0.704080  -0.101845  4.719866
C    -0.214931  -1.561894  4.717587
C    1.175303  -1.763977  5.363404
C    2.366916  -1.867596  4.414050
N    2.767782  -0.558442  3.745400
H    -1.151652  0.135414  5.696576
H    0.136639  0.589753  4.597081
H    -0.192844  -1.958132  3.691594
H    -0.945937  -2.183835  5.250339
H    1.174916  -2.721429  5.903473
H    1.369496  -1.007341  6.140747
H    2.175425  -2.577424  3.599065
H    3.256950  -2.210964  4.955069
H    3.599592  -0.700105  3.155386
H    2.013256  -0.155484  3.133561
H    3.023101  0.147819  4.447940
N    -1.198326  2.531936  3.129513
C    -1.309819  3.986076  3.024686
H    -0.346103  2.063662  2.767940
H    -0.411321  4.368063  2.532702
H    -1.381367  4.443219  4.020308
H    -2.179680  4.265187  2.415673
Sr    -5.086079  3.019891  4.910399
