35
Energy: -105404.203886 eV PBE+vdW (tier 2 basis)
C    0.501691  -0.170309  0.042348
C    0.217635  -0.284548  1.506199
O    1.182526  -0.546587  2.327985
H    1.224592  0.639398  -0.134000
H    -0.391431  0.037246  -0.556979
H    0.948020  -1.106068  -0.323934
N    -1.028459  -0.118020  1.922122
C    -1.561826  -0.158687  3.296579
C    -2.892433  -0.970621  3.339194
O    -3.916393  -0.465605  3.819620
H    -1.700192  0.100315  1.187434
H    -0.829064  -0.717825  3.896566
C    -1.699256  1.256469  3.911246
C    -2.260588  2.405683  3.046162
C    -3.723614  2.408737  2.558590
C    -4.814020  2.846386  3.536963
N    -5.094672  1.837639  4.647112
H    -2.257389  1.129453  4.848201
H    -0.688389  1.563728  4.217127
H    -1.620734  2.511038  2.155766
H    -2.079736  3.333101  3.611071
H    -4.012534  1.452832  2.097727
H    -3.785297  3.149008  1.746830
H    -4.574434  3.802088  4.018186
H    -5.757046  2.976157  2.994968
H    -4.693042  0.896925  4.388236
H    -4.680220  2.125226  5.540393
H    -6.103680  1.735087  4.811527
N    -2.896747  -2.233231  2.877448
C    -1.794616  -3.067374  2.411735
H    -3.810397  -2.681554  2.948900
H    -1.627532  -2.964078  1.330423
H    -2.044124  -4.113581  2.616410
H    -0.869910  -2.837888  2.955918
Sr    3.284736  -0.901518  2.965411
