35
Energy: -105404.404363 eV PBE+vdW (tier 2 basis)
C    0.156572  1.328474  1.774552
C    0.304148  -0.149272  1.623312
O    1.476512  -0.698377  1.697570
H    1.053598  1.758011  2.229176
H    -0.714346  1.601372  2.383264
H    0.019811  1.794814  0.785068
N    -0.754074  -0.914894  1.397511
C    -2.138312  -0.449647  1.146857
C    -2.994619  -0.085565  2.383209
O    -3.854620  0.793555  2.207618
H    -0.574345  -1.914640  1.300383
H    -2.054803  0.492634  0.592107
C    -2.912923  -1.462373  0.262545
C    -4.022973  -0.793446  -0.598047
C    -5.448407  -1.353901  -0.454064
C    -6.192731  -1.106113  0.854942
N    -6.370401  0.371548  1.156203
H    -3.325703  -2.263009  0.894842
H    -2.191789  -1.945852  -0.411442
H    -3.746685  -0.904274  -1.654074
H    -4.024312  0.291843  -0.421274
H    -5.443391  -2.444011  -0.604601
H    -6.056132  -0.960194  -1.284061
H    -5.680617  -1.525414  1.730521
H    -7.194504  -1.548533  0.808933
H    -7.068973  0.518274  1.896444
H    -6.690665  0.892995  0.329309
H    -5.459174  0.767569  1.493684
N    -2.856904  -0.714502  3.564643
C    -2.047397  -1.872408  3.939507
H    -3.484328  -0.348624  4.279909
H    -2.470325  -2.296981  4.855391
H    -1.004580  -1.599489  4.149626
H    -2.085530  -2.658500  3.175255
Sr    3.649404  -1.116611  1.740308
