35
Energy: -105404.268014 eV PBE+vdW (tier 2 basis)
C    -0.029163  -0.867452  0.161075
C    -0.121126  -1.360418  1.574217
O    0.828766  -1.872457  2.182434
H    0.670367  -0.020390  0.120838
H    -0.987849  -0.546209  -0.260482
H    0.400700  -1.657965  -0.467305
N    -1.342370  -1.231564  2.208681
C    -1.386252  -1.522042  3.641764
C    -2.818074  -1.827569  4.073043
O    -3.538946  -2.651553  3.385517
H    -2.001044  -0.562368  1.817585
H    -0.874827  -2.498505  3.738402
C    -0.558704  -0.518078  4.498438
C    0.446830  -1.210574  5.439282
C    1.715615  -0.399049  5.757827
C    2.618444  -0.013957  4.585772
N    3.082831  -1.206139  3.763159
H    -1.184321  0.203966  5.047185
H    -0.025073  0.111345  3.776497
H    0.734504  -2.176032  4.993452
H    -0.029375  -1.467648  6.396136
H    2.307371  -0.957977  6.498710
H    1.453542  0.546379  6.256589
H    3.520185  0.485749  4.958260
H    2.136328  0.665168  3.872004
H    2.306024  -1.578786  3.167369
H    3.442242  -1.962400  4.361024
H    3.849406  -0.934424  3.132794
N    -3.290869  -1.302809  5.181775
C    -4.603761  -1.572281  5.773372
H    -2.682759  -0.649047  5.671538
H    -4.693175  -0.993450  6.696646
H    -4.701862  -2.637173  6.020204
H    -5.404002  -1.261493  5.089975
Sr    -4.745420  -4.125394  2.280410
