35
Energy: -105405.172497 eV PBE+vdW (tier 2 basis)
C    -0.064636  0.191307  1.076840
C    -0.491914  0.246069  2.508008
O    0.319641  0.606520  3.410441
H    -0.793388  0.684916  0.423671
H    0.038158  -0.851540  0.737382
H    0.907514  0.681902  0.971560
N    -1.759095  -0.088933  2.874440
C    -2.463107  -1.294619  2.413455
C    -1.541113  -2.518049  2.734884
O    -0.505458  -2.360711  3.455824
H    -1.956406  0.155889  3.844428
H    -3.311410  -1.391809  3.110461
C    -3.081409  -1.183760  0.988474
C    -4.383401  -1.997225  0.795701
C    -5.386623  -1.433610  -0.237681
C    -4.966960  -1.584132  -1.699794
N    -6.094302  -1.161242  -2.634112
H    -2.339611  -1.436375  0.218745
H    -3.315128  -0.116369  0.867407
H    -4.929499  -2.033981  1.749977
H    -4.168282  -3.045595  0.528520
H    -5.584863  -0.374196  -0.009603
H    -6.336824  -1.969022  -0.084706
H    -4.739307  -2.625889  -1.959568
H    -4.104701  -0.961853  -1.968957
H    -6.940118  -1.734678  -2.492988
H    -5.822697  -1.259580  -3.624298
H    -6.367567  -0.177624  -2.488961
N    -1.891062  -3.711822  2.291642
C    -1.173858  -4.958163  2.595726
H    -2.742926  -3.785937  1.743043
H    -1.679528  -5.780832  2.083816
H    -1.182811  -5.149166  3.675435
H    -0.138839  -4.897535  2.240830
Sr    1.099446  -1.164995  4.695733
