35
Energy: -105404.599543 eV PBE+vdW (tier 2 basis)
C    -1.332342  1.308580  0.006054
C    -0.576469  0.209150  0.673592
O    0.688914  0.206847  0.687289
H    -0.836517  1.528380  -0.949489
H    -1.275514  2.233291  0.600752
H    -2.383645  1.069126  -0.177687
N    -1.238661  -0.817740  1.276685
C    -2.340376  -0.589924  2.212423
C    -1.743244  0.162392  3.454934
O    -0.493009  0.389051  3.520562
H    -0.606157  -1.563069  1.574906
H    -3.070955  0.084719  1.740568
C    -3.010405  -1.925868  2.607297
C    -3.729655  -2.716795  1.493154
C    -5.063102  -2.108094  1.007108
C    -6.137442  -3.108420  0.576357
N    -5.813148  -3.870804  -0.705749
H    -3.726820  -1.733618  3.419440
H    -2.238828  -2.573685  3.053323
H    -3.922682  -3.711628  1.924266
H    -3.041127  -2.878922  0.649431
H    -4.905497  -1.363328  0.211128
H    -5.540190  -1.556577  1.832904
H    -7.088951  -2.599893  0.380292
H    -6.310734  -3.875173  1.342240
H    -5.693371  -3.237600  -1.509652
H    -6.580518  -4.518122  -0.945000
H    -4.958299  -4.438252  -0.621548
N    -2.567223  0.555926  4.407550
C    -2.161394  1.264301  5.630195
H    -3.560482  0.371695  4.291434
H    -1.374182  0.704039  6.146378
H    -3.032103  1.345744  6.285955
H    -1.802192  2.271788  5.387179
Sr    1.699745  0.646605  2.740259
