35
Energy: -105404.406180 eV PBE+vdW (tier 2 basis)
C    0.857995  0.410534  0.301184
C    0.596560  0.294537  1.772064
O    1.524597  0.296418  2.607878
H    1.237661  1.420758  0.090772
H    -0.019625  0.223243  -0.326556
H    1.660153  -0.284592  0.024565
N    -0.710953  0.217211  2.162059
C    -1.240980  -0.028977  3.509248
C    -0.839699  1.021511  4.559537
O    -1.771599  1.491364  5.340494
H    -1.404548  0.241510  1.420800
H    -2.319725  0.140267  3.404121
C    -1.122904  -1.516829  4.013757
C    0.104101  -2.375889  3.642149
C    1.337605  -2.253637  4.549574
C    2.592867  -2.956794  4.038008
N    2.488147  -4.481146  4.036657
H    -2.000414  -2.025424  3.593949
H    -1.275178  -1.521414  5.104769
H    0.384731  -2.181289  2.596747
H    -0.262360  -3.415177  3.657889
H    1.104474  -2.595268  5.571426
H    1.638703  -1.201869  4.638776
H    3.460688  -2.726598  4.666960
H    2.831050  -2.668833  3.006299
H    3.366387  -4.908038  3.705276
H    1.736139  -4.822696  3.422442
H    2.309903  -4.850949  4.981691
N    0.399263  1.414997  4.654760
C    0.902231  2.419930  5.584770
H    1.038507  0.977524  3.909940
H    1.983166  2.510412  5.445899
H    0.707317  2.125438  6.624602
H    0.451409  3.401809  5.382442
Sr    -3.242871  2.579691  6.538358
