35
Energy: -105404.665013 eV PBE+vdW (tier 2 basis)
C    -0.495619  0.388236  -0.057620
C    0.057824  0.120605  1.299009
O    1.325709  0.349196  1.485923
H    -0.347214  1.456473  -0.280271
H    -1.553950  0.150876  -0.153086
H    0.054116  -0.200630  -0.800701
N    -0.672549  -0.175323  2.373372
C    -1.913282  -0.966731  2.427393
C    -1.577336  -2.330022  1.724176
O    -0.721660  -2.346681  0.838086
H    -0.124247  -0.216674  3.231599
H    -2.076722  -1.131670  3.501885
C    -3.187995  -0.272315  1.869692
C    -4.465770  -0.756400  2.582303
C    -5.750469  0.053769  2.301376
C    -6.383360  -0.214104  0.937338
N    -7.747089  0.459634  0.830625
H    -3.266535  -0.438275  0.786259
H    -3.072181  0.810067  2.029455
H    -4.301525  -0.703997  3.668888
H    -4.654532  -1.815940  2.350440
H    -5.547372  1.130271  2.418734
H    -6.477023  -0.214369  3.084679
H    -6.565332  -1.283391  0.770603
H    -5.791192  0.172904  0.099333
H    -8.188844  0.282449  -0.083822
H    -7.680058  1.481492  0.946931
H    -8.394973  0.114345  1.554821
N    -2.285508  -3.394740  2.133576
C    -2.110256  -4.734149  1.564422
H    -2.865149  -3.309308  2.961887
H    -1.340452  -5.294779  2.110526
H    -1.807742  -4.640735  0.517758
H    -3.058512  -5.277197  1.625316
Sr    3.490745  0.495248  1.270815
