35
Energy: -105404.513036 eV PBE+vdW (tier 2 basis)
C    0.729750  -0.448921  2.722887
C    -0.195364  0.712116  2.830870
O    0.292045  1.881945  3.119082
H    1.324769  -0.522186  3.643836
H    1.431581  -0.269162  1.895247
H    0.221237  -1.402179  2.557811
N    -1.503404  0.608971  2.647454
C    -2.351223  -0.546351  2.223695
C    -2.210705  -1.787833  3.158284
O    -1.656382  -2.821057  2.739469
H    -2.011487  1.488515  2.742832
H    -3.373123  -0.159294  2.344339
C    -2.153875  -0.951226  0.757360
C    -3.368200  -1.758038  0.238053
C    -3.046568  -2.821144  -0.837201
C    -3.024415  -4.266095  -0.350004
N    -1.859382  -4.576663  0.576657
H    -1.224810  -1.531609  0.673091
H    -2.021408  -0.047887  0.146912
H    -4.101011  -1.050049  -0.169384
H    -3.884412  -2.250427  1.077890
H    -2.112995  -2.579916  -1.370032
H    -3.825802  -2.796761  -1.611503
H    -2.946645  -4.965716  -1.190749
H    -3.933947  -4.512925  0.212295
H    -0.966801  -4.527204  0.069522
H    -1.937025  -5.532284  0.949923
H    -1.806020  -3.912906  1.392683
N    -2.717066  -1.704231  4.395259
C    -3.460003  -0.602676  5.007693
H    -2.609137  -2.556064  4.945133
H    -3.837167  -0.943826  5.975963
H    -4.327125  -0.311351  4.400448
H    -2.820029  0.271361  5.187706
Sr    1.500321  3.674170  3.571479
