35
Energy: -105404.522280 eV PBE+vdW (tier 2 basis)
C    0.147898  -0.424326  -0.482481
C    -0.185115  -1.294014  0.678153
O    0.717817  -2.159362  1.049115
H    1.100837  0.083497  -0.270822
H    -0.614351  0.314727  -0.717357
H    0.279052  -1.052630  -1.373115
N    -1.282002  -1.216806  1.423185
C    -2.622004  -0.649845  1.138906
C    -3.191031  -1.461513  -0.070901
O    -2.444428  -1.668372  -1.024960
H    -1.276165  -1.869442  2.206408
H    -3.188397  -0.846505  2.058403
C    -2.645146  0.874367  0.872150
C    -4.037839  1.523262  0.998495
C    -3.974041  3.020564  0.640035
C    -5.306872  3.753880  0.508358
N    -5.951567  4.101183  1.848918
H    -2.274329  1.076578  -0.140936
H    -1.948987  1.353784  1.576546
H    -4.422114  1.373735  2.021471
H    -4.741625  1.026101  0.313330
H    -3.498308  3.127369  -0.347014
H    -3.313636  3.564690  1.335531
H    -6.054938  3.172724  -0.045581
H    -5.174560  4.714708  -0.002847
H    -6.165087  3.266490  2.410956
H    -6.838016  4.609267  1.709165
H    -5.339947  4.709020  2.413024
N    -4.474822  -1.873668  -0.019542
C    -5.410144  -1.865010  1.104239
H    -4.774010  -2.351130  -0.868282
H    -6.256268  -2.508008  0.844431
H    -5.806886  -0.862894  1.312888
H    -4.958009  -2.275179  2.016499
Sr    2.410667  -3.541302  1.060246
