35
Energy: -105405.305065 eV PBE+vdW (tier 2 basis)
C    -1.116356  -1.044757  0.647778
C    -0.080254  -0.086156  1.120063
O    1.106601  -0.139888  0.680144
H    -1.222774  -1.007610  -0.444793
H    -2.090884  -0.921422  1.127471
H    -0.743353  -2.055973  0.878863
N    -0.374041  0.850057  2.065484
C    -1.522658  1.752325  1.976680
C    -1.277847  2.667416  0.731749
O    -0.143436  2.670463  0.157415
H    0.464699  1.302579  2.433416
H    -2.426884  1.154026  1.789837
C    -1.667512  2.518868  3.321616
C    -3.064474  3.058711  3.684125
C    -3.033071  3.741207  5.068611
C    -4.326066  4.400436  5.552611
N    -5.317023  3.428422  6.189264
H    -0.936057  3.342179  3.350163
H    -1.362521  1.803922  4.100098
H    -3.788413  2.227087  3.666536
H    -3.407773  3.799286  2.943995
H    -2.289831  4.552413  5.044165
H    -2.661485  3.041194  5.835193
H    -4.873059  4.908934  4.748757
H    -4.111389  5.138347  6.334451
H    -6.155666  3.928971  6.522334
H    -4.906488  2.954394  7.007548
H    -5.639523  2.700557  5.537450
N    -2.274821  3.418234  0.296471
C    -2.199064  4.335003  -0.849012
H    -3.177721  3.320885  0.752473
H    -3.064769  5.001971  -0.817539
H    -2.217776  3.774514  -1.792362
H    -1.282891  4.931104  -0.791355
Sr    1.868430  1.672343  -0.555164
