35
Energy: -105405.140926 eV PBE+vdW (tier 2 basis)
C    -0.966301  0.941134  0.449570
C    -0.830275  0.344466  1.814380
O    0.152443  0.669745  2.544243
H    -0.547019  0.264377  -0.311717
H    -0.389885  1.872058  0.418907
H    -2.007142  1.147730  0.184506
N    -1.753087  -0.523596  2.318548
C    -2.235354  -1.732948  1.629899
C    -0.997334  -2.661595  1.403026
O    0.180416  -2.190781  1.547849
H    -1.595575  -0.681928  3.315048
H    -2.869539  -2.241325  2.373274
C    -3.106855  -1.514515  0.371303
C    -4.466863  -0.846715  0.662928
C    -5.346411  -0.790753  -0.603494
C    -6.841695  -0.543736  -0.402425
N    -7.206671  0.904749  -0.085315
H    -3.296086  -2.503164  -0.068085
H    -2.552635  -0.961886  -0.397358
H    -4.307108  0.158372  1.085049
H    -4.986915  -1.429309  1.440757
H    -5.302163  -1.767543  -1.110060
H    -4.940751  -0.074940  -1.336918
H    -7.259597  -1.144912  0.414983
H    -7.395531  -0.783375  -1.317925
H    -8.229128  1.008663  0.007311
H    -6.907280  1.543875  -0.836281
H    -6.789877  1.236215  0.794988
N    -1.163012  -3.939876  1.107138
C    -2.389982  -4.736623  0.999052
H    -0.292196  -4.452546  0.958374
H    -3.204924  -4.287640  1.574339
H    -2.187850  -5.730644  1.412575
H    -2.687422  -4.851561  -0.051170
Sr    1.866323  -0.899865  2.536020
