35
Energy: -105404.336299 eV PBE+vdW (tier 2 basis)
C    0.695921  -0.141134  0.027233
C    0.321486  -0.173701  1.479093
O    1.152809  -0.096522  2.397948
H    -0.118292  -0.428754  -0.647142
H    1.564378  -0.789558  -0.139626
H    1.012330  0.879421  -0.235394
N    -1.016723  -0.294308  1.774203
C    -1.487659  -0.095844  3.141485
C    -2.532858  -1.171199  3.467853
O    -2.242375  -2.422603  3.330413
H    -1.676892  -0.164574  1.010631
H    -0.613002  -0.340827  3.768812
C    -1.945359  1.355283  3.426441
C    -0.923987  2.484002  3.138044
C    -0.058183  2.987907  4.309571
C    1.096179  2.143529  4.843054
N    2.219136  1.967552  3.836992
H    -2.259874  1.431404  4.480281
H    -2.833854  1.562719  2.806898
H    -1.510629  3.353320  2.813477
H    -0.310553  2.232010  2.260653
H    -0.706035  3.193347  5.175639
H    0.340646  3.976676  4.030920
H    0.800483  1.129287  5.137234
H    1.533384  2.633696  5.720979
H    1.947670  1.250700  3.117347
H    2.453189  2.855951  3.373844
H    3.076965  1.633769  4.296058
N    -3.720015  -0.811423  3.905770
C    -4.807763  -1.712021  4.295050
H    -3.896396  0.189424  3.980881
H    -4.491519  -2.359923  5.122617
H    -5.134647  -2.314230  3.437524
H    -5.653877  -1.107947  4.634091
Sr    -1.866873  -4.582564  3.130481
