35
Energy: -105404.554552 eV PBE+vdW (tier 2 basis)
C    -0.651793  -1.305939  1.161750
C    -0.124318  -0.281915  2.111077
O    0.912407  -0.544237  2.843999
H    0.098218  -2.080967  0.980951
H    -0.945533  -0.865963  0.200911
H    -1.543868  -1.790477  1.590759
N    -0.711020  0.903771  2.225536
C    -1.973463  1.356747  1.591993
C    -1.812171  2.046872  0.210893
O    -2.847920  2.342028  -0.398222
H    -0.306266  1.539914  2.914894
H    -2.572260  0.456947  1.396467
C    -2.752462  2.288227  2.569995
C    -4.205854  1.873078  2.868702
C    -5.199815  1.885083  1.695173
C    -5.492132  3.284415  1.127337
N    -5.480517  3.259984  -0.386250
H    -2.706074  3.317293  2.187955
H    -2.221367  2.308975  3.533476
H    -4.576150  2.533842  3.666725
H    -4.209857  0.862588  3.304936
H    -6.138429  1.429590  2.036126
H    -4.825773  1.236251  0.888697
H    -4.731334  4.021295  1.409602
H    -6.466874  3.670366  1.444559
H    -6.196149  2.624974  -0.763921
H    -4.537471  2.926810  -0.686279
H    -5.655023  4.190976  -0.787578
N    -0.583366  2.292999  -0.261541
C    -0.349779  2.976234  -1.539205
H    0.220187  2.085862  0.319172
H    0.686582  2.807882  -1.844553
H    -0.527491  4.054938  -1.443848
H    -1.022412  2.569960  -2.301114
Sr    2.584862  -1.470897  3.963259
