35
Energy: -105404.516193 eV PBE+vdW (tier 2 basis)
C    0.819553  0.258604  0.607920
C    0.526919  -1.085791  1.198536
O    1.330948  -2.077471  0.943308
H    1.806531  0.606249  0.945341
H    0.078625  1.015937  0.883903
H    0.837736  0.186318  -0.489142
N    -0.537906  -1.214437  1.954203
C    -1.135032  -2.367585  2.644944
C    -2.654642  -2.071830  2.513083
O    -3.004019  -0.896058  2.657953
H    -1.158400  -0.396161  2.076067
H    -0.831016  -3.292595  2.143232
C    -0.692507  -2.357861  4.140114
C    -1.607240  -3.077824  5.160305
C    -2.603893  -2.138375  5.872855
C    -3.409132  -2.885367  6.933331
N    -4.317155  -1.944825  7.716647
H    -0.582506  -1.306360  4.441986
H    0.313681  -2.795015  4.184052
H    -0.958183  -3.536914  5.919302
H    -2.146451  -3.912971  4.689819
H    -3.281517  -1.666164  5.145059
H    -2.035088  -1.324794  6.352148
H    -2.765440  -3.369180  7.679027
H    -4.067331  -3.648965  6.500381
H    -4.866145  -2.455690  8.424253
H    -4.985588  -1.457478  7.102252
H    -3.776338  -1.222002  8.213792
N    -3.510634  -3.088108  2.296003
C    -3.210716  -4.475588  1.941806
H    -4.475623  -2.780905  2.179903
H    -4.124517  -5.066129  2.058784
H    -2.454942  -4.908289  2.607836
H    -2.880008  -4.570295  0.897940
Sr    3.058646  -3.016883  -0.036042
