35
Energy: -105404.664639 eV PBE+vdW (tier 2 basis)
C    0.206918  -0.365002  0.123940
C    0.016324  -0.183488  1.592006
O    1.063355  -0.239013  2.367389
H    -0.729488  -0.393169  -0.438566
H    0.752891  -1.300354  -0.058939
H    0.825483  0.455355  -0.268156
N    -1.158115  0.035627  2.135240
C    -2.478614  0.254333  1.514062
C    -3.164992  1.186762  2.552478
O    -2.900472  0.972633  3.743188
H    -1.248016  0.169868  3.160167
H    -2.345682  0.733436  0.537525
C    -3.236746  -1.090446  1.363334
C    -4.619267  -0.997753  0.678685
C    -5.859162  -0.868072  1.594161
C    -6.311609  -2.217601  2.150143
N    -7.632763  -2.101443  2.901852
H    -3.309226  -1.550361  2.360529
H    -2.594501  -1.754115  0.767444
H    -4.746667  -1.886420  0.044158
H    -4.628251  -0.156348  -0.026572
H    -6.677817  -0.442370  0.992889
H    -5.669196  -0.162942  2.418009
H    -5.598075  -2.651994  2.861075
H    -6.489657  -2.946257  1.349270
H    -8.383222  -1.745731  2.290902
H    -7.564086  -1.461666  3.706381
H    -7.942435  -3.016305  3.262507
N    -4.010377  2.150388  2.147827
C    -4.363945  2.609730  0.806254
H    -4.394968  2.685988  2.925933
H    -5.364273  2.264227  0.512756
H    -3.638483  2.266961  0.062608
H    -4.361531  3.705449  0.791585
Sr    2.973485  -0.235507  3.419354
