35
Energy: -105404.309625 eV PBE+vdW (tier 2 basis)
C    0.938278  -0.471957  0.268247
C    0.627605  -0.328447  1.727910
O    1.502155  -0.202376  2.597155
H    1.550056  -1.373875  0.127968
H    1.550776  0.377251  -0.061482
H    0.052164  -0.540022  -0.372494
N    -0.703043  -0.361524  2.087100
C    -1.096813  -0.137387  3.466315
C    -2.233078  -1.047021  3.902665
O    -3.217725  -1.343604  3.109107
H    -1.384907  -0.248605  1.345346
H    -0.207556  -0.414754  4.050165
C    -1.447635  1.349216  3.788796
C    -0.250338  2.300238  3.621717
C    0.808683  2.220051  4.739608
C    2.169586  2.806974  4.349331
N    3.081540  1.763990  3.717241
H    -1.843751  1.418482  4.814122
H    -2.263038  1.667115  3.121483
H    -0.644775  3.325667  3.587377
H    0.205157  2.133863  2.634744
H    0.955964  1.184856  5.088189
H    0.450828  2.777174  5.616219
H    2.708679  3.203051  5.216661
H    2.065940  3.621106  3.621826
H    2.553326  1.078213  3.117282
H    3.823794  2.203602  3.157620
H    3.551214  1.205743  4.441904
N    -2.243503  -1.503361  5.140265
C    -1.223893  -1.319750  6.186883
H    -3.061577  -2.046345  5.413623
H    -1.164030  -0.269491  6.496135
H    -0.246358  -1.672637  5.838269
H    -1.520588  -1.920246  7.051227
Sr    -5.001091  -2.080775  2.020064
