35
Energy: -105404.381359 eV PBE+vdW (tier 2 basis)
C    0.055144  -0.484474  -0.217121
C    0.079994  -0.013147  1.197672
O    1.187128  0.470486  1.673688
H    -0.810689  -1.104982  -0.459433
H    0.968382  -1.058678  -0.421329
H    0.061417  0.386133  -0.890976
N    -0.972300  -0.081989  2.006772
C    -2.410216  -0.420886  1.749025
C    -2.727027  -1.930828  1.578320
O    -3.915997  -2.258606  1.470270
H    -0.787836  0.262584  2.949383
H    -2.890149  -0.166286  2.704630
C    -2.993920  0.512051  0.650015
C    -4.483869  0.433595  0.261320
C    -5.555484  0.923042  1.254738
C    -5.997020  0.011548  2.398923
N    -6.450577  -1.343950  1.901697
H    -2.430863  0.352503  -0.278587
H    -2.769459  1.539990  0.975060
H    -4.717085  -0.567347  -0.124650
H    -4.568002  1.092196  -0.615352
H    -6.451186  1.180358  0.667853
H    -5.244838  1.873789  1.714716
H    -6.836871  0.463372  2.939653
H    -5.203742  -0.198329  3.126435
H    -6.910520  -1.885284  2.644934
H    -5.594737  -1.865630  1.590757
H    -7.117233  -1.264443  1.122523
N    -1.734221  -2.831298  1.580964
C    -1.991197  -4.273988  1.481864
H    -0.793629  -2.535887  1.808832
H    -2.678476  -4.469944  0.652957
H    -2.435552  -4.656481  2.409257
H    -1.043607  -4.786076  1.295028
Sr    3.204357  1.317832  2.029690
