35
Energy: -105405.864927 eV PBE+vdW (tier 2 basis)
C    0.332365  2.015283  0.989943
C    0.329131  1.141365  2.200120
O    0.675729  1.593288  3.331979
H    0.031995  1.498910  0.072263
H    1.332346  2.447016  0.848118
H    -0.350879  2.858978  1.166648
N    -0.061287  -0.139970  2.061705
C    -0.245543  -1.121555  3.146742
C    1.139726  -1.618682  3.642486
O    1.790539  -0.887236  4.450451
H    -0.273565  -0.449948  1.116144
H    -0.666023  -0.575774  4.005510
C    -1.235777  -2.221779  2.708764
C    -2.687475  -1.731281  2.513767
C    -3.604673  -2.761618  1.813990
C    -4.238124  -3.858619  2.679258
N    -5.622342  -3.472847  3.196263
H    -1.205274  -3.021327  3.463776
H    -0.887047  -2.672258  1.762468
H    -2.687151  -0.822782  1.894834
H    -3.104535  -1.422444  3.486292
H    -3.037635  -3.272545  1.022368
H    -4.400246  -2.227754  1.271091
H    -3.644739  -4.113569  3.566029
H    -4.397796  -4.777790  2.104078
H    -6.026118  -4.223665  3.777390
H    -6.278409  -3.310949  2.417013
H    -5.609471  -2.616934  3.768174
N    1.615104  -2.772466  3.208441
C    2.913759  -3.347506  3.579446
H    1.050770  -3.304303  2.550990
H    2.821512  -4.437829  3.601582
H    3.204926  -2.984294  4.568258
H    3.677745  -3.068123  2.842134
Sr    2.092458  1.307007  5.106482
