35
Energy: -105404.632752 eV PBE+vdW (tier 2 basis)
C    0.003195  -0.338459  0.414604
C    -0.080192  0.048966  1.854309
O    1.028755  0.194510  2.523586
H    -0.952739  -0.651238  -0.012580
H    0.723406  -1.157975  0.296014
H    0.377753  0.515419  -0.170943
N    -1.227771  0.260280  2.459495
C    -2.572142  0.380351  1.864937
C    -3.276578  1.392067  2.810938
O    -2.915749  1.419216  3.997267
H    -1.257975  0.577440  3.446716
H    -2.459985  0.810046  0.861660
C    -3.361421  -0.957607  1.743348
C    -4.286636  -1.401568  2.894152
C    -3.607711  -1.872246  4.190969
C    -4.499451  -2.700200  5.114629
N    -5.671542  -1.909817  5.692645
H    -2.647652  -1.762419  1.510352
H    -3.991865  -0.856148  0.849149
H    -4.885537  -2.230963  2.485231
H    -5.000434  -0.587592  3.103724
H    -3.177809  -1.021481  4.742182
H    -2.767258  -2.540901  3.946583
H    -3.942391  -3.074819  5.981334
H    -4.947890  -3.557712  4.596593
H    -6.316063  -1.584632  4.958987
H    -5.351026  -1.082490  6.216081
H    -6.221999  -2.491022  6.342402
N    -4.250578  2.133397  2.270577
C    -5.029449  3.127649  3.012033
H    -4.427010  2.050624  1.273286
H    -4.878927  4.122007  2.575373
H    -4.688448  3.134759  4.050441
H    -6.097327  2.881803  2.970819
Sr    3.082803  0.573769  3.171937
