35
Energy: -105404.253017 eV PBE+vdW (tier 2 basis)
C    0.411653  -1.161174  0.489060
C    -0.193713  0.007565  1.198907
O    0.329821  1.183395  1.059074
H    0.393086  -0.987439  -0.596571
H    -0.106699  -2.104987  0.690012
H    1.461895  -1.276974  0.793309
N    -1.255676  -0.195346  1.962755
C    -2.037201  0.787082  2.738815
C    -2.416400  0.195425  4.132369
O    -3.604250  0.126234  4.467797
H    -1.593565  -1.156513  1.981245
H    -1.364007  1.636946  2.923955
C    -3.257438  1.319677  1.949977
C    -4.172883  0.340078  1.185934
C    -5.130998  -0.576579  1.969594
C    -6.210710  0.177740  2.767701
N    -6.322414  -0.357800  4.179486
H    -2.859635  2.025524  1.205843
H    -3.831975  1.933363  2.657313
H    -3.569480  -0.295109  0.518446
H    -4.772330  0.956865  0.499529
H    -4.564039  -1.230159  2.646467
H    -5.621893  -1.242808  1.248152
H    -7.202002  0.096041  2.308922
H    -5.979114  1.242757  2.881173
H    -5.383126  -0.278923  4.623284
H    -7.005543  0.172272  4.737414
H    -6.616389  -1.343452  4.193843
N    -1.423314  -0.195588  4.953379
C    0.022474  -0.086464  4.793027
H    -1.757246  -0.558821  5.845641
H    0.477077  -0.027896  5.787205
H    0.291134  0.831384  4.255111
H    0.447446  -0.958633  4.276631
Sr    1.686327  2.743773  0.249172
