35
Energy: -105404.403510 eV PBE+vdW (tier 2 basis)
C    0.224509  0.788929  0.164371
C    -0.120400  -0.128972  1.295826
O    0.740583  -0.636412  2.034299
H    0.781343  1.645785  0.568205
H    -0.644043  1.153107  -0.395166
H    0.909402  0.272795  -0.521026
N    -1.451083  -0.405301  1.509407
C    -1.913946  -1.127274  2.696472
C    -1.627507  -2.643766  2.538916
O    -2.544579  -3.553581  2.471305
H    -2.142741  -0.065521  0.848511
H    -1.246218  -0.820836  3.520870
C    -3.361773  -0.771458  3.066886
C    -3.522059  0.488891  3.948972
C    -3.168160  1.835422  3.293146
C    -3.212568  3.050753  4.219830
N    -4.623809  3.466798  4.628790
H    -3.787079  -1.613193  3.629539
H    -3.973243  -0.687554  2.154147
H    -2.915630  0.358748  4.859838
H    -4.572034  0.495480  4.283962
H    -3.796590  2.018127  2.405417
H    -2.133497  1.814810  2.920653
H    -2.668236  2.878130  5.157072
H    -2.781401  3.932641  3.731729
H    -5.202709  3.703591  3.809881
H    -4.596580  4.303187  5.231804
H    -5.113801  2.731250  5.155976
N    -0.355436  -2.961621  2.482366
C    0.131157  -4.317547  2.310099
H    0.302188  -2.115295  2.448548
H    1.225785  -4.311085  2.284333
H    -0.209620  -4.748262  1.350851
H    -0.163259  -4.954142  3.163570
Sr    -3.123939  -5.674214  2.243481
