35
Energy: -105404.813565 eV PBE+vdW (tier 2 basis)
C    -0.693120  -1.315914  1.857032
C    0.017844  -0.017037  1.679696
O    1.318538  0.000012  1.790033
H    -1.780492  -1.228414  1.791056
H    -0.432578  -1.742894  2.835281
H    -0.351513  -2.028714  1.092825
N    -0.602868  1.107441  1.416595
C    -1.982424  1.359767  0.971982
C    -1.775235  2.592623  0.026267
O    -0.715700  3.228108  0.134892
H    -0.059144  1.978614  1.194363
H    -2.340398  0.497946  0.392734
C    -2.997018  1.660863  2.105112
C    -2.734494  2.948046  2.908586
C    -3.974021  3.557736  3.598314
C    -4.539496  2.732665  4.751678
N    -5.688763  3.469409  5.431494
H    -3.049356  0.781418  2.765195
H    -3.980865  1.724848  1.614191
H    -2.349922  3.728654  2.237230
H    -1.940977  2.780757  3.652657
H    -4.759970  3.727369  2.844160
H    -3.684971  4.550290  3.978456
H    -3.793691  2.551479  5.536040
H    -4.951742  1.767764  4.431906
H    -6.462059  3.656666  4.776146
H    -5.383636  4.379679  5.807526
H    -6.077795  2.927813  6.217627
N    -2.775362  2.891793  -0.807340
C    -2.736989  4.015598  -1.748255
H    -3.564470  2.255464  -0.871728
H    -1.915229  4.679318  -1.467987
H    -3.684787  4.563084  -1.706151
H    -2.576944  3.652770  -2.771148
Sr    3.487122  -0.174251  1.709723
