35
Energy: -105405.969750 eV PBE+vdW (tier 2 basis)
C    -0.204116  0.578009  -0.228110
C    -0.183366  0.508643  1.261721
O    0.853902  0.825643  1.917164
H    -1.155502  0.263882  -0.669701
H    0.603888  -0.045194  -0.635184
H    0.011345  1.611563  -0.535723
N    -1.296724  0.107367  1.905469
C    -1.459701  0.084483  3.367990
C    -0.595941  -1.048599  3.990406
O    0.561953  -0.723067  4.411042
H    -2.094522  -0.158714  1.333357
H    -0.974588  0.994756  3.751162
C    -2.946088  0.130309  3.779866
C    -3.585726  1.525266  3.634384
C    -5.061839  1.536353  4.085598
C    -5.675273  2.932268  3.972752
N    -7.129866  2.951782  4.424298
H    -3.010077  -0.191002  4.830252
H    -3.524536  -0.605493  3.202374
H    -3.520804  1.866691  2.589301
H    -3.015340  2.250555  4.235638
H    -5.127017  1.187597  5.128933
H    -5.640968  0.826678  3.472941
H    -5.676058  3.304135  2.940466
H    -5.155690  3.664933  4.602917
H    -7.531493  3.898777  4.345525
H    -7.231618  2.660115  5.407880
H    -7.718506  2.324628  3.856013
N    -0.990400  -2.309190  4.081975
C    -2.215617  -2.970282  3.620112
H    -0.311307  -2.913895  4.547724
H    -2.536489  -2.576008  2.651359
H    -3.021070  -2.874484  4.358411
H    -1.992133  -4.033804  3.491237
Sr    2.371289  0.457296  3.598447
