35
Energy: -105405.916905 eV PBE+vdW (tier 2 basis)
C    0.939572  0.941024  0.206457
C    0.723148  0.300647  1.534707
O    1.700071  -0.015079  2.279237
H    1.617971  0.320738  -0.394686
H    1.447304  1.904821  0.360848
H    0.014721  1.113133  -0.353681
N    -0.537964  0.067040  1.944151
C    -0.904804  -0.420896  3.284180
C    -0.469400  -1.901784  3.450512
O    0.626333  -2.118406  4.062040
H    -1.289668  0.354591  1.321318
H    -0.260337  0.106946  4.003215
C    -2.366798  -0.035142  3.594819
C    -2.857924  -0.421424  5.001069
C    -4.262274  0.152837  5.288532
C    -4.746955  -0.199600  6.694947
N    -6.122802  0.387393  6.982323
H    -3.045769  -0.446627  2.835059
H    -2.413377  1.059854  3.486496
H    -2.150214  -0.044452  5.756162
H    -2.879061  -1.517192  5.112772
H    -4.977501  -0.230445  4.542918
H    -4.235524  1.248244  5.171950
H    -4.083078  0.197113  7.473270
H    -4.844673  -1.282243  6.843884
H    -6.439917  0.145794  7.933833
H    -6.836737  0.036412  6.326600
H    -6.124167  1.416176  6.914307
N    -1.159320  -2.923068  2.962097
C    -2.379708  -2.944954  2.149006
H    -0.744114  -3.833239  3.167405
H    -3.278149  -2.872765  2.774416
H    -2.410531  -3.900955  1.617379
H    -2.372063  -2.146549  1.400982
Sr    2.796713  -1.332941  3.785476
