35
Energy: -105405.742009 eV PBE+vdW (tier 2 basis)
C    0.568350  1.396188  0.822528
C    -0.189374  0.166734  1.211664
O    0.312093  -0.980333  1.021420
H    0.821213  1.333353  -0.245202
H    1.521958  1.422893  1.368185
H    0.028790  2.330141  1.010995
N    -1.406011  0.334757  1.765559
C    -2.418230  -0.663272  2.178425
C    -1.918527  -1.595052  3.301825
O    -1.018271  -2.466247  3.084288
H    -1.680743  1.304059  1.898987
H    -3.221865  -0.054199  2.608966
C    -3.032793  -1.473696  1.008645
C    -4.060991  -0.680105  0.175008
C    -4.735216  -1.568350  -0.891354
C    -6.041600  -1.056869  -1.499113
N    -5.866838  0.055463  -2.530828
H    -3.536954  -2.350398  1.444093
H    -2.230858  -1.864655  0.366299
H    -3.571907  0.192011  -0.288557
H    -4.834271  -0.286024  0.854472
H    -5.013723  -2.527481  -0.427347
H    -4.025432  -1.834256  -1.691423
H    -6.728396  -0.659086  -0.741314
H    -6.557047  -1.863404  -2.034009
H    -6.780199  0.333275  -2.922623
H    -5.281549  -0.249730  -3.322211
H    -5.440260  0.903022  -2.133265
N    -2.475391  -1.511667  4.500854
C    -3.511996  -0.595068  4.999120
H    -2.130460  -2.204258  5.167805
H    -3.252738  0.449262  4.792549
H    -3.568619  -0.716067  6.084756
H    -4.494593  -0.840107  4.577286
Sr    0.902309  -2.983399  1.953437
