35
Energy: -105404.001104 eV PBE+vdW (tier 2 basis)
C    1.228861  -1.158590  0.248520
C    0.816927  -0.793768  1.650585
O    1.603760  -0.757232  2.594315
H    0.465994  -0.963468  -0.513646
H    1.482956  -2.227774  0.217788
H    2.144293  -0.610386  -0.003945
N    -0.533824  -0.518277  1.812305
C    -1.270886  -0.223353  3.037494
C    -1.602220  1.284043  3.167939
O    -2.861248  1.621043  3.254763
H    -1.098926  -0.595070  0.972660
H    -2.264404  -0.678070  2.902974
C    -0.721812  -0.771611  4.387557
C    -0.847585  -2.297088  4.603656
C    0.151700  -3.242214  3.907234
C    1.602731  -3.208077  4.388523
N    1.822812  -4.055130  5.641822
H    -1.334347  -0.293494  5.168234
H    0.304793  -0.427995  4.545479
H    -1.859468  -2.619222  4.313338
H    -0.813342  -2.458913  5.693801
H    0.177401  -3.047536  2.829063
H    -0.232524  -4.272228  3.988511
H    1.956558  -2.199245  4.625880
H    2.279751  -3.626628  3.635745
H    1.595178  -5.045628  5.470497
H    1.248153  -3.741629  6.435706
H    2.807332  -4.018690  5.945012
N    -0.704034  2.242004  3.193565
C    0.761641  2.194854  3.133836
H    -1.091692  3.184361  3.258539
H    1.155664  2.808542  3.952403
H    1.093435  2.625378  2.180180
H    1.133917  1.170859  3.219650
Sr    -4.948520  2.300917  3.330831
