35
Energy: -105404.485795 eV PBE+vdW (tier 2 basis)
C    -0.459532  0.270622  1.886257
C    -0.522810  -0.917105  2.783210
O    0.603304  -1.450450  3.157306
H    -1.437925  0.636875  1.577746
H    0.111000  0.021310  0.984571
H    0.069738  1.073894  2.422479
N    -1.635312  -1.366521  3.362748
C    -2.997447  -1.364091  2.803608
C    -2.880153  -2.081157  1.414047
O    -1.813959  -2.017352  0.798412
H    -1.466520  -2.116693  4.031512
H    -3.559890  -2.013049  3.484490
C    -3.719869  0.029816  2.786491
C    -4.218010  0.543608  1.423113
C    -4.851900  1.952764  1.452255
C    -6.253022  1.990414  2.062280
N    -6.889314  3.365495  1.895936
H    -3.035528  0.766341  3.230272
H    -4.560023  -0.044993  3.489998
H    -4.938602  -0.161177  0.983157
H    -3.384800  0.581980  0.706650
H    -4.910269  2.307134  0.411170
H    -4.191505  2.654164  1.987665
H    -6.263349  1.786110  3.139673
H    -6.933671  1.285968  1.567448
H    -7.837267  3.395266  2.300541
H    -6.973319  3.625612  0.901721
H    -6.336385  4.102473  2.357705
N    -3.965732  -2.737107  0.966551
C    -5.211648  -3.022230  1.678277
H    -3.829247  -3.189609  0.064458
H    -5.918645  -3.458936  0.966790
H    -5.672002  -2.110959  2.081123
H    -5.064390  -3.745279  2.492576
Sr    2.622744  -2.271801  3.244123
