35
Energy: -105405.681045 eV PBE+vdW (tier 2 basis)
C    0.391031  -0.801022  0.221403
C    -0.023818  -0.402400  1.595444
O    0.808641  0.076957  2.423790
H    1.204600  -1.536963  0.284360
H    0.802286  0.078800  -0.294652
H    -0.425135  -1.217008  -0.378204
N    -1.312643  -0.551321  1.963149
C    -1.808259  -0.060741  3.254769
C    -1.186728  -0.863954  4.430249
O    -0.346039  -0.237845  5.155677
H    -1.967844  -0.895837  1.266874
H    -1.332568  0.920467  3.395187
C    -3.319534  0.281123  3.283120
C    -4.419620  -0.777982  3.087109
C    -5.805634  -0.096620  3.007238
C    -6.940882  -1.110591  2.864022
N    -8.300530  -0.427723  2.789040
H    -3.441422  1.065580  2.519097
H    -3.485017  0.787891  4.245986
H    -4.419753  -1.490634  3.923154
H    -4.258067  -1.362461  2.166993
H    -5.821061  0.599857  2.153580
H    -5.963041  0.507484  3.915327
H    -6.996964  -1.795965  3.718951
H    -6.854331  -1.707587  1.947482
H    -9.060130  -1.119312  2.693772
H    -8.368108  0.209761  1.981619
H    -8.500150  0.127082  3.634815
N    -1.436431  -2.140715  4.683955
C    -2.205428  -3.141050  3.945231
H    -0.948013  -2.490572  5.510842
H    -1.575819  -4.026921  3.797884
H    -2.502504  -2.762891  2.966372
H    -3.092742  -3.440838  4.515764
Sr    1.676635  0.682059  4.469825
