35
Energy: -105404.407823 eV PBE+vdW (tier 2 basis)
C    0.054068  -0.109258  0.276664
C    0.063490  -0.636687  1.672602
O    1.187237  -0.929778  2.255226
H    1.073554  0.037763  -0.088361
H    -0.489928  0.843893  0.210271
H    -0.460977  -0.809356  -0.399059
N    -1.070641  -0.813496  2.333195
C    -2.429344  -0.534110  1.818077
C    -2.800225  0.977065  1.699131
O    -3.359096  1.312415  0.658637
H    -0.990483  -1.158947  3.290328
H    -2.440255  -0.862725  0.772341
C    -3.478541  -1.346557  2.611320
C    -4.949027  -1.002270  2.290029
C    -5.398652  -1.318118  0.852588
C    -6.785417  -0.807455  0.474468
N    -7.925795  -1.543584  1.176971
H    -3.329586  -1.181891  3.689579
H    -3.294579  -2.416523  2.429122
H    -5.127045  0.063574  2.500818
H    -5.554022  -1.563826  3.019551
H    -5.321262  -2.397536  0.642465
H    -4.730819  -0.815216  0.137574
H    -6.973443  -0.936877  -0.597684
H    -6.915121  0.254241  0.719738
H    -8.840655  -1.183094  0.867452
H    -7.888742  -1.436789  2.199687
H    -7.909820  -2.552158  0.967786
N    -2.545311  1.837631  2.713661
C    -1.986083  1.594606  4.037827
H    -2.839252  2.790003  2.503218
H    -2.252563  2.437609  4.683093
H    -0.888111  1.524604  4.023790
H    -2.407259  0.695404  4.504525
Sr    3.296784  -1.334685  2.727065
