35
Energy: -105403.756531 eV PBE+vdW (tier 2 basis)
C    0.298177  0.110437  0.841414
C    0.310865  -0.328539  2.278152
O    1.329937  -0.764127  2.820335
H    -0.676455  0.067584  0.343165
H    1.020904  -0.484658  0.273716
H    0.655754  1.150952  0.801768
N    -0.828054  -0.191677  3.066173
C    -2.221178  -0.402822  2.668431
C    -3.098628  0.701982  3.307058
O    -4.045346  0.413729  4.147060
H    -0.620349  -0.460294  4.028963
H    -2.291543  -0.247536  1.580291
C    -2.700133  -1.830925  3.008829
C    -2.241214  -2.982150  2.079862
C    -0.744540  -3.292967  1.868114
C    0.045344  -3.678080  3.122858
N    1.534929  -3.528815  2.887040
H    -3.799968  -1.843723  2.965592
H    -2.433198  -2.042937  4.057657
H    -2.670525  -2.812566  1.081302
H    -2.737582  -3.891051  2.451071
H    -0.252177  -2.454234  1.360416
H    -0.694825  -4.126310  1.151598
H    -0.143231  -4.715751  3.422018
H    -0.170193  -3.031391  3.981437
H    2.084872  -3.888836  3.679152
H    1.751542  -2.506727  2.777693
H    1.846801  -4.034125  2.046209
N    -2.884647  1.968540  3.012518
C    -1.915529  2.558827  2.079794
H    -3.466583  2.638302  3.515027
H    -2.217978  3.593636  1.895830
H    -1.919008  2.022132  1.126230
H    -0.910279  2.548891  2.516858
Sr    -5.821170  0.109760  5.428862
