35
Energy: -105405.286412 eV PBE+vdW (tier 2 basis)
C    0.306484  -0.229810  0.634591
C    0.024537  -0.087450  2.090368
O    0.957747  -0.148600  2.942659
H    1.006159  0.545098  0.291796
H    -0.587836  -0.227942  0.005836
H    0.830520  -1.188839  0.497336
N    -1.252438  0.085956  2.537942
C    -2.147173  1.114945  2.001230
C    -1.490351  2.500238  2.303503
O    -0.501289  2.555766  3.108449
H    -1.311335  0.008397  3.555157
H    -2.212000  0.996750  0.909843
C    -3.546699  0.988940  2.650885
C    -4.322537  -0.312046  2.345583
C    -5.022127  -0.341781  0.974860
C    -5.782703  -1.628233  0.643053
N    -7.096462  -1.781204  1.405486
H    -4.152752  1.858940  2.363830
H    -3.416524  1.075766  3.741054
H    -5.064521  -0.417121  3.152564
H    -3.651077  -1.179690  2.439866
H    -5.695136  0.524635  0.863501
H    -4.282808  -0.241322  0.165007
H    -5.198457  -2.529641  0.867525
H    -6.060035  -1.655999  -0.417239
H    -7.580265  -2.648706  1.125789
H    -7.742792  -1.001700  1.212230
H    -6.961837  -1.828865  2.424995
N    -1.941825  3.601988  1.729071
C    -3.008515  3.774900  0.738739
H    -1.469857  4.458561  2.025088
H    -2.674609  4.505434  -0.006444
H    -3.919215  4.156480  1.218264
H    -3.224238  2.834153  0.225044
Sr    1.463933  1.796754  4.126216
