35
Energy: -105404.895794 eV PBE+vdW (tier 2 basis)
C    -0.095182  -0.706869  0.642377
C    -0.079782  0.489067  1.532763
O    1.060994  0.879058  2.033946
H    0.501972  -0.500646  -0.257524
H    -1.100705  -1.003387  0.333341
H    0.379024  -1.552013  1.159350
N    -1.156922  1.171076  1.833029
C    -2.542056  1.084654  1.337984
C    -2.989536  2.577985  1.462054
O    -2.456039  3.236613  2.366387
H    -1.103762  2.027744  2.429899
H    -2.544198  0.730229  0.300592
C    -3.383416  0.158638  2.256379
C    -4.875601  0.060169  1.897953
C    -5.640667  -0.873533  2.858085
C    -7.126418  -0.927703  2.508130
N    -7.900758  -1.834600  3.456681
H    -3.273637  0.527889  3.287494
H    -2.927926  -0.843529  2.227681
H    -4.993082  -0.304081  0.865604
H    -5.332063  1.060339  1.936516
H    -5.516500  -0.514634  3.892621
H    -5.210602  -1.887143  2.813172
H    -7.302535  -1.326089  1.501077
H    -7.604454  0.057342  2.579189
H    -7.832981  -1.512272  4.433196
H    -7.552549  -2.804049  3.428358
H    -8.902421  -1.862849  3.213330
N    -3.913284  3.084687  0.632219
C    -4.545443  2.508525  -0.550831
H    -4.131386  4.060836  0.833959
H    -5.621179  2.360711  -0.389491
H    -4.094428  1.546983  -0.811146
H    -4.413721  3.185628  -1.403238
Sr    3.032188  1.532807  2.679578
