35
Energy: -105404.802696 eV PBE+vdW (tier 2 basis)
C    -0.691563  1.096966  1.996540
C    -0.766967  -0.343231  2.384073
O    0.323094  -0.910975  2.802513
H    0.170919  1.269129  1.344891
H    -1.583104  1.464206  1.486666
H    -0.554214  1.684388  2.918594
N    -1.931567  -0.985343  2.610090
C    -3.034962  -0.963680  1.636262
C    -2.340049  -1.073765  0.226749
O    -1.105064  -0.955512  0.161959
H    -1.787745  -1.898779  3.037969
H    -3.580998  -1.903534  1.809437
C    -4.057055  0.186131  1.767306
C    -4.902432  0.122145  3.051325
C    -6.034369  1.170062  3.058953
C    -6.892118  1.061090  4.317967
N    -8.040206  2.063501  4.308799
H    -4.723427  0.126785  0.893575
H    -3.559454  1.161954  1.687507
H    -4.256301  0.265776  3.930901
H    -5.341802  -0.883858  3.147563
H    -6.668354  1.026518  2.168718
H    -5.605556  2.182623  2.986911
H    -6.320498  1.266284  5.231629
H    -7.358660  0.072917  4.417195
H    -7.700361  3.035050  4.258249
H    -8.613525  1.984077  5.162173
H    -8.668388  1.916762  3.504964
N    -3.129086  -1.305200  -0.823295
C    -2.632673  -1.454487  -2.194561
H    -4.119322  -1.465686  -0.668801
H    -3.400142  -1.101940  -2.890377
H    -2.402551  -2.504946  -2.414471
H    -1.727194  -0.853508  -2.315689
Sr    2.368065  -1.645180  2.646980
