35
Energy: -105404.529652 eV PBE+vdW (tier 2 basis)
C    -0.610725  1.805512  -0.025545
C    -0.372238  0.909086  1.143617
O    0.775492  0.323419  1.290711
H    0.340554  2.154045  -0.438010
H    -1.228042  2.674917  0.229183
H    -1.138698  1.248043  -0.816541
N    -1.327579  0.685873  2.034128
C    -2.727692  1.166617  1.982717
C    -2.981617  2.638253  2.402721
O    -3.844781  3.247521  1.747096
H    -1.089724  0.057934  2.803289
H    -3.031429  1.150950  0.929540
C    -3.628936  0.194118  2.785154
C    -5.086045  0.654238  2.948295
C    -5.941250  0.655879  1.661125
C    -7.090159  1.662204  1.699965
N    -6.612295  3.061984  1.326802
H    -3.201223  0.060431  3.791497
H    -3.593564  -0.788980  2.291300
H    -5.094937  1.647005  3.423962
H    -5.559497  -0.013115  3.680958
H    -5.335072  0.842539  0.760635
H    -6.381510  -0.339179  1.512431
H    -7.533869  1.732891  2.700428
H    -7.889128  1.406653  0.995602
H    -7.210807  3.790978  1.735561
H    -6.636991  3.193306  0.307656
H    -5.616636  3.225104  1.618996
N    -2.349004  3.202746  3.443195
C    -1.407974  2.627804  4.402110
H    -2.626028  4.171534  3.599836
H    -0.384743  2.591364  4.004075
H    -1.722609  1.630311  4.730454
H    -1.397335  3.266240  5.290948
Sr    2.797539  -0.540964  1.056744
