35
Energy: -105404.689282 eV PBE+vdW (tier 2 basis)
C    -0.458486  0.739196  0.049481
C    -0.077345  0.303456  1.423187
O    1.092038  0.652459  1.886778
H    0.277706  0.356125  -0.670838
H    -1.452801  0.397860  -0.249585
H    -0.428494  1.836079  -0.008621
N    -0.859401  -0.412523  2.191216
C    -2.235766  -0.915270  2.026764
C    -2.672131  -1.044121  3.524062
O    -1.770890  -1.257788  4.345495
H    -0.563887  -0.678229  3.159946
H    -2.838081  -0.185526  1.472918
C    -2.187305  -2.304792  1.330766
C    -3.472349  -3.153750  1.260726
C    -4.451282  -2.835925  0.111921
C    -5.552393  -3.896294  0.066605
N    -6.487257  -3.726070  -1.124765
H    -1.441181  -2.892928  1.883979
H    -1.776629  -2.163189  0.318914
H    -3.997724  -3.133618  2.226597
H    -3.137781  -4.194502  1.138473
H    -3.900942  -2.836140  -0.843266
H    -4.897513  -1.835768  0.229812
H    -6.192150  -3.872070  0.957703
H    -5.135654  -4.907242  -0.025630
H    -7.214667  -4.457415  -1.132676
H    -5.980361  -3.793149  -2.019490
H    -6.970581  -2.816520  -1.112034
N    -3.965190  -0.944611  3.870455
C    -5.124952  -0.571148  3.072454
H    -4.120219  -1.081623  4.869486
H    -5.771723  -1.437962  2.875332
H    -4.819629  -0.124899  2.120961
H    -5.714137  0.177117  3.615368
Sr    3.015001  1.337760  2.641735
