35
Energy: -105405.223434 eV PBE+vdW (tier 2 basis)
C    1.018025  0.666577  1.555847
C    0.510445  0.587427  2.955305
O    1.302089  0.642494  3.940205
H    1.880024  -0.011082  1.472210
H    1.404419  1.674296  1.340122
H    0.273852  0.396737  0.801202
N    -0.824842  0.441574  3.199384
C    -1.829000  1.310786  2.577369
C    -1.542567  2.767786  3.067485
O    -0.711332  2.954416  4.018905
H    -1.012773  0.273804  4.189413
H    -1.683299  1.293651  1.486871
C    -3.266579  0.845798  2.914223
C    -3.836444  -0.317293  2.069451
C    -3.358760  -1.730759  2.446646
C    -3.908634  -2.866615  1.580854
N    -5.386521  -3.168788  1.818296
H    -3.937035  1.704218  2.784329
H    -3.319207  0.605989  3.988932
H    -3.630814  -0.128041  1.003420
H    -4.930943  -0.251049  2.176311
H    -3.569006  -1.939490  3.508837
H    -2.265916  -1.803395  2.344722
H    -3.384617  -3.806259  1.791418
H    -3.815501  -2.656658  0.507672
H    -5.693954  -3.961476  1.233671
H    -5.997063  -2.372797  1.587115
H    -5.570957  -3.429008  2.798441
N    -2.134306  3.798587  2.489508
C    -3.061307  3.834322  1.353360
H    -1.907170  4.704707  2.903421
H    -2.802874  4.693349  0.724488
H    -4.094477  3.956895  1.703540
H    -2.979681  2.927484  0.747755
Sr    1.212131  2.555131  5.279520
