35
Energy: -105404.479127 eV PBE+vdW (tier 2 basis)
C    0.166190  1.463820  1.275673
C    0.186868  0.313930  2.222403
O    1.319929  0.021093  2.790724
H    -0.800837  1.618664  0.798861
H    0.913017  1.307563  0.489309
H    0.436683  2.371604  1.837621
N    -0.898892  -0.325058  2.655817
C    -2.132323  -0.603245  1.901493
C    -1.666355  -1.327074  0.590853
O    -0.547644  -1.076654  0.137216
H    -0.700257  -1.008186  3.385519
H    -2.664446  -1.326660  2.529647
C    -3.089606  0.623763  1.691175
C    -3.452497  0.985917  0.239234
C    -4.328978  2.248917  0.081513
C    -5.790853  2.045988  0.479375
N    -6.632646  3.265154  0.120495
H    -2.632945  1.492691  2.185386
H    -4.001596  0.410791  2.265087
H    -3.953693  0.141710  -0.256404
H    -2.537959  1.156846  -0.346871
H    -4.289525  2.542586  -0.979232
H    -3.897198  3.084303  0.656285
H    -5.931145  1.893954  1.556309
H    -6.247081  1.202358  -0.054009
H    -6.607176  3.457294  -0.892184
H    -6.301002  4.114958  0.599922
H    -7.621325  3.132638  0.381392
N    -2.526850  -2.193290  0.026880
C    -3.790480  -2.698015  0.563829
H    -2.168007  -2.638136  -0.816062
H    -3.634734  -3.372474  1.417337
H    -4.293672  -3.265752  -0.224202
H    -4.463453  -1.884480  0.863188
Sr    3.418381  -0.389740  3.224528
