35
Energy: -105405.175560 eV PBE+vdW (tier 2 basis)
C    -0.771239  -0.586483  -0.648708
C    -0.675207  -0.645853  0.838462
O    0.355632  -1.108661  1.406596
H    -0.372269  -1.526392  -1.054101
H    -0.126974  0.214418  -1.043810
H    -1.790271  -0.434887  -1.016161
N    -1.704951  -0.200371  1.614603
C    -2.326104  1.111263  1.402287
C    -1.208312  2.187657  1.596489
O    -0.087247  1.839022  2.099157
H    -1.550832  -0.405085  2.603462
H    -2.677864  1.174902  0.361668
C    -3.510922  1.330523  2.372123
C    -4.861390  0.663421  2.027660
C    -4.950311  -0.864880  2.213007
C    -6.346832  -1.410914  2.518079
N    -7.338864  -1.294708  1.363134
H    -3.694658  2.410158  2.441214
H    -3.194239  1.032302  3.385446
H    -5.151983  0.952052  1.004192
H    -5.595346  1.142091  2.695244
H    -4.356761  -1.164147  3.091049
H    -4.507948  -1.406434  1.362728
H    -6.813303  -0.887527  3.362545
H    -6.305240  -2.479649  2.759562
H    -8.250935  -1.698178  1.628446
H    -7.017718  -1.803605  0.526892
H    -7.513095  -0.317620  1.089649
N    -1.411583  3.441111  1.230427
C    -2.577862  4.055139  0.587324
H    -0.635698  4.073986  1.434214
H    -2.221955  4.765114  -0.167373
H    -3.179803  4.602295  1.324545
H    -3.195631  3.303158  0.088804
Sr    1.726256  0.428509  2.511914
