35
Energy: -105404.238304 eV PBE+vdW (tier 2 basis)
C    0.004454  0.040039  0.261330
C    -0.128768  -0.070186  1.741221
O    0.941531  -0.015749  2.474857
H    -0.946290  0.037817  -0.277913
H    0.612629  -0.800949  -0.103947
H    0.545582  0.963941  0.014071
N    -1.297408  -0.239476  2.343399
C    -2.674410  -0.203836  1.763881
C    -2.878016  -1.237593  0.622774
O    -3.297221  -0.870103  -0.485940
H    -1.250898  -0.305269  3.360408
H    -3.310891  -0.545269  2.595053
C    -3.038370  1.264564  1.436469
C    -4.353970  1.640897  0.721618
C    -5.708092  1.127091  1.244913
C    -6.170654  -0.269706  0.825606
N    -6.063660  -0.480769  -0.673732
H    -2.229103  1.690456  0.826384
H    -3.001598  1.795601  2.400197
H    -4.244625  1.434483  -0.350168
H    -4.394902  2.737086  0.789140
H    -6.478372  1.842605  0.918815
H    -5.749118  1.158653  2.344426
H    -5.590510  -1.084697  1.275377
H    -7.221124  -0.421166  1.100337
H    -5.053137  -0.589708  -0.923120
H    -6.563940  -1.328393  -0.971962
H    -6.462228  0.308928  -1.200103
N    -2.634942  -2.535339  0.894041
C    -2.255995  -3.174511  2.152148
H    -2.782418  -3.148558  0.092889
H    -2.571212  -4.222104  2.115761
H    -2.764021  -2.711596  3.007262
H    -1.169575  -3.154044  2.314804
Sr    2.971893  0.256784  3.307612
