35
Energy: -105405.424464 eV PBE+vdW (tier 2 basis)
C    -1.990518  -1.481800  1.487463
C    -0.841907  -0.955718  2.280181
O    0.215678  -1.637129  2.423100
H    -2.133624  -2.536197  1.762524
H    -1.755121  -1.476371  0.412091
H    -2.924059  -0.936037  1.651753
N    -0.914598  0.267910  2.875626
C    -1.351038  1.458827  2.146887
C    -0.230166  1.788574  1.096538
O    0.798970  1.044738  1.011503
H    -0.120526  0.442861  3.494513
H    -2.252837  1.197790  1.571158
C    -1.677928  2.626118  3.102665
C    -2.944788  2.422743  3.959091
C    -3.275036  3.693109  4.769942
C    -4.650783  3.755624  5.434334
N    -4.756786  2.959346  6.733050
H    -1.808578  3.539573  2.503715
H    -0.803477  2.822030  3.744645
H    -2.809581  1.549732  4.617119
H    -3.792504  2.188634  3.295080
H    -3.261024  4.559479  4.090492
H    -2.487784  3.903887  5.512318
H    -5.450601  3.380447  4.783409
H    -4.895726  4.787407  5.712885
H    -5.696820  3.061109  7.146189
H    -4.081887  3.293538  7.436743
H    -4.594669  1.952588  6.596898
N    -0.400923  2.822928  0.295449
C    0.542833  3.237680  -0.752180
H    -1.257878  3.363354  0.382674
H    0.218988  4.205163  -1.144522
H    0.552696  2.506255  -1.569814
H    1.549554  3.338653  -0.332755
Sr    2.110004  -0.870037  1.308240
