35
Energy: -105404.162568 eV PBE+vdW (tier 2 basis)
C    0.090018  0.937736  0.803798
C    -0.357865  1.199491  2.210256
O    0.419456  1.233769  3.163815
H    -0.575401  1.358211  0.041335
H    0.177902  -0.147754  0.637873
H    1.097176  1.352020  0.679660
N    -1.716655  1.431054  2.452371
C    -2.830319  0.740800  1.801288
C    -3.731673  1.734622  1.044004
O    -4.742665  1.320097  0.354242
H    -1.874151  1.605643  3.445174
H    -2.436029  0.057879  1.031060
C    -3.624015  -0.080930  2.852795
C    -3.002342  -1.428629  3.288254
C    -1.563650  -1.479210  3.842512
C    -1.337906  -0.762193  5.179365
N    0.129327  -0.442346  5.373179
H    -4.619581  -0.310130  2.447269
H    -3.810994  0.575632  3.718664
H    -3.030720  -2.116495  2.430260
H    -3.688779  -1.864128  4.029722
H    -0.855282  -1.098967  3.093866
H    -1.305472  -2.540701  3.968566
H    -1.664953  -1.371724  6.029864
H    -1.856737  0.202183  5.249642
H    0.312369  -0.029715  6.298292
H    0.422898  0.248340  4.633491
H    0.719363  -1.282236  5.294763
N    -3.424167  3.007293  1.115033
C    -4.131879  4.115519  0.476506
H    -2.578557  3.201292  1.661303
H    -3.674786  5.054881  0.799969
H    -5.186222  4.123610  0.781453
H    -4.046967  4.050450  -0.616703
Sr    -6.467817  0.875835  -0.953782
