35
Energy: -105404.458842 eV PBE+vdW (tier 2 basis)
C    -2.571827  0.490375  0.429290
C    -1.958243  0.363374  1.791236
O    -0.845413  0.858309  2.058086
H    -2.873047  1.536879  0.276560
H    -3.441711  -0.155026  0.266669
H    -1.807254  0.276281  -0.327102
N    -2.691753  -0.297932  2.738115
C    -2.303802  -0.649056  4.114122
C    -1.947338  0.562897  4.996035
O    -2.496412  0.661833  6.174419
H    -3.603565  -0.636501  2.447070
H    -3.227248  -1.034994  4.564297
C    -1.283318  -1.825122  4.229451
C    0.136494  -1.662956  3.659534
C    1.015072  -2.912556  3.906032
C    0.925002  -4.037758  2.874121
N    1.832478  -3.792599  1.670317
H    -1.785077  -2.686241  3.761328
H    -1.208597  -2.074680  5.300945
H    0.634912  -0.805651  4.131711
H    0.094051  -1.414833  2.588864
H    0.758227  -3.362109  4.876605
H    2.068832  -2.611133  4.015091
H    -0.085185  -4.175895  2.468785
H    1.257094  -4.994818  3.292901
H    1.746682  -4.549731  0.975582
H    2.822682  -3.753560  1.954719
H    1.617074  -2.907767  1.190291
N    -1.100577  1.450443  4.554610
C    -0.688300  2.652258  5.269613
H    -0.797037  1.280544  3.532077
H    0.056638  3.177579  4.665320
H    -0.232671  2.396997  6.236039
H    -1.540285  3.331009  5.421420
Sr    -3.449401  1.232660  8.056193
