35
Energy: -105404.611890 eV PBE+vdW (tier 2 basis)
C    -0.282643  0.085368  -0.734983
C    0.075358  0.971845  0.409641
O    1.287730  1.447884  0.473913
H    0.440981  -0.738607  -0.796959
H    -0.209499  0.653510  -1.673712
H    -1.287813  -0.337303  -0.662121
N    -0.776728  1.299085  1.352412
C    -2.220709  1.030236  1.490624
C    -2.692959  2.298057  2.264187
O    -1.894233  2.768076  3.085791
H    -0.494662  1.938842  2.122048
H    -2.675071  0.949630  0.496615
C    -2.448971  -0.272799  2.304292
C    -3.924610  -0.665239  2.546452
C    -4.574657  -0.095605  3.827642
C    -4.354481  -0.901599  5.107531
N    -5.276300  -2.116418  5.197134
H    -1.907726  -0.174847  3.258078
H    -1.952596  -1.082515  1.750878
H    -3.974375  -1.765903  2.553737
H    -4.533709  -0.377733  1.678982
H    -5.656658  0.042990  3.673774
H    -4.192536  0.912794  4.037355
H    -4.575171  -0.305414  6.000562
H    -3.332338  -1.290261  5.199149
H    -5.100957  -2.656915  6.057419
H    -5.156271  -2.759830  4.402244
H    -6.266988  -1.832024  5.214676
N    -3.910513  2.819868  2.040469
C    -4.937233  2.462925  1.064703
H    -4.098391  3.640334  2.617131
H    -5.784605  1.953800  1.543359
H    -4.533206  1.817678  0.279259
H    -5.311776  3.375183  0.586521
Sr    3.308557  2.251320  0.313796
