35
Energy: -105404.641723 eV PBE+vdW (tier 2 basis)
C    0.231902  -1.766343  0.910713
C    -0.274121  -0.411354  1.298074
O    0.251297  0.641603  0.737956
H    0.094894  -1.921000  -0.169032
H    -0.278850  -2.576568  1.440955
H    1.306411  -1.840788  1.133199
N    -1.228429  -0.338730  2.193941
C    -1.840928  0.797258  2.890453
C    -1.921552  0.257077  4.357541
O    -1.926326  -0.970050  4.507517
H    -1.461437  -1.195339  2.744134
H    -1.188111  1.675980  2.810861
C    -3.257412  1.144097  2.349344
C    -4.278688  -0.004088  2.445088
C    -5.717668  0.339459  1.998612
C    -6.532507  1.067702  3.066463
N    -7.995425  1.189330  2.654536
H    -3.595319  2.023697  2.918352
H    -3.159352  1.472661  1.303156
H    -4.304525  -0.409801  3.467524
H    -3.941763  -0.836265  1.811355
H    -6.222137  -0.610177  1.761178
H    -5.702011  0.928040  1.067206
H    -6.536369  0.521276  4.018043
H    -6.188070  2.091876  3.254321
H    -8.423074  0.262422  2.509047
H    -8.553327  1.673076  3.373973
H    -8.104968  1.715967  1.775663
N    -2.031305  1.162976  5.338077
C    -2.130419  0.804874  6.756620
H    -1.949991  2.147865  5.105586
H    -2.973127  1.332764  7.216850
H    -1.207239  1.074018  7.284156
H    -2.285206  -0.274526  6.832501
Sr    1.786033  1.682051  -0.435724
