35
Energy: -105405.261954 eV PBE+vdW (tier 2 basis)
C    -1.909268  1.683718  -1.690089
C    -1.256249  0.905762  -0.602474
O    -0.054013  0.520142  -0.704360
H    -1.837911  1.075016  -2.606167
H    -1.356868  2.609113  -1.903506
H    -2.964358  1.905480  -1.507592
N    -1.951359  0.554319  0.518730
C    -2.676997  1.531587  1.331536
C    -1.597990  2.372919  2.089049
O    -0.368178  2.038227  1.997495
H    -1.429488  -0.117265  1.082608
H    -3.186080  2.226841  0.647085
C    -3.775651  0.866084  2.199175
C    -3.311773  -0.200523  3.205315
C    -4.418423  -0.713693  4.158267
C    -5.476588  -1.590928  3.486314
N    -6.442711  -2.170988  4.511976
H    -4.493093  0.441419  1.482264
H    -4.315075  1.659150  2.734285
H    -2.518578  0.212281  3.847495
H    -2.871199  -1.065171  2.683212
H    -4.903104  0.142915  4.653595
H    -3.924528  -1.295727  4.951704
H    -5.032195  -2.453115  2.972965
H    -6.099852  -1.043867  2.768759
H    -7.155561  -2.765774  4.062289
H    -6.944545  -1.434138  5.029848
H    -5.955700  -2.754853  5.208733
N    -1.939013  3.448431  2.779161
C    -3.244968  4.101811  2.924669
H    -1.158092  3.914091  3.244440
H    -3.081117  5.184155  2.959426
H    -3.733108  3.795542  3.858429
H    -3.894225  3.883276  2.071751
Sr    1.521575  1.308324  0.815734
