35
Energy: -105404.784162 eV PBE+vdW (tier 2 basis)
C    -0.404796  -1.364588  0.573974
C    -0.066664  -0.207686  1.452408
O    1.173860  -0.054959  1.828393
H    -0.075932  -2.295704  1.055555
H    -1.471568  -1.444324  0.350613
H    0.146617  -1.278702  -0.373373
N    -0.956658  0.663325  1.861922
C    -2.342788  0.894936  1.423250
C    -2.467786  2.440729  1.617619
O    -1.645477  2.985248  2.370843
H    -0.669819  1.516130  2.402843
H    -2.434728  0.627535  0.363183
C    -3.411601  0.117612  2.235441
C    -3.546787  0.533119  3.709226
C    -4.592810  -0.260863  4.523334
C    -6.038986  0.126553  4.217311
N    -7.007679  -0.570178  5.166177
H    -3.178737  -0.956541  2.166684
H    -4.362399  0.253579  1.699355
H    -3.768682  1.608721  3.784875
H    -2.580822  0.398356  4.216116
H    -4.395284  -0.069642  5.589735
H    -4.453122  -1.342598  4.365361
H    -6.359044  -0.155172  3.206878
H    -6.211717  1.201949  4.351497
H    -6.816087  -0.324028  6.148871
H    -6.945765  -1.596217  5.091659
H    -7.985244  -0.307238  4.970570
N    -3.455225  3.103112  1.001745
C    -4.438256  2.620815  0.034665
H    -3.467807  4.100113  1.214718
H    -4.599325  3.395741  -0.722440
H    -5.403260  2.401934  0.511991
H    -4.080556  1.725007  -0.483606
Sr    3.310819  0.208426  2.152166
