35
Energy: -105404.514677 eV PBE+vdW (tier 2 basis)
C    -0.013502  -0.774783  0.198782
C    -0.015194  0.177999  1.355540
O    1.002207  0.828021  1.670817
H    0.861144  -1.431995  0.281556
H    0.116444  -0.201518  -0.730024
H    -0.919880  -1.384198  0.118072
N    -1.193760  0.318688  2.036060
C    -1.445943  1.079336  3.269228
C    -1.133961  2.582933  3.162004
O    -2.040314  3.431957  3.560966
H    -1.977608  -0.230505  1.697366
H    -2.537022  1.057297  3.382330
C    -0.893107  0.419481  4.576278
C    0.541452  -0.138763  4.595175
C    0.825673  -0.857146  5.931193
C    1.978326  -1.857584  5.934558
N    3.360112  -1.212609  5.847839
H    -1.578823  -0.412251  4.797121
H    -1.029754  1.142900  5.396677
H    1.273647  0.661855  4.411914
H    0.654432  -0.860015  3.772812
H    -0.053184  -1.458940  6.211842
H    0.950340  -0.134193  6.753643
H    1.922908  -2.558992  5.092436
H    1.987922  -2.439134  6.864101
H    4.100906  -1.929371  5.880405
H    3.526313  -0.569995  6.635654
H    3.488861  -0.681920  4.975695
N    0.017636  2.973329  2.693773
C    0.429834  4.361009  2.517355
H    0.617249  2.157719  2.312823
H    1.451905  4.373020  2.128734
H    0.414269  4.899724  3.474231
H    -0.215232  4.872764  1.788627
Sr    -3.515071  5.006500  3.900362
