35
Energy: -105405.253318 eV PBE+vdW (tier 2 basis)
C    0.256706  1.171335  0.540654
C    -0.036867  0.500424  1.839167
O    0.712819  0.672627  2.844398
H    1.327390  1.033283  0.330298
H    0.100543  2.257776  0.618093
H    -0.325290  0.780029  -0.298553
N    -1.111584  -0.328166  1.965148
C    -2.454949  0.057220  1.535112
C    -2.935099  1.193499  2.506314
O    -2.179729  1.580232  3.453480
H    -1.103001  -0.839699  2.849770
H    -2.381513  0.501508  0.530292
C    -3.395195  -1.172966  1.510876
C    -2.971272  -2.283612  0.522993
C    -3.432948  -2.098584  -0.941088
C    -4.785942  -2.713561  -1.309919
N    -4.698913  -4.216227  -1.564410
H    -4.420582  -0.838347  1.293266
H    -3.437565  -1.588043  2.529794
H    -3.343120  -3.238639  0.925416
H    -1.877104  -2.381336  0.543985
H    -2.665679  -2.482901  -1.630928
H    -3.509357  -1.029325  -1.190930
H    -5.177787  -2.287103  -2.240792
H    -5.544762  -2.584186  -0.527630
H    -4.070781  -4.427678  -2.354496
H    -5.623956  -4.606283  -1.802384
H    -4.351487  -4.738394  -0.747478
N    -4.118802  1.740646  2.301358
C    -4.696248  2.820565  3.114690
H    -4.669875  1.413418  1.512531
H    -5.729115  2.979002  2.793972
H    -4.131893  3.750323  2.972412
H    -4.687926  2.540212  4.173570
Sr    -0.173923  1.856062  4.640760
