35
Energy: -105404.781185 eV PBE+vdW (tier 2 basis)
C    -0.268977  1.198641  0.730110
C    0.158514  0.373971  1.896964
O    1.229212  0.728317  2.551611
H    -1.128418  0.787176  0.195157
H    0.568884  1.292919  0.025943
H    -0.523123  2.212417  1.071873
N    -0.500702  -0.689009  2.294969
C    -1.784045  -1.251462  1.837199
C    -2.323624  -1.917606  3.136000
O    -1.494085  -2.426229  3.898030
H    -0.178448  -1.229034  3.120564
H    -2.439365  -0.439893  1.493524
C    -1.565988  -2.290370  0.707343
C    -2.868697  -2.890597  0.128102
C    -3.292613  -4.285729  0.642858
C    -2.556705  -5.416589  -0.074484
N    -3.116253  -6.781803  0.309341
H    -0.895885  -3.073640  1.092998
H    -1.014600  -1.785373  -0.097985
H    -2.777430  -2.932622  -0.966535
H    -3.706154  -2.200972  0.304409
H    -4.373048  -4.397705  0.461537
H    -3.143055  -4.363025  1.731076
H    -1.485736  -5.452585  0.160352
H    -2.669851  -5.346206  -1.163683
H    -2.629299  -7.542324  -0.188026
H    -4.117353  -6.856829  0.074431
H    -3.024393  -6.966582  1.318638
N    -3.653758  -1.916037  3.314966
C    -4.306590  -2.496894  4.490301
H    -4.229598  -1.376741  2.675946
H    -5.156158  -3.114998  4.178644
H    -4.670404  -1.705946  5.158035
H    -3.577493  -3.109720  5.027072
Sr    2.953152  1.613463  3.551299
