35
Energy: -105404.188263 eV PBE+vdW (tier 2 basis)
C    0.199828  0.515036  0.318360
C    -0.366185  0.721370  1.681959
O    0.227441  1.579355  2.467234
H    0.957433  -0.283357  0.358577
H    0.700301  1.430080  -0.014153
H    -0.549169  0.232167  -0.422655
N    -1.414659  0.079918  2.169955
C    -2.384243  -0.962506  1.709030
C    -2.388726  -2.187847  2.681424
O    -3.479513  -2.523826  3.131489
H    -1.625500  0.358345  3.130731
H    -3.356506  -0.502749  1.930323
C    -2.378923  -1.379108  0.228039
C    -3.336954  -2.547848  -0.098457
C    -4.840999  -2.306268  0.136564
C    -5.630306  -3.539729  -0.298034
N    -7.120242  -3.392228  -0.019478
H    -1.380594  -1.711610  -0.082834
H    -2.641186  -0.506437  -0.389150
H    -3.023804  -3.438785  0.466149
H    -3.171009  -2.789570  -1.158499
H    -5.176419  -1.425270  -0.434334
H    -5.026121  -2.115508  1.205001
H    -5.313185  -4.438293  0.245998
H    -5.542023  -3.736668  -1.373841
H    -7.640083  -4.231359  -0.317062
H    -7.525562  -2.588481  -0.520457
H    -7.305785  -3.256794  0.984999
N    -1.238007  -2.846074  2.964083
C    0.104266  -2.668904  2.426562
H    -1.380071  -3.623288  3.607165
H    0.669770  -3.589289  2.602598
H    0.648337  -1.847850  2.917921
H    0.092090  -2.505111  1.342223
Sr    1.423520  3.152766  3.421668
