35
Energy: -105404.489969 eV PBE+vdW (tier 2 basis)
C    0.170464  0.521703  0.584936
C    -0.035228  -0.024121  1.955727
O    0.987080  -0.249274  2.726626
H    1.186144  0.315807  0.235347
H    -0.552675  0.128869  -0.139948
H    0.024875  1.614313  0.603795
N    -1.252172  -0.259738  2.420929
C    -2.531246  -0.081110  1.693208
C    -2.859776  1.387941  1.286353
O    -3.162441  1.570207  0.109901
H    -1.310191  -0.603362  3.380653
H    -2.411933  -0.574498  0.720652
C    -3.673219  -0.768017  2.472060
C    -5.096712  -0.439975  1.981695
C    -5.454407  -0.910578  0.557437
C    -6.916436  -0.585125  0.257988
N    -7.320098  -1.005664  -1.149188
H    -3.621733  -0.469572  3.530458
H    -3.506873  -1.855832  2.444308
H    -5.268522  0.644961  2.056852
H    -5.788888  -0.904243  2.699294
H    -5.287764  -1.996635  0.471203
H    -4.808690  -0.407555  -0.179408
H    -7.116731  0.492072  0.316606
H    -7.606268  -1.102690  0.936397
H    -8.307840  -0.777875  -1.337439
H    -7.208547  -2.019889  -1.291422
H    -6.753717  -0.528444  -1.865417
N    -2.808147  2.388923  2.200137
C    -2.748525  2.320595  3.657555
H    -3.078299  3.286952  1.800926
H    -2.551547  3.327115  4.039626
H    -1.929429  1.678468  4.002662
H    -3.691641  1.971533  4.101378
Sr    2.988443  -0.533296  3.587618
