35
Energy: -105404.144133 eV PBE+vdW (tier 2 basis)
C    0.220946  -0.965618  0.212868
C    0.041315  -0.384466  1.582578
O    0.971925  -0.205673  2.382712
H    0.666822  -1.964902  0.313283
H    0.938614  -0.355771  -0.351405
H    -0.707942  -1.046105  -0.361864
N    -1.235476  -0.052550  1.963769
C    -1.461722  0.528728  3.289387
C    -2.904036  0.234764  3.701787
O    -3.793123  1.171341  3.826760
H    -1.982465  -0.100408  1.278079
H    -0.840018  -0.077525  3.971742
C    -0.959535  1.991263  3.434514
C    0.193378  2.126664  4.459553
C    1.280743  3.162076  4.121213
C    2.175055  2.886853  2.912026
N    2.954962  1.589109  3.024499
H    -1.786571  2.660585  3.713080
H    -0.641802  2.320857  2.437045
H    0.661037  1.140696  4.595836
H    -0.213942  2.388925  5.445597
H    1.917982  3.297670  5.008911
H    0.830924  4.150940  3.943941
H    2.908969  3.693482  2.801490
H    1.616999  2.812212  1.970366
H    3.385475  1.479776  3.952340
H    2.323632  0.771095  2.832152
H    3.718316  1.560917  2.335537
N    -3.254497  -1.014421  3.944540
C    -2.433520  -2.232615  3.889540
H    -4.234355  -1.161609  4.187272
H    -1.400893  -2.021509  4.183165
H    -2.447512  -2.656249  2.877636
H    -2.860168  -2.958735  4.588333
Sr    -5.378435  2.676732  4.143799
