35
Energy: -105404.399190 eV PBE+vdW (tier 2 basis)
C    -0.210385  -0.074320  0.175577
C    -0.184456  -0.120046  1.670995
O    0.862271  -0.372780  2.319856
H    0.473700  0.715676  -0.165742
H    -1.204089  0.101518  -0.249719
H    0.187673  -1.016814  -0.225181
N    -1.344525  0.128328  2.329314
C    -1.545391  0.035166  3.784332
C    -0.950916  1.252886  4.518932
O    -1.679884  1.949891  5.330266
H    -2.161140  0.354577  1.769042
H    -2.631813  0.096426  3.927487
C    -1.057017  -1.275490  4.470603
C    -1.629335  -2.597826  3.918720
C    -1.058513  -3.215120  2.625819
C    0.279970  -3.950525  2.672957
N    1.510756  -3.060213  2.861361
H    -1.381962  -1.190983  5.519283
H    0.038490  -1.281487  4.504486
H    -2.713027  -2.475156  3.770558
H    -1.541891  -3.343521  4.723807
H    -1.064209  -2.505719  1.787867
H    -1.768608  -3.998199  2.317816
H    0.437071  -4.473729  1.722863
H    0.313465  -4.699323  3.473790
H    2.330691  -3.473170  2.397040
H    1.757261  -2.965381  3.853169
H    1.367797  -2.089101  2.485911
N    0.313599  1.533890  4.311594
C    1.056281  2.643762  4.907129
H    0.796295  0.897334  3.646341
H    2.076855  2.628232  4.515243
H    1.102525  2.538742  5.999108
H    0.599528  3.605041  4.636966
Sr    -2.816036  3.272375  6.683758
