35
Energy: -105404.384096 eV PBE+vdW (tier 2 basis)
C    -0.415362  -0.493304  -0.194649
C    -0.231786  -0.557723  1.280258
O    0.970022  -0.729960  1.753069
H    0.152360  0.363467  -0.586935
H    -1.462488  -0.421733  -0.506182
H    0.010890  -1.401733  -0.644469
N    -1.226174  -0.451755  2.150960
C    -2.688052  -0.206943  1.945967
C    -3.322107  -1.304919  1.039813
O    -3.474304  -1.090875  -0.161874
H    -0.935198  -0.517771  3.126147
H    -3.098614  -0.304613  2.959254
C    -2.949197  1.220369  1.424800
C    -4.417041  1.601123  1.139106
C    -5.382922  1.539844  2.335034
C    -6.658181  2.364764  2.170376
N    -7.557466  1.875436  1.037368
H    -2.397989  1.364325  0.486897
H    -2.524568  1.923848  2.157335
H    -4.775271  0.974488  0.308618
H    -4.382832  2.635301  0.761417
H    -4.901615  1.956078  3.234341
H    -5.646809  0.500170  2.590409
H    -6.436995  3.414673  1.939877
H    -7.277616  2.333263  3.074442
H    -8.405789  2.457084  0.966114
H    -7.866550  0.904412  1.186996
H    -7.084405  1.914215  0.123616
N    -3.695236  -2.457562  1.641799
C    -3.571208  -2.843808  3.045098
H    -4.097798  -3.138437  1.000148
H    -3.982670  -3.850961  3.159880
H    -4.141025  -2.180805  3.711009
H    -2.523322  -2.880433  3.374852
Sr    3.133082  -1.025763  1.982080
