35
Energy: -105404.648946 eV PBE+vdW (tier 2 basis)
C    -0.576171  0.473260  -0.093268
C    -0.383044  0.492162  1.392556
O    0.736691  0.650235  1.911808
H    -0.303431  1.457637  -0.498142
H    -1.594763  0.225233  -0.410521
H    0.129296  -0.245013  -0.530653
N    -1.502800  0.344670  2.172358
C    -1.508006  0.150865  3.628999
C    -1.058503  1.422717  4.380367
O    -1.825754  1.961896  5.282772
H    -2.395662  0.262041  1.697988
H    -2.559977  -0.002101  3.902134
C    -0.680964  -1.077103  4.111089
C    -1.023759  -2.403951  3.409461
C    -0.040872  -3.514381  3.830649
C    -0.042902  -4.791523  2.994037
N    -1.232345  -5.709829  3.268975
H    -0.834293  -1.172537  5.197334
H    0.386597  -0.867733  3.961835
H    -0.956514  -2.264255  2.319849
H    -2.067277  -2.685669  3.629414
H    -0.156690  -3.763804  4.898250
H    0.985897  -3.127433  3.738746
H    0.843988  -5.399033  3.209797
H    -0.063037  -4.587386  1.916043
H    -1.173857  -6.566229  2.697333
H    -2.132842  -5.261662  3.053442
H    -1.257838  -6.005986  4.255504
N    0.112424  1.920216  4.087185
C    0.693608  3.114104  4.684999
H    0.593333  1.421518  3.264021
H    1.688127  3.270682  4.257245
H    0.806334  2.992734  5.771982
H    0.087008  4.004434  4.459421
Sr    -2.786861  3.319415  6.699573
