35
Energy: -105404.175213 eV PBE+vdW (tier 2 basis)
C    0.359758  -0.060624  0.897052
C    -0.738976  -0.791093  1.585429
O    -0.766483  -2.093640  1.477717
H    1.325940  -0.458952  1.236014
H    0.344604  1.015177  1.066241
H    0.289712  -0.249334  -0.183856
N    -1.693849  -0.221626  2.297685
C    -2.111602  1.157862  2.689433
C    -3.508998  1.516584  2.070779
O    -4.389110  1.833647  2.857302
H    -2.353618  -0.903925  2.677582
H    -2.373777  1.029935  3.748272
C    -1.100986  2.317600  2.621640
C    -1.660290  3.526943  3.403004
C    -0.714759  4.742243  3.429311
C    -1.360859  5.885328  4.211600
N    -0.469829  7.119423  4.271729
H    -0.893491  2.619388  1.585340
H    -0.150224  1.997491  3.075315
H    -1.880467  3.213823  4.435046
H    -2.625274  3.827878  2.970308
H    -0.495813  5.072165  2.400793
H    0.245378  4.466322  3.894605
H    -1.562764  5.609481  5.254137
H    -2.302453  6.216026  3.755746
H    -0.923109  7.879243  4.801395
H    -0.259624  7.486264  3.332151
H    0.429644  6.920559  4.733146
N    -3.688381  1.500169  0.723692
C    -2.754761  1.214374  -0.354545
H    -4.638127  1.755618  0.458832
H    -3.179024  1.597648  -1.287819
H    -2.585306  0.134587  -0.490599
H    -1.791157  1.718515  -0.212098
Sr    -0.526046  -4.249875  1.184138
