35
Energy: -105403.956091 eV PBE+vdW (tier 2 basis)
C    0.419426  -0.344986  -0.160221
C    0.339165  0.079999  1.279745
O    1.302462  0.567204  1.903173
H    1.057307  0.353788  -0.713014
H    -0.556697  -0.415393  -0.653771
H    0.884878  -1.341007  -0.222096
N    -0.858829  -0.103427  1.899671
C    -1.135920  0.179074  3.306698
C    -0.876200  1.642146  3.710873
O    -0.566616  1.904768  4.945370
H    -1.614614  -0.511905  1.357596
H    -2.235326  0.094923  3.392788
C    -0.569307  -0.867437  4.301455
C    0.963532  -1.030502  4.420742
C    1.560922  -2.150854  3.538810
C    3.077266  -2.062114  3.353245
N    3.463009  -1.147056  2.195089
H    -1.027742  -1.828191  4.025409
H    -1.001670  -0.637310  5.286717
H    1.201407  -1.285419  5.464308
H    1.455828  -0.072139  4.208743
H    1.070586  -2.199671  2.554914
H    1.348555  -3.123101  4.004690
H    3.574001  -1.666653  4.247456
H    3.518871  -3.040668  3.135715
H    3.484010  -1.675193  1.313471
H    4.404273  -0.752593  2.318806
H    2.767263  -0.361267  2.061899
N    -1.063898  2.661445  2.895831
C    -1.577409  2.735057  1.518587
H    -0.841636  3.566643  3.309286
H    -1.990478  3.739391  1.380987
H    -2.375109  2.006743  1.356267
H    -0.768485  2.588762  0.793059
Sr    -0.496376  2.437921  7.080851
