35
Energy: -105405.660229 eV PBE+vdW (tier 2 basis)
C    0.007196  1.884031  0.421767
C    -0.427709  0.495567  0.758566
O    0.309750  -0.497233  0.481391
H    0.115659  1.960074  -0.670565
H    1.000910  2.072356  0.849751
H    -0.684728  2.660771  0.763475
N    -1.622336  0.337985  1.356513
C    -2.368854  -0.904397  1.669747
C    -1.597237  -1.775585  2.685779
O    -0.637354  -2.521462  2.314157
H    -2.132503  1.199581  1.533905
H    -3.267628  -0.534770  2.177239
C    -2.833998  -1.680305  0.409243
C    -4.240338  -2.304589  0.546448
C    -4.723376  -2.908167  -0.789442
C    -6.226482  -3.138172  -0.950392
N    -6.763070  -4.366716  -0.218640
H    -2.095631  -2.448455  0.139551
H    -2.853129  -0.960317  -0.421005
H    -4.942602  -1.513253  0.855474
H    -4.243217  -3.062273  1.347359
H    -4.171914  -3.831333  -1.030587
H    -4.473105  -2.207588  -1.601429
H    -6.477197  -3.303418  -2.004995
H    -6.821011  -2.289307  -0.589611
H    -6.640363  -4.308028  0.801056
H    -6.303484  -5.230828  -0.541197
H    -7.773487  -4.480657  -0.394752
N    -1.956240  -1.742236  3.961598
C    -2.989613  -0.926905  4.618434
H    -1.410523  -2.355466  4.568712
H    -3.992708  -1.187994  4.260365
H    -2.800373  0.143648  4.477137
H    -2.948701  -1.137892  5.690763
Sr    1.314393  -2.440669  1.076187
