35
Energy: -105404.838790 eV PBE+vdW (tier 2 basis)
C    0.313781  0.530545  0.156497
C    -0.010662  0.425489  1.608133
O    0.968368  0.451614  2.469307
H    1.013128  -0.271250  -0.118092
H    0.821929  1.486066  -0.036200
H    -0.562628  0.464829  -0.492880
N    -1.238624  0.312656  2.056491
C    -2.533402  0.333966  1.351420
C    -3.485271  0.887158  2.449820
O    -3.246848  0.578401  3.621218
H    -1.422158  0.254812  3.076737
H    -2.474226  1.010474  0.488200
C    -2.922973  -1.098561  0.907542
C    -4.280103  -1.247284  0.179413
C    -5.426605  -1.786206  1.059276
C    -6.669040  -2.063205  0.214238
N    -7.776699  -2.729186  1.021659
H    -2.892151  -1.746620  1.795979
H    -2.125853  -1.455304  0.240679
H    -4.131588  -1.943225  -0.658164
H    -4.580325  -0.294532  -0.283782
H    -5.665450  -1.075026  1.865542
H    -5.094746  -2.720816  1.539915
H    -6.453966  -2.748169  -0.615797
H    -7.107285  -1.147838  -0.202637
H    -8.606495  -2.911492  0.437168
H    -8.082258  -2.144746  1.812910
H    -7.472225  -3.634429  1.408828
N    -4.521300  1.637746  2.038224
C    -5.473642  2.249759  2.968320
H    -4.541497  1.946783  1.071434
H    -6.469519  2.268860  2.513306
H    -5.176723  3.277834  3.212870
H    -5.494839  1.661392  3.889993
Sr    2.748377  0.616513  3.715608
