35
Energy: -105405.257151 eV PBE+vdW (tier 2 basis)
C    -1.011883  0.377744  0.551800
C    -0.637860  -0.245375  1.858458
O    0.575134  -0.327865  2.208835
H    -1.846801  1.078020  0.667231
H    -1.315743  -0.391065  -0.176340
H    -0.146099  0.908024  0.143811
N    -1.592770  -0.734869  2.695924
C    -2.686902  -1.621252  2.264206
C    -2.044868  -2.807345  1.469097
O    -0.784146  -2.978734  1.500714
H    -1.210890  -0.975884  3.610034
H    -3.044159  -2.080204  3.200805
C    -3.920649  -0.929228  1.633144
C    -4.491712  0.164887  2.559040
C    -5.945295  0.613213  2.286375
C    -6.128130  1.528597  1.076153
N    -7.552397  2.068851  1.015014
H    -4.694077  -1.701407  1.494012
H    -3.686518  -0.542399  0.632169
H    -3.826042  1.041027  2.564832
H    -4.481865  -0.214449  3.591585
H    -6.282950  1.151309  3.186076
H    -6.597204  -0.270080  2.191774
H    -5.958249  1.022941  0.117668
H    -5.477509  2.410982  1.126224
H    -7.687887  2.692766  0.205112
H    -7.787778  2.611815  1.859921
H    -8.248742  1.312500  0.937738
N    -2.833700  -3.647999  0.827071
C    -2.374557  -4.860210  0.133947
H    -3.834583  -3.474192  0.842820
H    -1.902215  -5.548654  0.844745
H    -1.661634  -4.599043  -0.656380
H    -3.242532  -5.349707  -0.314874
Sr    1.451827  -2.476143  1.998503
