35
Energy: -105404.775591 eV PBE+vdW (tier 2 basis)
C    -0.549389  -2.189933  -0.192392
C    0.129094  -1.236192  0.731855
O    1.416825  -1.350590  0.911911
H    -1.639277  -2.109303  -0.174372
H    -0.266498  -3.217543  0.070980
H    -0.203267  -2.011171  -1.221128
N    -0.508224  -0.282999  1.366736
C    -1.891768  0.208972  1.243660
C    -1.690412  1.730944  1.539946
O    -0.776912  2.015993  2.328267
H    0.004394  0.393529  1.974419
H    -2.260888  0.021162  0.228665
C    -2.815131  -0.453118  2.301969
C    -4.281936  -0.000159  2.207777
C    -5.267713  -0.721184  3.153645
C    -5.195173  -0.248687  4.604493
N    -6.333519  -0.840435  5.428195
H    -2.390558  -0.235274  3.293935
H    -2.757410  -1.543960  2.161269
H    -4.645830  -0.174191  1.185115
H    -4.356648  1.084431  2.376424
H    -5.114521  -1.811060  3.102459
H    -6.282809  -0.529826  2.771396
H    -5.302345  0.840289  4.687435
H    -4.270199  -0.545672  5.113175
H    -7.253049  -0.563356  5.052805
H    -6.296552  -0.525164  6.408986
H    -6.307052  -1.870581  5.434941
N    -2.485830  2.649600  0.972995
C    -3.511455  2.517366  -0.058775
H    -2.263568  3.599871  1.271041
H    -4.509481  2.728619  0.346401
H    -3.512838  1.512186  -0.489293
H    -3.308253  3.230412  -0.866432
Sr    3.585370  -1.535160  0.954911
