35
Energy: -105404.102661 eV PBE+vdW (tier 2 basis)
C    -1.432870  -0.712083  -1.511919
C    -0.424706  -0.671588  -0.415678
O    0.743225  -1.199680  -0.648845
H    -2.437047  -0.422436  -1.205833
H    -1.465877  -1.729348  -1.923981
H    -1.112678  -0.040926  -2.323215
N    -0.624255  -0.141008  0.781970
C    -1.701588  0.658902  1.453879
C    -2.324935  -0.098512  2.662808
O    -2.356314  0.509012  3.743654
H    0.191577  -0.238885  1.389564
H    -1.123299  1.451887  1.947842
C    -2.744283  1.355027  0.551489
C    -3.350010  2.654191  1.130973
C    -4.305506  2.532199  2.346688
C    -3.759143  3.205890  3.617271
N    -4.067470  2.390965  4.855296
H    -3.555467  0.666044  0.275792
H    -2.240712  1.650164  -0.379604
H    -3.896643  3.119526  0.301323
H    -2.532619  3.354625  1.361005
H    -4.522999  1.474027  2.550999
H    -5.272833  2.982653  2.093495
H    -4.176813  4.207245  3.770004
H    -2.667116  3.287151  3.598989
H    -3.731844  2.856429  5.709546
H    -5.075771  2.225623  4.972535
H    -3.570857  1.477962  4.756342
N    -2.833880  -1.337687  2.530506
C    -2.995782  -2.179578  1.349537
H    -3.184077  -1.716497  3.409402
H    -3.718841  -2.965172  1.589033
H    -2.055961  -2.669253  1.058804
H    -3.401992  -1.614821  0.503568
Sr    2.590350  -2.053450  -1.504535
