35
Energy: -105404.370117 eV PBE+vdW (tier 2 basis)
C    0.905692  -0.158476  0.306935
C    0.554885  0.027569  1.755679
O    1.415013  0.110041  2.647071
H    1.703536  0.545085  0.039344
H    0.062895  -0.030854  -0.381382
H    1.312720  -1.170618  0.166627
N    -0.787555  0.104874  2.038865
C    -1.473789  0.115024  3.334816
C    -2.171519  1.459145  3.618785
O    -3.421500  1.432467  3.981868
H    -1.397758  -0.005664  1.234290
H    -2.309425  -0.595267  3.234144
C    -0.652910  -0.331475  4.575099
C    -0.137605  -1.778102  4.474650
C    0.938763  -2.150966  5.512270
C    2.265598  -1.391962  5.488147
N    3.011520  -1.521790  4.173484
H    -1.322066  -0.245094  5.445690
H    0.168688  0.372085  4.742139
H    0.236534  -1.976146  3.461254
H    -0.977971  -2.474057  4.611689
H    1.141051  -3.229682  5.424383
H    0.542241  -2.019624  6.530668
H    2.928224  -1.778934  6.271115
H    2.148515  -0.314256  5.653502
H    3.101422  -2.504559  3.883661
H    3.965108  -1.144575  4.256209
H    2.515742  -0.977125  3.421179
N    -1.566522  2.622445  3.522286
C    -0.177504  2.945501  3.168642
H    -2.156973  3.432743  3.714070
H    0.138947  3.788282  3.792625
H    -0.125215  3.246990  2.114500
H    0.485945  2.096032  3.343489
Sr    -5.557010  1.454493  4.542825
