35
Energy: -105404.999356 eV PBE+vdW (tier 2 basis)
C    1.135343  -1.047164  1.027631
C    0.579989  -0.515408  2.304172
O    1.339641  -0.388995  3.311784
H    2.036247  -0.452522  0.809536
H    0.452841  -0.962136  0.181412
H    1.479626  -2.083568  1.148215
N    -0.703719  -0.075178  2.412726
C    -1.942521  -0.812540  2.112117
C    -2.062483  -1.947276  3.173134
O    -1.057302  -2.253946  3.895483
H    -0.813482  0.507164  3.244654
H    -2.734191  -0.090801  2.365298
C    -2.215129  -1.189894  0.622950
C    -1.889625  -2.599223  0.094044
C    -2.250152  -2.692600  -1.406497
C    -2.024451  -4.088917  -1.985812
N    -2.400683  -4.151641  -3.461248
H    -1.704981  -0.423290  0.022242
H    -3.284486  -1.006850  0.451482
H    -2.461620  -3.356343  0.652776
H    -0.828843  -2.851061  0.233915
H    -1.651765  -1.958247  -1.969788
H    -3.306044  -2.406158  -1.540600
H    -2.636827  -4.851137  -1.487935
H    -0.973937  -4.400439  -1.930676
H    -2.243138  -5.095281  -3.847418
H    -1.845137  -3.494784  -4.029623
H    -3.394300  -3.923287  -3.615668
N    -3.227764  -2.546233  3.365675
C    -4.526261  -2.263995  2.743150
H    -3.220546  -3.269780  4.085611
H    -4.642781  -2.809562  1.798433
H    -4.657295  -1.189881  2.572412
H    -5.310409  -2.594380  3.431134
Sr    0.878281  -1.747714  5.132004
