35
Energy: -105404.741592 eV PBE+vdW (tier 2 basis)
C    -0.315072  -1.067267  1.443424
C    -0.089423  0.383499  1.181865
O    1.136922  0.819095  1.100774
H    -1.368299  -1.330851  1.566887
H    0.227454  -1.360717  2.352473
H    0.098145  -1.656844  0.612341
N    -1.072418  1.239326  1.024041
C    -2.533957  1.034377  0.993947
C    -3.002682  2.187060  0.064764
O    -2.419994  3.270188  0.183597
H    -0.868242  2.238771  0.845088
H    -2.755825  0.045582  0.577042
C    -3.109591  1.182990  2.427072
C    -4.648901  1.159212  2.574168
C    -5.308975  2.550997  2.658965
C    -6.803002  2.420170  2.949813
N    -7.463364  3.774629  3.176279
H    -2.707556  2.114671  2.851869
H    -2.686669  0.363971  3.025364
H    -4.879952  0.611729  3.498862
H    -5.111075  0.573025  1.766407
H    -5.152447  3.116236  1.727222
H    -4.826214  3.122758  3.468137
H    -6.993817  1.839958  3.861593
H    -7.352088  1.950629  2.124122
H    -8.471440  3.672014  3.367619
H    -7.368400  4.391133  2.356468
H    -7.049466  4.268517  3.980480
N    -4.026507  1.976306  -0.785664
C    -4.614884  0.703977  -1.214000
H    -4.221498  2.786140  -1.373614
H    -5.559473  0.915842  -1.724377
H    -4.840476  0.054413  -0.361764
H    -3.962073  0.167610  -1.916440
Sr    3.262797  1.268269  0.916533
