35
Energy: -105404.219135 eV PBE+vdW (tier 2 basis)
C    0.258303  0.137916  0.198422
C    -0.000562  0.047661  1.662292
O    1.031434  0.004331  2.456308
H    -0.630807  0.033286  -0.421470
H    0.979198  -0.642805  -0.079931
H    0.724549  1.108500  -0.027611
N    -1.200662  -0.000950  2.221596
C    -2.620336  0.160298  1.770792
C    -3.501905  -1.086707  2.063214
O    -4.608170  -0.869025  2.582855
H    -1.149849  -0.082685  3.239196
H    -3.009925  0.889011  2.495716
C    -2.886824  0.759216  0.374333
C    -4.353885  1.231402  0.216566
C    -5.323154  0.161133  -0.331417
C    -6.786499  0.342099  0.057424
N    -7.009172  0.148022  1.560179
H    -2.650403  0.048831  -0.430055
H    -2.228189  1.629981  0.250513
H    -4.358774  2.091044  -0.465747
H    -4.697198  1.628228  1.184447
H    -5.011533  -0.854219  -0.045921
H    -5.293151  0.172125  -1.430286
H    -7.410619  -0.401799  -0.449185
H    -7.172662  1.335553  -0.199061
H    -6.196778  -0.351026  2.001578
H    -7.866810  -0.387613  1.742728
H    -7.113310  1.044372  2.049762
N    -3.105099  -2.327148  1.729478
C    -1.922367  -2.777664  1.001711
H    -3.775362  -3.045422  2.002471
H    -2.134489  -3.768165  0.587217
H    -1.044834  -2.869720  1.656619
H    -1.694886  -2.117002  0.158193
Sr    3.017671  0.114005  3.414748
