35
Energy: -105403.880132 eV PBE+vdW (tier 2 basis)
C    -0.182319  0.175882  -0.039462
C    -0.059781  0.207200  1.456674
O    1.031574  0.317654  2.022645
H    -1.174208  0.457661  -0.408699
H    0.080343  -0.822164  -0.421054
H    0.561716  0.869246  -0.449840
N    -1.211198  0.152032  2.236109
C    -2.317673  -0.755893  1.953680
C    -3.706847  -0.104678  2.004225
O    -4.580467  -0.458027  1.107725
H    -0.961551  0.230277  3.220825
H    -2.210285  -1.079688  0.910394
C    -2.253159  -2.027827  2.854640
C    -0.853117  -2.693848  2.822282
C    0.031634  -2.406931  4.056628
C    1.521707  -2.739436  3.858591
N    2.361081  -1.495176  3.623732
H    -3.019458  -2.735679  2.509711
H    -2.528831  -1.768062  3.888317
H    -0.327499  -2.402313  1.899735
H    -0.986558  -3.780970  2.745249
H    -0.341925  -2.997988  4.903461
H    -0.057950  -1.358507  4.383290
H    1.681666  -3.394167  2.993527
H    1.948748  -3.240291  4.733885
H    3.282959  -1.733891  3.233849
H    2.536456  -0.998377  4.507168
H    1.888964  -0.806282  2.975563
N    -4.064552  0.771462  2.919709
C    -3.310781  1.316126  4.060473
H    -5.011979  1.135817  2.820097
H    -4.032216  1.769996  4.746266
H    -2.606376  2.086347  3.725107
H    -2.789154  0.519580  4.600394
Sr    -6.158170  -0.964055  -0.357643
