35
Energy: -105403.720475 eV PBE+vdW (tier 2 basis)
C    0.041309  -0.386080  0.100063
C    -0.028717  0.339587  1.414366
O    0.923669  0.997446  1.851136
H    -0.921299  -0.763883  -0.262306
H    0.730710  -1.236197  0.207824
H    0.479051  0.281641  -0.651719
N    -1.243573  0.217849  2.082015
C    -1.595603  0.614917  3.450360
C    -2.665540  1.724580  3.480388
O    -3.724648  1.530687  4.212393
H    -1.918322  -0.380887  1.615728
H    -2.095987  -0.245282  3.922318
C    -0.324622  0.935860  4.264609
C    -0.335268  1.215382  5.760358
C    1.129165  1.222158  6.265259
C    2.141236  2.091820  5.503604
N    2.738268  1.450991  4.246243
H    0.155365  1.783392  3.772019
H    0.311926  0.057103  4.086140
H    -0.883416  0.448789  6.327850
H    -0.805435  2.186552  5.980875
H    1.506368  0.187706  6.318945
H    1.146748  1.583444  7.302692
H    3.003273  2.302523  6.147214
H    1.723530  3.055809  5.185733
H    3.494373  2.043863  3.874004
H    2.060504  1.300056  3.464475
H    3.164595  0.540233  4.467368
N    -2.568766  2.843139  2.794956
C    -1.518832  3.317601  1.882687
H    -3.369304  3.470985  2.881847
H    -1.843510  3.169990  0.844407
H    -0.575219  2.793671  2.045148
H    -1.378556  4.389868  2.058647
Sr    -5.613633  1.156615  5.295299
