35
Energy: -105403.804505 eV PBE+vdW (tier 2 basis)
C    0.362455  -0.539817  0.875521
C    -0.112929  0.311649  2.001920
O    0.785668  0.818693  2.801482
H    -0.428752  -1.109503  0.388026
H    1.120407  -1.238575  1.252053
H    0.849301  0.096103  0.120494
N    -1.379993  0.598922  2.250652
C    -2.714757  0.291312  1.645973
C    -3.574855  -0.737460  2.455486
O    -4.773510  -0.486049  2.523218
H    -1.486868  1.184095  3.081066
H    -3.257222  1.225963  1.838472
C    -2.788420  0.013002  0.120605
C    -3.833076  0.869078  -0.642104
C    -5.310058  0.821125  -0.207491
C    -6.093015  -0.458575  -0.493217
N    -6.677544  -0.479360  -1.905810
H    -2.953991  -1.060786  -0.049134
H    -1.826318  0.250286  -0.348357
H    -3.729037  0.609644  -1.708551
H    -3.514789  1.920491  -0.580651
H    -5.834191  1.677468  -0.661654
H    -5.392079  0.978181  0.875704
H    -6.952928  -0.553520  0.179361
H    -5.491939  -1.370779  -0.399266
H    -7.201972  -1.348408  -2.084516
H    -5.952393  -0.402492  -2.632027
H    -7.332551  0.304304  -2.044186
N    -3.035287  -1.840749  3.029081
C    -1.741178  -2.481221  2.837272
H    -3.739722  -2.383797  3.526367
H    -1.810102  -3.503871  3.220553
H    -0.936231  -1.979476  3.393828
H    -1.471555  -2.555707  1.776313
Sr    2.547540  1.563859  3.883160
