35
Energy: -105405.648846 eV PBE+vdW (tier 2 basis)
C    -1.050020  -1.112941  -0.119780
C    -1.481756  -0.267003  1.037366
O    -1.867925  0.923627  0.841456
H    -0.248246  -0.590940  -0.660389
H    -1.886867  -1.216374  -0.824767
H    -0.702324  -2.112188  0.162089
N    -1.446512  -0.832558  2.257057
C    -1.704186  -0.334309  3.630272
C    -3.037667  0.415652  3.843606
O    -3.374136  1.453933  3.197100
H    -1.135018  -1.801100  2.245041
H    -1.816602  -1.268142  4.197654
C    -0.478236  0.360715  4.294282
C    0.077274  1.652439  3.680031
C    1.205082  2.308986  4.515700
C    2.520909  1.528121  4.537510
N    3.597105  2.283416  5.307640
H    0.306457  -0.410525  4.325422
H    -0.761650  0.541855  5.343460
H    -0.725319  2.400488  3.605348
H    0.436061  1.470928  2.655516
H    0.848475  2.463967  5.546787
H    1.393353  3.309050  4.095402
H    2.926273  1.372086  3.529732
H    2.436004  0.553062  5.031999
H    3.791195  3.206608  4.891197
H    3.327211  2.443360  6.289920
H    4.487458  1.762329  5.318602
N    -3.803887  -0.059166  4.816015
C    -5.063959  0.540871  5.265577
H    -3.519861  -0.919227  5.279202
H    -5.212600  0.289824  6.320238
H    -5.905819  0.141125  4.684986
H    -5.018226  1.627350  5.151001
Sr    -3.467072  2.500885  1.161051
