35
Energy: -105404.568315 eV PBE+vdW (tier 2 basis)
C    0.223968  -0.225340  0.203378
C    -0.139026  -0.694711  1.567757
O    0.798594  -1.132929  2.354380
H    0.849633  0.675521  0.290946
H    -0.643685  -0.006109  -0.424470
H    0.829987  -0.996339  -0.291700
N    -1.381967  -0.689583  2.028834
C    -2.658890  -0.158209  1.450038
C    -3.068354  -0.907064  0.146528
O    -2.802946  -0.418811  -0.967422
H    -1.470505  -1.034097  2.984798
H    -3.398953  -0.405303  2.224666
C    -2.633265  1.370973  1.277732
C    -4.018690  2.048699  1.262089
C    -4.933265  1.839460  0.040379
C    -4.393135  2.434754  -1.274294
N    -4.359857  1.400044  -2.381047
H    -2.059059  1.621143  0.374279
H    -2.077881  1.788533  2.129312
H    -3.846831  3.128065  1.386007
H    -4.578828  1.747085  2.160063
H    -5.899966  2.306564  0.267431
H    -5.162199  0.771002  -0.095706
H    -3.361991  2.794013  -1.177681
H    -5.004346  3.269601  -1.633483
H    -5.305451  1.070270  -2.615248
H    -3.786002  0.582911  -2.057982
H    -3.950481  1.780131  -3.244968
N    -3.713434  -2.066750  0.320196
C    -4.176844  -2.922527  -0.774107
H    -3.949752  -2.355528  1.265281
H    -4.048450  -3.972098  -0.489838
H    -3.586288  -2.711398  -1.669743
H    -5.239982  -2.744647  -0.983622
Sr    2.662062  -1.737232  3.367836
