35
Energy: -105405.836508 eV PBE+vdW (tier 2 basis)
C    0.321792  1.755323  0.295266
C    0.105974  1.180595  1.654497
O    1.038970  1.154376  2.511393
H    -0.556819  1.688158  -0.354662
H    1.167755  1.248459  -0.188588
H    0.608280  2.811975  0.401998
N    -1.111445  0.692699  1.963530
C    -1.505277  0.199029  3.293163
C    -0.802617  -1.153297  3.594078
O    0.282242  -1.100851  4.259532
H    -1.820197  0.718183  1.234484
H    -1.044059  0.877211  4.026884
C    -3.036926  0.264859  3.491074
C    -3.531540  1.708258  3.717301
C    -5.064065  1.911519  3.720941
C    -5.766569  1.440503  4.994992
N    -7.232853  1.856786  4.997494
H    -3.288821  -0.373851  4.350443
H    -3.550175  -0.173168  2.622274
H    -3.137758  2.354216  2.919071
H    -3.107070  2.102409  4.654062
H    -5.510376  1.420110  2.841536
H    -5.244611  2.990885  3.598481
H    -5.328070  1.889605  5.895152
H    -5.765586  0.350315  5.114784
H    -7.336614  2.881638  4.945276
H    -7.712155  1.546542  5.856446
H    -7.749484  1.458522  4.199193
N    -1.255931  -2.326015  3.178329
C    -2.411289  -2.666769  2.341554
H    -0.685708  -3.114931  3.487950
H    -2.548584  -1.935112  1.539799
H    -3.325094  -2.752728  2.941895
H    -2.212491  -3.637986  1.877966
Sr    2.250172  0.111537  4.155412
