35
Energy: -105405.654953 eV PBE+vdW (tier 2 basis)
C    0.631827  1.529203  3.632543
C    -0.111433  0.351870  3.091516
O    0.487253  -0.521834  2.397007
H    1.484964  1.179371  4.229662
H    0.018626  2.199860  4.243214
H    1.050747  2.096815  2.788697
N    -1.425990  0.258105  3.369070
C    -2.432397  -0.712935  2.880130
C    -2.078540  -2.157332  3.306379
O    -1.207909  -2.830521  2.672120
H    -1.796650  1.009677  3.944674
H    -3.347569  -0.432921  3.416160
C    -2.709774  -0.593031  1.364387
C    -3.975977  -1.349879  0.897987
C    -5.311030  -0.564477  0.904474
C    -5.504836  0.281220  -0.356492
N    -6.910241  0.865213  -0.438364
H    -1.837963  -0.962904  0.809633
H    -2.777232  0.479346  1.131215
H    -4.117041  -2.251465  1.512416
H    -3.800983  -1.734958  -0.116356
H    -5.393048  0.069965  1.802020
H    -6.129636  -1.298052  0.965698
H    -5.382993  -0.320883  -1.265715
H    -4.819436  1.135689  -0.415368
H    -7.628663  0.125283  -0.453262
H    -7.033516  1.423210  -1.297387
H    -7.124774  1.482852  0.358242
N    -2.711403  -2.697771  4.338222
C    -3.719644  -2.106039  5.229437
H    -2.440353  -3.661527  4.539494
H    -4.657715  -1.908956  4.695867
H    -3.346499  -1.189292  5.700396
H    -3.929324  -2.829645  6.022338
Sr    0.947411  -2.681863  1.858829
