35
Energy: -105405.883874 eV PBE+vdW (tier 2 basis)
C    1.716159  1.946579  0.963471
C    1.037543  1.345626  2.152327
O    1.527161  0.324300  2.721480
H    1.795389  1.179981  0.179203
H    2.744291  2.226352  1.231637
H    1.204496  2.824457  0.555555
N    -0.095078  1.928544  2.585568
C    -1.050299  1.514310  3.640148
C    -0.421065  1.488715  5.051006
O    0.455752  0.633063  5.380487
H    -0.371701  2.756384  2.064280
H    -1.789854  2.327239  3.644055
C    -1.823956  0.209888  3.317619
C    -2.654639  0.335035  2.025878
C    -3.553728  -0.870615  1.664244
C    -4.886823  -0.900822  2.413954
N    -5.814657  -1.970240  1.849435
H    -2.468372  0.002889  4.186067
H    -1.122461  -0.632983  3.237363
H    -1.971090  0.484182  1.178850
H    -3.275954  1.244477  2.070277
H    -3.008412  -1.814955  1.820267
H    -3.761097  -0.806224  0.584765
H    -5.431974  0.046275  2.312923
H    -4.781552  -1.128271  3.481768
H    -6.717742  -1.987455  2.347569
H    -5.408034  -2.914571  1.921978
H    -6.021554  -1.804076  0.852613
N    -0.875454  2.380412  5.918419
C    -0.449702  2.491133  7.317520
H    -1.553072  3.065420  5.592276
H    0.386029  3.197707  7.406283
H    -0.144430  1.508673  7.687150
H    -1.291075  2.861576  7.911375
Sr    2.273953  -0.577006  4.674186
