35
Energy: -105405.788183 eV PBE+vdW (tier 2 basis)
C    0.662629  -2.559776  -1.102696
C    0.627968  -2.174841  0.340186
O    1.696557  -1.915136  0.969455
H    -0.326228  -2.749982  -1.532806
H    1.284089  -3.457006  -1.229063
H    1.154673  -1.756637  -1.669804
N    -0.570151  -2.105837  0.950813
C    -0.839024  -1.670734  2.334428
C    -0.377640  -2.771915  3.332754
O    0.859368  -2.867041  3.603623
H    -1.375970  -2.386901  0.396530
H    -0.179123  -0.814589  2.543138
C    -2.317663  -1.256439  2.479426
C    -2.795084  0.022665  1.750893
C    -2.353527  1.355351  2.399539
C    -3.390855  2.479854  2.388676
N    -3.693152  3.049998  1.004925
H    -2.530839  -1.137212  3.552090
H    -2.952853  -2.088617  2.130511
H    -3.894624  -0.035772  1.761192
H    -2.504384  -0.009360  0.689429
H    -1.403365  1.718385  1.978043
H    -2.155065  1.196597  3.471218
H    -3.048189  3.332952  2.986403
H    -4.356835  2.147761  2.790185
H    -4.082324  2.344829  0.363640
H    -2.853249  3.449718  0.561867
H    -4.388226  3.810042  1.071606
N    -1.269846  -3.584434  3.868780
C    -0.970560  -4.666643  4.814312
H    -2.245352  -3.465165  3.607616
H    -0.070289  -4.418795  5.382278
H    -0.821074  -5.611434  4.275528
H    -1.817393  -4.777035  5.498597
Sr    2.976602  -2.505852  2.778692
