35
Energy: -105404.014149 eV PBE+vdW (tier 2 basis)
C    0.562524  -0.853073  1.540360
C    0.152403  -0.758240  2.984209
O    0.939400  -0.412286  3.861765
H    -0.255384  -1.020841  0.832655
H    1.267189  -1.695619  1.458428
H    1.126867  0.039867  1.246897
N    -1.132908  -1.176709  3.363715
C    -2.388102  -0.798578  2.697151
C    -2.853211  -1.886407  1.708981
O    -3.914513  -1.726050  0.989953
H    -1.202772  -1.201795  4.380809
H    -3.160185  -0.845958  3.486619
C    -2.409443  0.648605  2.140037
C    -2.543948  1.762058  3.205823
C    -1.421296  1.970181  4.244818
C    -0.129217  2.575565  3.683761
N    1.040842  2.282267  4.599837
H    -3.278866  0.743704  1.474136
H    -1.532630  0.807436  1.497380
H    -3.475249  1.594923  3.767880
H    -2.702002  2.706559  2.663781
H    -1.190292  1.028108  4.761113
H    -1.814450  2.642206  5.021041
H    0.153183  2.159780  2.709116
H    -0.201844  3.664063  3.575589
H    0.855920  2.576296  5.569017
H    1.897662  2.764167  4.293945
H    1.221942  1.251919  4.585590
N    -2.176312  -3.009892  1.685461
C    -2.486559  -4.199555  0.896064
H    -1.383827  -3.031782  2.335096
H    -1.687565  -4.932466  1.039171
H    -2.536982  -3.950346  -0.171738
H    -3.429546  -4.652466  1.231966
Sr    -5.771028  -1.799688  -0.207094
