35
Energy: -105404.598793 eV PBE+vdW (tier 2 basis)
C    -0.245140  0.603352  -0.752365
C    -0.407823  0.136749  0.659372
O    0.632716  -0.266775  1.321829
H    -1.187520  0.923482  -1.208449
H    0.168657  -0.210088  -1.365754
H    0.459494  1.446376  -0.787923
N    -1.613192  0.146041  1.192142
C    -2.058881  -0.307688  2.515533
C    -3.511920  -0.790974  2.288486
O    -4.215920  -0.151238  1.476350
H    -2.405090  0.423492  0.599814
H    -1.402932  -1.131638  2.824517
C    -2.025628  0.812373  3.606327
C    -3.282177  1.683860  3.765941
C    -3.551063  2.752353  2.684070
C    -5.023480  3.151860  2.592245
N    -5.824850  2.145567  1.766474
H    -1.138432  1.438850  3.429405
H    -1.853113  0.301719  4.564017
H    -3.197857  2.196372  4.734701
H    -4.154553  1.021383  3.882426
H    -3.203981  2.438464  1.688207
H    -2.981991  3.662672  2.917699
H    -5.161275  4.127644  2.114409
H    -5.490805  3.195193  3.583353
H    -5.381221  1.193009  1.775218
H    -6.796980  2.072620  2.092587
H    -5.866216  2.434591  0.781035
N    -3.931137  -1.827012  3.010737
C    -5.290498  -2.374072  2.963657
H    -3.272700  -2.275028  3.641895
H    -5.236876  -3.467357  2.989194
H    -5.770599  -2.057925  2.033770
H    -5.877052  -2.027806  3.824355
Sr    2.751374  -0.808683  1.656898
