35
Energy: -105404.459290 eV PBE+vdW (tier 2 basis)
C    -1.304344  1.188977  0.119612
C    -1.415921  -0.160672  0.755643
O    -1.440822  -1.217958  0.012725
H    -1.317838  2.012623  0.841670
H    -2.134366  1.339325  -0.585506
H    -0.362932  1.253085  -0.445793
N    -1.481317  -0.230336  2.078278
C    -1.523900  -1.405138  2.969054
C    -2.946172  -1.899154  3.341694
O    -3.059149  -3.087425  3.687578
H    -1.392261  0.668173  2.554589
H    -1.062434  -2.244881  2.436009
C    -0.705099  -1.036430  4.241508
C    -0.883977  -1.935584  5.470735
C    -0.301539  -3.359755  5.368717
C    -0.959373  -4.331365  6.344049
N    -2.321159  -4.789051  5.820454
H    -1.002236  -0.017875  4.542655
H    0.356181  -0.980619  3.957286
H    -1.952287  -1.966156  5.734694
H    -0.400697  -1.423302  6.314500
H    0.772435  -3.339064  5.598861
H    -0.381333  -3.767304  4.349046
H    -1.133068  -3.866807  7.322102
H    -0.361964  -5.235462  6.502416
H    -2.989006  -4.955784  6.583451
H    -2.726188  -4.092893  5.147471
H    -2.232838  -5.672557  5.303964
N    -3.960022  -1.025117  3.317776
C    -5.325608  -1.352576  3.739118
H    -3.773259  -0.059791  3.066754
H    -6.036375  -0.781631  3.133559
H    -5.477941  -1.100745  4.796716
H    -5.497525  -2.422665  3.594299
Sr    -1.366893  -2.343066  -1.899106
