35
Energy: -105405.564583 eV PBE+vdW (tier 2 basis)
C    -0.074661  -1.069691  0.410900
C    -0.112093  -0.522500  1.795826
O    0.911133  0.010013  2.324094
H    -1.017641  -1.528246  0.095822
H    0.732120  -1.811448  0.332534
H    0.177960  -0.256378  -0.285202
N    -1.259836  -0.589779  2.500898
C    -1.386418  0.037042  3.822070
C    -0.461594  -0.662182  4.857653
O    0.523397  0.026867  5.283450
H    -2.075301  -0.992130  2.047290
H    -0.897135  1.016961  3.727503
C    -2.835557  0.401901  4.239630
C    -3.890664  -0.684475  4.505549
C    -5.246156  -0.143405  5.024454
C    -6.119193  0.544952  3.974510
N    -7.483600  0.900744  4.552470
H    -3.185146  1.095686  3.458639
H    -2.725771  1.014488  5.147946
H    -3.530334  -1.364137  5.286482
H    -4.070110  -1.305549  3.612909
H    -5.065400  0.541332  5.868644
H    -5.799739  -1.002917  5.433190
H    -6.320145  -0.105627  3.113773
H    -5.696994  1.488215  3.607423
H    -8.084386  1.358941  3.850297
H    -7.406387  1.544504  5.354221
H    -7.987189  0.063428  4.883025
N    -0.602724  -1.914018  5.271300
C    -1.497523  -2.989111  4.840203
H    0.090183  -2.184471  5.972651
H    -2.064604  -2.698673  3.955364
H    -2.184092  -3.263923  5.650137
H    -0.890827  -3.868403  4.591240
Sr    2.299733  0.790133  3.992164
