35
Energy: -105404.134162 eV PBE+vdW (tier 2 basis)
C    0.501443  0.121608  -0.006118
C    0.244608  0.374678  1.448959
O    1.010991  1.014178  2.183406
H    0.625550  1.080126  -0.526822
H    -0.285432  -0.455791  -0.503126
H    1.454303  -0.416883  -0.103957
N    -0.905009  -0.153741  1.985603
C    -1.203991  0.058604  3.406787
C    -2.188001  -1.024782  3.848600
O    -3.453098  -0.786212  4.009545
H    -1.571055  -0.608227  1.369467
H    -0.263402  -0.166491  3.936681
C    -1.569769  1.526596  3.765284
C    -0.543335  2.174063  4.725423
C    -0.297659  3.681403  4.535953
C    0.380791  4.135003  3.242779
N    1.754868  3.522277  3.039221
H    -2.575724  1.578938  4.207310
H    -1.634130  2.081918  2.820828
H    0.411296  1.636109  4.632526
H    -0.860471  2.020806  5.766132
H    0.291868  4.045900  5.391510
H    -1.245757  4.237962  4.590088
H    -0.190170  3.877012  2.342235
H    0.512986  5.223053  3.253972
H    2.276366  4.027955  2.310843
H    1.660575  2.523764  2.727003
H    2.323032  3.561916  3.895873
N    -1.729176  -2.241177  4.070037
C    -0.339874  -2.721363  3.971455
H    -2.418681  -2.935739  4.357239
H    -0.360351  -3.814196  4.007829
H    0.253210  -2.353401  4.818743
H    0.112692  -2.406842  3.025960
Sr    -5.608530  -0.493010  4.398938
