35
Energy: -105405.585189 eV PBE+vdW (tier 2 basis)
C    -1.792271  1.250947  -0.799236
C    -1.397748  1.007694  0.622615
O    -0.184207  1.088307  0.972848
H    -2.863737  1.131827  -0.991073
H    -1.229219  0.564018  -1.446688
H    -1.493116  2.267914  -1.089523
N    -2.376731  0.701551  1.497866
C    -2.291809  0.360596  2.936607
C    -1.746555  1.535619  3.777815
O    -0.521062  1.867840  3.714593
H    -3.315228  0.716298  1.108733
H    -3.335764  0.208996  3.235732
C    -1.511214  -0.944102  3.248350
C    -2.299564  -2.269763  3.163467
C    -2.722601  -2.740667  1.758115
C    -2.938839  -4.248606  1.605853
N    -4.136543  -4.798717  2.376283
H    -1.137629  -0.863043  4.279426
H    -0.621349  -0.998630  2.605110
H    -3.173291  -2.204781  3.832967
H    -1.639465  -3.032160  3.606849
H    -1.922640  -2.513250  1.036109
H    -3.610424  -2.198238  1.395163
H    -2.071554  -4.820359  1.960043
H    -3.118939  -4.515739  0.557767
H    -4.231771  -5.814218  2.218142
H    -5.021667  -4.365215  2.075669
H    -4.048699  -4.662291  3.393058
N    -2.559396  2.175299  4.604836
C    -3.995912  1.983829  4.850891
H    -2.100634  2.898640  5.161702
H    -4.344503  2.823952  5.458535
H    -4.182383  1.058848  5.410752
H    -4.565005  1.991057  3.914560
Sr    1.343466  2.035306  2.395351
