35
Energy: -105404.186704 eV PBE+vdW (tier 2 basis)
C    0.800963  1.027834  0.545091
C    0.330006  0.447545  1.844058
O    0.954945  -0.420922  2.470462
H    1.711358  1.617830  0.725220
H    0.063055  1.670707  0.052952
H    1.087839  0.211277  -0.129478
N    -0.867443  0.915735  2.347587
C    -1.242254  0.517554  3.704360
C    -2.761389  0.596561  3.851180
O    -3.522578  -0.059984  3.038476
H    -1.218923  1.794680  1.974757
H    -1.016902  -0.563030  3.746243
C    -0.389475  1.206259  4.802571
C    -0.146638  0.369305  6.074389
C    0.640464  -0.949766  5.922178
C    2.167821  -0.908600  5.880473
N    2.764008  -0.355348  4.587952
H    -0.804468  2.192604  5.071149
H    0.563297  1.463287  4.323152
H    -1.113852  0.114598  6.535748
H    0.353351  1.011283  6.814906
H    0.276645  -1.548599  5.072522
H    0.419619  -1.561306  6.809539
H    2.555292  -1.929560  5.971418
H    2.590953  -0.317700  6.702001
H    3.674193  -0.793582  4.393017
H    2.938894  0.654149  4.654294
H    2.137928  -0.509287  3.757428
N    -3.288163  1.305702  4.825326
C    -4.715772  1.430107  5.130763
H    -2.639042  1.818761  5.419487
H    -4.826431  2.049315  6.025122
H    -5.150316  0.443354  5.334555
H    -5.245385  1.918294  4.302745
Sr    -4.834443  -1.178028  1.665067
