35
Energy: -105404.697313 eV PBE+vdW (tier 2 basis)
C    -0.385055  -1.491536  0.556836
C    0.024673  -0.369687  1.451316
O    1.229534  -0.370317  1.937458
H    -1.431249  -1.456523  0.244962
H    -0.213755  -2.445710  1.074239
H    0.246112  -1.488839  -0.343868
N    -0.790615  0.621449  1.760219
C    -2.162855  0.876453  1.267775
C    -2.340094  2.405693  1.311865
O    -1.945086  3.020931  2.327644
H    -0.446738  1.357409  2.387343
H    -2.224722  0.517697  0.232843
C    -3.260488  0.174494  2.110155
C    -3.306226  0.494619  3.626763
C    -4.614065  1.125312  4.142894
C    -4.974554  2.536877  3.689134
N    -3.965670  3.578856  4.143945
H    -3.138749  -0.907962  1.966130
H    -4.218984  0.415973  1.625862
H    -2.448491  1.117025  3.919927
H    -3.180494  -0.443741  4.181284
H    -4.605040  1.100653  5.244231
H    -5.466004  0.489894  3.856551
H    -5.944801  2.829464  4.107307
H    -5.037732  2.638928  2.597884
H    -4.336125  4.530404  4.021585
H    -3.084986  3.495874  3.572437
H    -3.739753  3.470695  5.141587
N    -2.952716  2.969345  0.268968
C    -3.247377  4.399537  0.155395
H    -3.217729  2.378292  -0.514836
H    -2.646862  4.946704  0.887407
H    -4.315442  4.591638  0.323119
H    -2.987515  4.742545  -0.851828
Sr    3.346642  -0.774238  2.396692
