35
Energy: -105403.926142 eV PBE+vdW (tier 2 basis)
C    0.199588  0.327611  -0.503099
C    0.125027  -0.383340  0.802710
O    0.837904  -1.462328  0.955302
H    -0.620117  1.027171  -0.669546
H    1.146464  0.886060  -0.564374
H    0.205258  -0.413087  -1.312464
N    -0.626155  0.001778  1.823755
C    -1.423510  1.218687  2.186203
C    -2.935144  0.997608  2.438218
O    -3.448951  1.810667  3.224194
H    -0.551724  -0.634747  2.619491
H    -1.063088  1.407561  3.207655
C    -1.174360  2.536860  1.408275
C    -2.087639  2.942594  0.231542
C    -3.471432  3.573483  0.524871
C    -3.488503  4.771705  1.492122
N    -4.150207  4.420740  2.812384
H    -0.125546  2.548785  1.083020
H    -1.209734  3.322960  2.175283
H    -2.270193  2.095723  -0.448005
H    -1.516140  3.669794  -0.363492
H    -4.187953  2.814179  0.867943
H    -3.867593  3.914307  -0.440197
H    -4.045881  5.618879  1.078987
H    -2.482447  5.134536  1.735083
H    -3.826102  3.474699  3.145839
H    -5.172099  4.368054  2.708140
H    -3.960600  5.127347  3.535114
N    -3.659198  0.025521  1.860840
C    -3.321498  -0.935281  0.812580
H    -4.621808  0.007807  2.197717
H    -4.258349  -1.329097  0.406524
H    -2.744282  -1.785661  1.199630
H    -2.785064  -0.456104  -0.014272
Sr    2.317543  -3.102583  0.867555
