35
Energy: -105405.872508 eV PBE+vdW (tier 2 basis)
C    -0.050152  0.006717  0.093123
C    -0.154080  -0.281854  1.554924
O    0.838327  -0.748845  2.190004
H    -0.955223  0.446420  -0.338341
H    0.175853  -0.932765  -0.432611
H    0.798568  0.679874  -0.088195
N    -1.327983  -0.030982  2.162911
C    -1.765892  -0.333964  3.547053
C    -0.937610  0.456443  4.590180
O    0.246122  0.116217  4.888163
H    -2.048248  0.358531  1.560193
H    -2.792609  0.056133  3.584436
C    -1.811887  -1.850085  3.848285
C    -2.740009  -2.267251  5.014448
C    -4.181382  -2.623476  4.587383
C    -4.984203  -3.169030  5.770539
N    -6.367613  -3.655165  5.357614
H    -0.793026  -2.198931  4.060314
H    -2.116481  -2.361029  2.924192
H    -2.758257  -1.489412  5.794940
H    -2.295478  -3.150876  5.493443
H    -4.135555  -3.386663  3.793778
H    -4.694865  -1.746773  4.160292
H    -5.149371  -2.414305  6.549495
H    -4.490777  -4.034179  6.231352
H    -6.887589  -4.024912  6.168583
H    -6.316150  -4.413369  4.660850
H    -6.939793  -2.901337  4.949639
N    -1.528243  1.490834  5.170437
C    -0.911010  2.356357  6.180701
H    -2.465850  1.739149  4.864918
H    -1.696720  2.751103  6.831927
H    -0.393439  3.197027  5.699991
H    -0.199770  1.776584  6.775311
Sr    2.226247  -0.662560  3.982052
