35
Energy: -105403.468199 eV PBE+vdW (tier 2 basis)
C    -0.002609  1.625003  0.750814
C    0.443425  0.200686  1.004489
O    1.598146  -0.124757  1.182865
H    -0.617395  2.006780  1.581987
H    -0.573951  1.712974  -0.184670
H    0.891232  2.250802  0.677537
N    -0.544853  -0.799085  1.015401
C    -1.971556  -0.638890  1.056704
C    -2.496180  -0.089998  2.404555
O    -3.441644  0.807023  2.366419
H    -0.144393  -1.721094  1.164818
H    -2.252430  0.163560  0.356055
C    -2.714686  -1.906177  0.538247
C    -2.432790  -3.239940  1.253145
C    -3.026396  -4.487889  0.554015
C    -2.195985  -4.977202  -0.634296
N    -2.724747  -6.300370  -1.174036
H    -2.430197  -1.969435  -0.522382
H    -3.797127  -1.708702  0.556002
H    -2.854966  -3.210513  2.267755
H    -1.350799  -3.405027  1.376638
H    -4.061719  -4.286022  0.236331
H    -3.079350  -5.292441  1.303582
H    -1.152657  -5.168042  -0.352378
H    -2.202327  -4.283872  -1.484021
H    -2.158493  -6.634826  -1.968733
H    -3.697997  -6.222691  -1.504332
H    -2.704964  -7.039492  -0.455070
N    -1.990734  -0.405601  3.579967
C    -0.897898  -1.323142  3.950758
H    -2.402519  0.099045  4.364810
H    -0.953167  -1.472014  5.033060
H    0.076634  -0.887960  3.697875
H    -1.013035  -2.293516  3.464323
Sr    -4.760807  2.563142  2.288960
