35
Energy: -105405.975262 eV PBE+vdW (tier 2 basis)
C    0.394686  2.792776  2.016225
C    0.286102  1.624868  2.937642
O    0.742870  1.678354  4.118773
H    -0.160318  3.635280  2.455415
H    0.006335  2.597712  1.011269
H    1.443223  3.111009  1.943919
N    -0.321733  0.509018  2.492159
C    -0.655091  -0.673229  3.307798
C    0.630893  -1.493559  3.588371
O    1.350891  -1.170392  4.581341
H    -0.653786  0.522137  1.530473
H    -0.964479  -0.302460  4.297021
C    -1.856311  -1.412130  2.678398
C    -2.428384  -2.538318  3.563118
C    -3.888751  -2.950281  3.267690
C    -4.092055  -3.735741  1.972004
N    -5.529574  -4.227987  1.854491
H    -1.598274  -1.781887  1.670805
H    -2.631367  -0.644992  2.523933
H    -2.418541  -2.200407  4.609913
H    -1.781045  -3.427933  3.533298
H    -4.529272  -2.053737  3.265953
H    -4.223546  -3.571218  4.113282
H    -3.464520  -4.635237  1.931645
H    -3.906694  -3.139593  1.070007
H    -5.677646  -4.762647  0.984929
H    -6.204728  -3.448641  1.851745
H    -5.784496  -4.847229  2.639041
N    0.960326  -2.486044  2.778732
C    2.170442  -3.307880  2.897849
H    0.353507  -2.669336  1.984140
H    1.946073  -4.321017  2.550320
H    2.484804  -3.341827  3.944044
H    2.977642  -2.890352  2.281871
Sr    1.996817  0.719920  5.765389
