35
Energy: -105404.371362 eV PBE+vdW (tier 2 basis)
C    0.438617  0.432781  1.601879
C    0.076638  -1.012243  1.515940
O    1.010085  -1.913533  1.525686
H    0.576372  0.834124  0.584237
H    1.385570  0.552285  2.137848
H    -0.328065  1.039740  2.095106
N    -1.186329  -1.395734  1.405937
C    -2.376711  -0.520925  1.242260
C    -2.889093  0.130539  2.553862
O    -3.204987  1.330590  2.494734
H    -1.346622  -2.401854  1.340676
H    -2.063878  0.330117  0.625163
C    -3.483361  -1.300024  0.483757
C    -4.521974  -0.460666  -0.286919
C    -5.522803  0.383725  0.543464
C    -5.322393  1.899436  0.378317
N    -5.528230  2.631973  1.687200
H    -3.999627  -1.986778  1.171841
H    -2.976106  -1.929811  -0.263747
H    -5.088556  -1.177344  -0.894613
H    -4.000552  0.179036  -1.015412
H    -5.452618  0.110830  1.606739
H    -6.546930  0.127242  0.246137
H    -6.013146  2.332494  -0.353754
H    -4.299204  2.146416  0.075533
H    -5.445844  3.651130  1.570637
H    -4.781255  2.310264  2.342083
H    -6.452892  2.444396  2.096931
N    -3.021343  -0.586953  3.684263
C    -2.779853  -2.004203  3.945467
H    -3.352387  -0.031470  4.472089
H    -3.343321  -2.286919  4.840277
H    -1.718116  -2.211659  4.138283
H    -3.143707  -2.636305  3.127271
Sr    2.909425  -3.041190  1.445013
