35
Energy: -105405.117865 eV PBE+vdW (tier 2 basis)
C    -0.090094  -0.343320  -0.089209
C    -0.059761  -0.104865  1.386595
O    1.028679  0.176088  1.967006
H    0.872180  -0.054219  -0.522071
H    -0.890190  0.230087  -0.571116
H    -0.265085  -1.406943  -0.314900
N    -1.198412  -0.170478  2.135882
C    -2.158163  -1.288392  2.069793
C    -1.344968  -2.618118  2.271345
O    -0.110300  -2.564239  2.577663
H    -1.029476  0.151347  3.089164
H    -2.753668  -1.189617  2.992178
C    -3.164277  -1.278524  0.895709
C    -4.249004  -0.174194  0.948216
C    -3.851949  1.194231  0.367253
C    -4.915164  2.289825  0.478403
N    -6.107817  2.096084  -0.455523
H    -3.698877  -2.238153  0.918021
H    -2.642766  -1.269422  -0.069984
H    -4.594199  -0.049820  1.987235
H    -5.112442  -0.575330  0.394633
H    -3.536833  1.091602  -0.684556
H    -2.978438  1.595147  0.902177
H    -4.497131  3.268083  0.213614
H    -5.336102  2.360615  1.489458
H    -6.775492  2.876759  -0.358053
H    -6.629875  1.230699  -0.259622
H    -5.819348  2.069542  -1.444706
N    -1.975557  -3.773248  2.184137
C    -1.361126  -5.083661  2.441706
H    -2.966875  -3.767619  1.960423
H    -2.101609  -5.858333  2.226756
H    -1.055691  -5.161352  3.492241
H    -0.491731  -5.228517  1.790828
Sr    1.975830  -1.637510  3.085526
