35
Energy: -105405.206204 eV PBE+vdW (tier 2 basis)
C    -0.506194  0.019004  0.036244
C    -0.682379  -0.140859  1.508089
O    0.203896  -0.705608  2.212015
H    -0.169927  -0.946646  -0.368392
H    0.300088  0.735671  -0.181891
H    -1.416075  0.329840  -0.484785
N    -1.810853  0.315185  2.123051
C    -2.319172  1.674263  1.914990
C    -1.204940  2.662190  2.388347
O    -0.220665  2.210291  3.064221
H    -1.856327  0.023842  3.101386
H    -2.488790  1.833477  0.840073
C    -3.628716  1.879404  2.712598
C    -4.856115  1.045308  2.285111
C    -5.524610  1.487416  0.965798
C    -7.033875  1.255320  0.870174
N    -7.444081  -0.212827  0.789169
H    -3.895192  2.944649  2.684232
H    -3.412435  1.664745  3.771395
H    -5.580040  1.152463  3.108052
H    -4.588037  -0.022266  2.251409
H    -5.023424  1.050772  0.087370
H    -5.422793  2.578286  0.850570
H    -7.444595  1.722592  -0.032799
H    -7.564994  1.664749  1.738953
H    -8.469747  -0.297634  0.711850
H    -7.161621  -0.747748  1.622138
H    -7.041711  -0.679442  -0.036647
N    -1.270870  3.948335  2.090308
C    -2.260804  4.677400  1.291787
H    -0.517060  4.513909  2.485193
H    -2.976228  5.194953  1.943991
H    -2.792422  4.003299  0.614378
H    -1.734894  5.425857  0.688995
Sr    1.401452  0.647659  3.691135
