35
Energy: -105404.830821 eV PBE+vdW (tier 2 basis)
C    -1.415552  -1.915001  2.623558
C    -0.174153  -1.176577  2.249358
O    0.975569  -1.761091  2.442701
H    -2.334911  -1.356018  2.433817
H    -1.377815  -2.167000  3.692812
H    -1.460806  -2.861758  2.067041
N    -0.193375  0.030951  1.734425
C    -1.333198  0.837701  1.261920
C    -0.687157  1.704148  0.145422
O    0.521977  1.957037  0.235682
H    0.688143  0.501122  1.446935
H    -2.089755  0.164924  0.836877
C    -1.995332  1.691274  2.373584
C    -1.193591  2.876500  2.959149
C    -1.485339  4.239894  2.296899
C    -0.802014  5.369922  3.064353
N    -1.178818  6.742453  2.519517
H    -2.263198  1.006505  3.190518
H    -2.955381  2.048405  1.972362
H    -0.112770  2.673691  2.922978
H    -1.453522  2.951447  4.024644
H    -2.575035  4.406595  2.292936
H    -1.149036  4.243246  1.248810
H    0.291990  5.311865  3.006903
H    -1.093363  5.380642  4.122302
H    -2.194488  6.907972  2.576996
H    -0.904542  6.852774  1.532783
H    -0.717245  7.495972  3.050856
N    -1.508714  2.145718  -0.817189
C    -1.066736  2.965188  -1.946920
H    -2.469207  1.814820  -0.824942
H    -1.126965  2.392161  -2.880309
H    -0.028475  3.262334  -1.776777
H    -1.701421  3.854434  -2.038404
Sr    2.686131  -3.087598  2.708196
