35
Energy: -105404.315193 eV PBE+vdW (tier 2 basis)
C    0.271977  0.628289  1.093978
C    -0.338169  0.518717  2.449430
O    0.435905  0.578920  3.491742
H    1.118149  -0.067149  1.018599
H    0.670132  1.645050  0.957938
H    -0.419157  0.415078  0.275347
N    -1.640227  0.374311  2.635863
C    -2.728120  0.178843  1.642232
C    -3.951249  1.045079  2.069497
O    -5.021370  0.522528  2.406520
H    -1.932186  0.282365  3.611491
H    -2.372987  0.590317  0.688837
C    -2.975402  -1.346014  1.496545
C    -4.324207  -1.864032  0.965023
C    -4.915586  -1.215277  -0.301840
C    -6.433283  -1.372399  -0.351343
N    -7.107452  -0.447656  0.664846
H    -2.834769  -1.807686  2.484970
H    -2.153634  -1.724313  0.869067
H    -5.043505  -1.805100  1.790190
H    -4.189135  -2.938172  0.773263
H    -4.508148  -1.685466  -1.207189
H    -4.666919  -0.145375  -0.391948
H    -6.737566  -2.395130  -0.099029
H    -6.852686  -1.125102  -1.332362
H    -7.955746  -0.868992  1.064454
H    -7.393065  0.434708  0.222917
H    -6.453414  -0.197307  1.442746
N    -3.796918  2.385453  2.030534
C    -2.659808  3.185769  1.585209
H    -4.621154  2.894638  2.347317
H    -3.021315  4.187175  1.331891
H    -2.202549  2.766854  0.680261
H    -1.897019  3.291354  2.369738
Sr    2.101218  0.622499  4.941375
