35
Energy: -105404.569969 eV PBE+vdW (tier 2 basis)
C    -1.728762  -0.010373  -0.733054
C    -1.709161  -0.158749  0.759934
O    -1.735542  -1.278232  1.309629
H    -2.443337  -0.725616  -1.156253
H    -0.740519  -0.291972  -1.125574
H    -1.967444  1.000853  -1.080065
N    -1.629629  0.993738  1.487476
C    -1.668299  1.159644  2.949734
C    -0.548062  0.425980  3.707076
O    0.097169  1.069611  4.638105
H    -1.576927  1.858569  0.958140
H    -1.431284  2.220496  3.103025
C    -3.062745  0.967744  3.621542
C    -3.793619  -0.393969  3.569885
C    -4.842344  -0.520954  2.446075
C    -5.566221  -1.862678  2.541182
N    -6.714449  -1.970000  1.545214
H    -3.709344  1.753443  3.203400
H    -2.922782  1.246596  4.676946
H    -4.314654  -0.515941  4.530594
H    -3.081537  -1.227047  3.504009
H    -4.368723  -0.425668  1.458096
H    -5.570149  0.301166  2.542172
H    -6.016289  -2.016754  3.530162
H    -4.900015  -2.707767  2.327513
H    -7.195382  -2.878551  1.626832
H    -6.389200  -1.884301  0.571650
H    -7.422023  -1.236448  1.698695
N    -0.286817  -0.820562  3.425642
C    0.745967  -1.634218  4.057969
H    -0.870680  -1.208317  2.615229
H    0.571865  -1.717381  5.139183
H    1.744486  -1.215958  3.868332
H    0.710619  -2.637241  3.623937
Sr    1.420528  2.022338  6.092593
