35
Energy: -105404.504758 eV PBE+vdW (tier 2 basis)
C    -0.824266  1.752289  -0.098836
C    -0.580706  0.739010  0.974944
O    0.600993  0.219638  1.105035
H    -0.154518  2.612600  0.042953
H    -1.854962  2.121458  -0.115880
H    -0.607236  1.309388  -1.081724
N    -1.586672  0.402481  1.757157
C    -1.659705  -0.575162  2.852333
C    -3.118821  -1.072332  2.830534
O    -4.010704  -0.228045  2.588395
H    -2.501189  0.829274  1.567903
H    -0.947850  -1.382736  2.646328
C    -1.342967  0.054352  4.240226
C    -2.148171  1.321762  4.635197
C    -3.037525  1.217576  5.889618
C    -4.282306  0.334813  5.848915
N    -5.303734  0.793034  4.820877
H    -0.269451  0.285936  4.250015
H    -1.472568  -0.743270  4.987352
H    -2.741428  1.687887  3.784986
H    -1.432249  2.127607  4.840220
H    -3.340547  2.235716  6.181409
H    -2.437890  0.852547  6.737463
H    -4.782764  0.353118  6.824159
H    -4.064138  -0.713008  5.605842
H    -4.974413  0.533775  3.857192
H    -5.461430  1.808601  4.870398
H    -6.214519  0.340508  4.976026
N    -3.380302  -2.349050  3.123162
C    -2.436225  -3.441350  3.380905
H    -4.367047  -2.598545  3.059988
H    -2.998536  -4.287757  3.786132
H    -1.686496  -3.156022  4.127782
H    -1.944563  -3.774046  2.457059
Sr    2.720182  -0.105284  0.543839
