35
Energy: -105404.387128 eV PBE+vdW (tier 2 basis)
C    0.371019  -0.090019  -0.009048
C    0.102484  -0.207413  1.452879
O    1.138433  -0.220583  2.239461
H    0.881760  0.871459  -0.177558
H    -0.520043  -0.118498  -0.632383
H    1.036969  -0.899459  -0.328591
N    -1.100314  -0.081194  2.032382
C    -2.357769  -0.694775  1.560391
C    -2.001118  -2.214512  1.381476
O    -0.851533  -2.482767  1.011681
H    -1.034534  -0.041327  3.049203
H    -3.063033  -0.542525  2.387627
C    -2.951865  -0.069202  0.269934
C    -4.429900  -0.400340  -0.022846
C    -5.516026  0.424581  0.709830
C    -5.871750  1.700808  -0.053727
N    -7.094373  2.396820  0.534091
H    -2.378470  -0.423794  -0.594156
H    -2.797277  1.018968  0.325139
H    -4.615819  -1.464081  0.162870
H    -4.579289  -0.288611  -1.106531
H    -5.208683  0.671448  1.739073
H    -6.419135  -0.199532  0.794398
H    -6.131960  1.482233  -1.096991
H    -5.066873  2.446073  -0.048691
H    -7.332609  3.248447  0.003504
H    -6.949274  2.677403  1.514532
H    -7.923120  1.783700  0.511192
N    -2.927155  -3.159800  1.611521
C    -4.252388  -3.079102  2.219723
H    -2.591106  -4.099684  1.400487
H    -4.452359  -2.072981  2.599249
H    -4.307995  -3.775592  3.065389
H    -5.034016  -3.352325  1.498563
Sr    3.144397  -0.691332  2.962463
