35
Energy: -105404.512313 eV PBE+vdW (tier 2 basis)
C    0.327418  -1.458371  -0.355908
C    0.217888  -1.282765  1.125622
O    1.135377  -1.781885  1.896362
H    0.342413  -2.529944  -0.602002
H    1.266858  -1.014832  -0.715573
H    -0.501491  -0.998534  -0.903650
N    -0.816102  -0.623006  1.606709
C    -1.196477  -0.356883  2.999561
C    -2.739882  -0.263850  2.960998
O    -3.258088  0.234676  1.935338
H    -1.538439  -0.299212  0.951142
H    -0.850944  -1.199071  3.610380
C    -0.597585  0.973128  3.566733
C    -1.412047  2.261591  3.362551
C    -1.428128  2.878323  1.946482
C    -2.654478  3.753860  1.688491
N    -3.872276  2.913830  1.302653
H    0.418727  1.088432  3.161340
H    -0.477779  0.823013  4.648538
H    -1.005710  3.012753  4.054539
H    -2.438872  2.087926  3.721806
H    -1.361503  2.116001  1.155898
H    -0.542264  3.514380  1.813296
H    -2.493741  4.463682  0.870122
H    -2.932993  4.328460  2.579989
H    -4.749322  3.341897  1.625798
H    -3.946586  2.827988  0.281108
H    -3.805096  1.933761  1.675605
N    -3.444567  -0.649876  4.022964
C    -2.967479  -1.271379  5.262598
H    -4.453789  -0.549701  3.915466
H    -3.784398  -1.247695  5.989686
H    -2.128631  -0.713463  5.693570
H    -2.687513  -2.320876  5.102337
Sr    2.956310  -2.929441  2.407960
