35
Energy: -105403.659681 eV PBE+vdW (tier 2 basis)
C    0.025759  -0.005332  3.680888
C    -0.527507  -1.287809  3.093372
O    -0.258272  -2.392280  3.515413
H    -0.774358  0.594308  4.143943
H    0.536088  0.608242  2.924398
H    0.743860  -0.273675  4.460715
N    -1.386274  -1.180737  1.988072
C    -1.962797  0.005999  1.406361
C    -3.092641  0.592912  2.283876
O    -3.061425  1.859874  2.584333
H    -1.714540  -2.091614  1.674477
H    -1.199879  0.799517  1.388724
C    -2.437519  -0.241049  -0.051774
C    -1.335134  -0.800758  -0.976582
C    -1.891984  -1.147447  -2.372230
C    -1.053663  -2.094533  -3.229061
N    0.204884  -1.459544  -3.816218
H    -2.831065  0.702916  -0.457105
H    -3.284528  -0.943998  -0.046774
H    -0.512423  -0.070478  -1.045239
H    -0.905594  -1.705810  -0.521872
H    -2.135410  -0.236196  -2.942112
H    -2.852722  -1.672939  -2.254570
H    -1.629273  -2.444907  -4.094059
H    -0.711663  -2.973203  -2.667548
H    0.713102  -2.136899  -4.405376
H    0.860174  -1.139879  -3.090286
H    -0.022618  -0.651349  -4.413482
N    -4.057046  -0.144851  2.796851
C    -4.317741  -1.589234  2.682050
H    -4.704384  0.356580  3.404330
H    -4.210138  -1.932019  1.649975
H    -5.352176  -1.762810  2.992769
H    -3.645318  -2.152803  3.341165
Sr    -2.965188  3.909734  3.369140
