35
Energy: -105404.487908 eV PBE+vdW (tier 2 basis)
C    -1.345997  1.130557  0.152462
C    -0.927056  0.754003  1.541309
O    0.257210  0.447104  1.828137
H    -0.786409  2.025097  -0.155190
H    -2.418606  1.323614  0.045791
H    -1.062750  0.333733  -0.548792
N    -1.884053  0.762638  2.502421
C    -1.718256  0.343130  3.902623
C    -0.965809  1.398512  4.734852
O    -1.466907  1.835456  5.845835
H    -2.818125  1.048150  2.223744
H    -2.736838  0.307043  4.309324
C    -1.066472  -1.050596  4.137864
C    -1.688941  -2.244817  3.385920
C    -1.153353  -2.563787  1.974969
C    0.347424  -2.911711  1.921267
N    1.078401  -2.099644  0.868093
H    -1.163939  -1.237709  5.217756
H    0.011928  -0.986131  3.945327
H    -2.780469  -2.126793  3.318391
H    -1.538273  -3.134664  4.014113
H    -1.373371  -1.739424  1.282851
H    -1.727327  -3.415762  1.588385
H    0.519211  -3.967144  1.683749
H    0.863626  -2.698500  2.864740
H    2.087474  -2.303712  0.867303
H    0.939600  -1.075270  1.052787
H    0.731545  -2.312913  -0.076899
N    0.202182  1.804885  4.297416
C    1.067896  2.789336  4.944326
H    0.509203  1.368877  3.405607
H    1.952191  2.937667  4.318811
H    1.396168  2.430756  5.928892
H    0.552022  3.753346  5.044293
Sr    -2.227823  2.689306  7.731434
