35
Energy: -105405.614452 eV PBE+vdW (tier 2 basis)
C    -1.040492  2.149597  1.810727
C    -1.250345  0.684053  1.599584
O    -0.517210  0.041697  0.791741
H    -1.121151  2.660920  0.840966
H    -0.016822  2.323427  2.170553
H    -1.743877  2.603329  2.516711
N    -2.241708  0.089916  2.293221
C    -2.734518  -1.305473  2.245181
C    -1.669199  -2.316289  2.720863
O    -0.633423  -2.551407  2.021861
H    -2.722446  0.696407  2.951904
H    -3.543102  -1.322481  2.985339
C    -3.337418  -1.738982  0.877281
C    -4.858779  -1.518968  0.716074
C    -5.321690  -0.068318  0.497100
C    -6.837692  0.143123  0.452567
N    -7.507852  -0.405376  -0.804409
H    -3.155264  -2.816721  0.761404
H    -2.786784  -1.248454  0.062213
H    -5.376481  -1.944633  1.591258
H    -5.163900  -2.142856  -0.139352
H    -4.857405  0.356611  -0.408079
H    -4.982441  0.572906  1.325025
H    -7.083659  1.211408  0.468425
H    -7.348900  -0.337317  1.296564
H    -7.130990  0.028132  -1.660125
H    -8.520847  -0.208866  -0.789240
H    -7.402850  -1.425235  -0.897895
N    -1.862371  -2.977797  3.851640
C    -2.959108  -2.883069  4.826242
H    -1.137122  -3.667054  4.058228
H    -3.878873  -3.334070  4.433436
H    -3.135989  -1.844616  5.127646
H    -2.660755  -3.442054  5.717921
Sr    0.903421  -1.736409  0.533794
