35
Energy: -105405.842120 eV PBE+vdW (tier 2 basis)
C    0.468429  0.387500  0.291038
C    0.092049  0.168338  1.719932
O    0.941219  -0.279205  2.548184
H    1.353784  1.035196  0.238588
H    -0.331351  0.822904  -0.316860
H    0.760337  -0.579768  -0.144421
N    -1.168337  0.459318  2.088036
C    -1.873670  0.213417  3.368817
C    -1.249290  1.010810  4.538318
O    -0.140840  0.676432  5.055731
H    -1.757259  0.824634  1.343746
H    -2.872183  0.636556  3.191313
C    -2.060933  -1.292379  3.679578
C    -3.293083  -1.599896  4.554763
C    -3.452566  -3.113364  4.799072
C    -4.603130  -3.546964  5.709950
N    -5.960453  -3.595284  5.011988
H    -1.152358  -1.694124  4.151163
H    -2.161722  -1.808258  2.713919
H    -4.187373  -1.188347  4.056485
H    -3.212555  -1.085105  5.525616
H    -2.543243  -3.494859  5.287655
H    -3.509268  -3.657782  3.841853
H    -4.730943  -2.884867  6.575589
H    -4.439264  -4.564986  6.082264
H    -5.955312  -4.256970  4.221437
H    -6.256078  -2.678984  4.648929
H    -6.694899  -3.912544  5.663766
N    -1.940011  2.047253  4.990315
C    -1.526700  2.921500  6.092891
H    -2.805225  2.289228  4.513390
H    -2.422406  3.322799  6.576570
H    -0.925226  3.757778  5.712695
H    -0.943997  2.347586  6.818588
Sr    1.989721  -0.060898  4.545136
