35
Energy: -105404.324295 eV PBE+vdW (tier 2 basis)
C    0.881428  -0.107147  0.468640
C    0.506998  -0.219882  1.912415
O    1.406845  -0.537229  2.785470
H    1.311444  -1.056262  0.118002
H    1.644255  0.675642  0.345489
H    0.035077  0.144541  -0.179545
N    -0.749577  0.016091  2.256815
C    -1.364802  0.039618  3.594086
C    -1.920729  -1.309962  4.121355
O    -1.785175  -1.516873  5.342972
H    -1.361594  0.276755  1.484497
H    -0.569328  0.283921  4.306770
C    -2.459109  1.144330  3.608723
C    -3.406260  1.126197  4.817672
C    -2.748555  1.462321  6.170034
C    -3.508136  0.943213  7.384196
N    -3.486025  -0.591255  7.443989
H    -3.073927  1.038320  2.700906
H    -1.956208  2.119468  3.530329
H    -3.911587  0.147512  4.851514
H    -4.207957  1.850503  4.618670
H    -2.672697  2.552880  6.285030
H    -1.717142  1.082708  6.223094
H    -4.560948  1.248569  7.384453
H    -3.053961  1.300131  8.314384
H    -3.217829  -0.922427  8.378651
H    -4.410948  -0.991273  7.247611
H    -2.813214  -0.991740  6.743602
N    -2.564413  -2.174177  3.321249
C    -2.948330  -2.067089  1.911597
H    -2.874046  -3.013352  3.810196
H    -3.737567  -2.800663  1.720648
H    -2.113302  -2.294585  1.236136
H    -3.369882  -1.081773  1.679778
Sr    3.425770  -1.073287  3.523565
