35
Energy: -105404.493045 eV PBE+vdW (tier 2 basis)
C    -0.016842  0.885218  0.406307
C    -0.038370  0.436417  1.836316
O    0.927211  -0.185471  2.350270
H    -0.849776  1.541569  0.132760
H    -0.054420  0.003508  -0.250654
H    0.932346  1.396739  0.203379
N    -1.146699  0.734896  2.556389
C    -1.517226  0.318673  3.923997
C    -0.590926  0.855609  5.025768
O    -1.125688  1.320718  6.112875
H    -1.857333  1.274143  2.070060
H    -2.465613  0.840470  4.105846
C    -1.844602  -1.194241  4.118248
C    -0.761762  -2.259719  3.848143
C    -0.826991  -2.892814  2.441975
C    0.413300  -3.707121  2.071247
N    1.502883  -2.834269  1.449838
H    -2.732451  -1.397724  3.501362
H    -2.192458  -1.288928  5.158114
H    -0.900293  -3.068751  4.578886
H    0.238691  -1.853700  4.048871
H    -1.026052  -2.144103  1.659365
H    -1.685982  -3.577111  2.400679
H    0.189565  -4.487925  1.336489
H    0.858689  -4.191788  2.948403
H    2.440736  -3.226263  1.606246
H    1.472894  -1.851364  1.815249
H    1.377623  -2.774458  0.431143
N    0.706526  0.808670  4.864238
C    1.703748  1.285048  5.820734
H    1.016151  0.394936  3.952876
H    1.566518  2.355444  6.023230
H    2.696502  1.145318  5.384661
H    1.650587  0.713934  6.756919
Sr    -1.937212  2.239610  7.941613
