35
Energy: -105404.476893 eV PBE+vdW (tier 2 basis)
C    0.764309  0.195547  0.422808
C    0.449702  0.303815  1.885379
O    1.303476  0.057542  2.758791
H    1.361199  -0.708156  0.252674
H    1.402241  1.045151  0.138022
H    -0.117650  0.187328  -0.226957
N    -0.813125  0.714421  2.212743
C    -1.425102  0.833068  3.547170
C    -0.689030  1.787025  4.505392
O    -1.390120  2.646307  5.190251
H    -1.426759  0.944231  1.437303
H    -2.380462  1.339907  3.359212
C    -1.816848  -0.514964  4.232272
C    -0.718037  -1.525093  4.632043
C    -0.416828  -2.665509  3.627306
C    -1.310274  -3.883369  3.861395
N    -0.897238  -5.066932  2.993281
H    -2.552659  -0.985734  3.562763
H    -2.387089  -0.236615  5.131430
H    -1.009138  -1.976402  5.591774
H    0.225288  -1.008065  4.837985
H    0.635696  -2.961687  3.750869
H    -0.522103  -2.312059  2.590656
H    -2.366585  -3.694641  3.631980
H    -1.241543  -4.240662  4.896573
H    0.076487  -5.349345  3.180749
H    -0.965017  -4.853215  1.987934
H    -1.492729  -5.889707  3.171699
N    0.605884  1.701099  4.632500
C    1.429123  2.537602  5.497693
H    1.056465  0.980208  3.972286
H    1.120913  2.438757  6.547542
H    1.381196  3.591179  5.186667
H    2.468280  2.207624  5.411860
Sr    -2.257626  4.318561  6.296256
