35
Energy: -105405.339652 eV PBE+vdW (tier 2 basis)
C    -0.660991  1.227139  0.410958
C    -0.694256  0.303390  1.585599
O    0.363926  0.048630  2.231969
H    -0.677122  0.656970  -0.531869
H    0.268095  1.805167  0.436900
H    -1.516749  1.910415  0.404087
N    -1.856748  -0.282288  1.985618
C    -2.789005  -0.968525  1.074643
C    -1.960474  -2.017725  0.257468
O    -0.762446  -2.280227  0.598075
H    -1.752954  -0.752022  2.884740
H    -3.423070  -1.572873  1.743837
C    -3.744627  -0.064162  0.262064
C    -4.583168  0.874123  1.150869
C    -5.647473  1.656825  0.353516
C    -6.489651  2.541456  1.274227
N    -7.563671  3.303055  0.508569
H    -4.435829  -0.721659  -0.288305
H    -3.195741  0.503890  -0.501029
H    -3.920423  1.578353  1.676097
H    -5.081600  0.279894  1.933370
H    -6.304156  0.948316  -0.176851
H    -5.157988  2.277618  -0.414113
H    -5.887097  3.302974  1.784853
H    -7.021788  1.956470  2.034857
H    -8.128155  3.888166  1.143647
H    -8.214664  2.667581  0.023695
H    -7.159523  3.930449  -0.202539
N    -2.542699  -2.654230  -0.740747
C    -1.917184  -3.727058  -1.526485
H    -3.503047  -2.413476  -0.969029
H    -2.626768  -4.051269  -2.291873
H    -1.672338  -4.578541  -0.880518
H    -1.007056  -3.359971  -2.014470
Sr    1.250305  -2.054967  1.773214
