35
Energy: -105405.818215 eV PBE+vdW (tier 2 basis)
C    1.090948  -2.014072  3.151329
C    0.335809  -0.726464  3.095630
O    0.942295  0.377857  2.970577
H    1.685958  -2.113599  2.231990
H    0.452145  -2.896208  3.264979
H    1.807306  -1.984502  3.983773
N    -1.009309  -0.771488  3.169464
C    -1.926376  0.378230  3.061520
C    -1.880595  1.207576  4.377490
O    -0.912476  2.011153  4.548840
H    -1.426315  -1.681653  3.348181
H    -1.504070  1.052584  2.300958
C    -3.339607  -0.051468  2.616596
C    -3.544636  -0.398289  1.120370
C    -3.185842  -1.830459  0.685563
C    -3.475556  -2.160822  -0.781880
N    -4.958786  -2.339939  -1.094939
H    -4.001983  0.798659  2.831742
H    -3.700616  -0.885522  3.243661
H    -2.996584  0.326500  0.498121
H    -4.610912  -0.208013  0.920623
H    -3.681656  -2.571468  1.334936
H    -2.106276  -2.007939  0.802039
H    -3.003702  -3.107286  -1.070459
H    -3.117624  -1.378597  -1.463313
H    -5.093268  -2.581277  -2.089245
H    -5.509311  -1.488156  -0.917700
H    -5.377364  -3.102766  -0.542138
N    -2.831351  1.054352  5.281444
C    -2.913908  1.765066  6.562904
H    -3.578164  0.393700  5.081028
H    -2.280848  2.654233  6.527020
H    -2.587259  1.108030  7.379215
H    -3.954003  2.060683  6.736719
Sr    1.260470  2.446393  3.921631
