35
Energy: -105404.660958 eV PBE+vdW (tier 2 basis)
C    -3.255994  2.539157  1.299888
C    -2.310516  1.867209  2.247583
O    -1.090871  1.778818  2.015441
H    -3.155286  2.070028  0.312090
H    -2.951074  3.587104  1.176658
H    -4.305272  2.501986  1.611742
N    -2.842465  1.356386  3.406160
C    -2.128525  0.493910  4.358438
C    -1.037629  1.278263  5.115186
O    -1.074552  1.365498  6.414116
H    -3.837676  1.482131  3.557914
H    -2.870655  0.211603  5.116491
C    -1.563882  -0.808430  3.712301
C    -2.673953  -1.666319  3.077925
C    -2.218237  -2.683228  2.009642
C    -1.478674  -3.901186  2.557405
N    -1.224980  -4.920425  1.451896
H    -1.026808  -1.365740  4.495013
H    -0.822143  -0.528739  2.951835
H    -3.383474  -1.000862  2.566998
H    -3.254936  -2.181105  3.859016
H    -1.593828  -2.171980  1.259169
H    -3.122865  -3.028023  1.483952
H    -2.062378  -4.428887  3.322367
H    -0.493423  -3.658347  2.973756
H    -2.108089  -5.245116  1.029907
H    -0.653394  -4.524706  0.690898
H    -0.731377  -5.753253  1.805870
N    -0.094606  1.843921  4.411894
C    0.997069  2.645092  4.949718
H    -0.270460  1.790560  3.352407
H    1.665166  2.919744  4.128433
H    1.576339  2.071952  5.686635
H    0.619083  3.574172  5.402131
Sr    -0.952556  1.962647  8.510209
