35
Energy: -105404.602551 eV PBE+vdW (tier 2 basis)
C    0.209144  -1.457513  0.591023
C    0.062436  -0.244022  1.453889
O    1.098144  0.500464  1.689576
H    0.943869  -2.142842  1.038089
H    0.576911  -1.165055  -0.402949
H    -0.728543  -2.007466  0.459717
N    -1.125989  0.028353  1.955368
C    -1.558638  1.110121  2.853341
C    -2.696584  0.491301  3.692606
O    -3.526867  -0.233864  3.103316
H    -1.887819  -0.627075  1.749529
H    -0.706615  1.399487  3.482233
C    -2.074592  2.357419  2.082164
C    -3.189957  2.125096  1.027738
C    -4.528358  2.849639  1.270294
C    -5.407151  2.410989  2.438650
N    -5.885715  0.974500  2.313534
H    -1.203621  2.817222  1.595764
H    -2.395936  3.083989  2.843861
H    -3.367925  1.050654  0.877623
H    -2.823248  2.484527  0.058124
H    -5.123466  2.794406  0.344896
H    -4.344105  3.924634  1.418687
H    -6.301971  3.042264  2.489449
H    -4.900144  2.472541  3.410415
H    -5.094193  0.321094  2.541847
H    -6.238321  0.774107  1.368005
H    -6.655270  0.781492  2.968131
N    -2.743186  0.803244  4.988748
C    -3.772614  0.323787  5.915210
H    -2.010361  1.392794  5.373203
H    -3.299772  0.034548  6.859620
H    -4.266148  -0.549136  5.478885
H    -4.510868  1.110297  6.120310
Sr    3.239329  1.061285  1.577128
