35
Energy: -105404.441853 eV PBE+vdW (tier 2 basis)
C    -0.968008  1.232009  -0.081417
C    -0.674137  0.826534  1.329272
O    0.498760  0.700453  1.763750
H    -0.447979  2.174727  -0.298123
H    -2.034835  1.347428  -0.299401
H    -0.553433  0.479767  -0.767490
N    -1.730741  0.617336  2.153822
C    -1.699690  0.049958  3.515416
C    -1.198670  1.051906  4.565029
O    -1.837282  1.177705  5.685451
H    -2.655440  0.764142  1.759317
H    -2.757705  -0.103088  3.760186
C    -1.025768  -1.363287  3.611933
C    0.479599  -1.477941  3.937232
C    1.175134  -2.684693  3.277332
C    1.347253  -2.647494  1.760300
N    2.214423  -1.490453  1.288558
H    -1.263999  -1.842788  2.651887
H    -1.589875  -1.937090  4.359625
H    0.609607  -1.583079  5.023206
H    1.014338  -0.562157  3.662985
H    0.622740  -3.610832  3.497447
H    2.161873  -2.825485  3.745376
H    0.397964  -2.546404  1.219034
H    1.831184  -3.567480  1.412124
H    2.460150  -1.599844  0.295290
H    3.100151  -1.447493  1.810595
H    1.708308  -0.576465  1.396370
N    -0.123777  1.754656  4.302923
C    0.478874  2.761278  5.175222
H    0.325353  1.537520  3.391744
H    -0.230798  3.574977  5.374235
H    1.348775  3.184967  4.666316
H    0.811930  2.310313  6.119159
Sr    -2.943597  1.577152  7.551633
