35
Energy: -105404.742413 eV PBE+vdW (tier 2 basis)
C    0.165949  -0.286869  0.081554
C    0.093487  -0.245894  1.572479
O    1.190580  -0.295934  2.264818
H    1.037442  -0.870576  -0.233159
H    0.291729  0.735457  -0.309570
H    -0.726946  -0.717899  -0.381774
N    -1.061233  -0.139482  2.208865
C    -2.427573  -0.056495  1.632809
C    -3.241862  0.931041  2.519389
O    -3.718669  0.522013  3.594437
H    -1.021037  -0.146468  3.230864
H    -2.339170  0.339963  0.613500
C    -3.112457  -1.432858  1.640882
C    -4.577372  -1.363425  1.161214
C    -5.521695  -2.403846  1.790352
C    -5.650128  -2.406880  3.312558
N    -6.027264  -1.049858  3.881852
H    -3.054541  -1.811792  2.671078
H    -2.536346  -2.131192  1.017944
H    -4.616220  -1.493043  0.071397
H    -4.985263  -0.354208  1.334338
H    -5.205408  -3.420938  1.513868
H    -6.519456  -2.281503  1.342314
H    -4.720381  -2.687692  3.821758
H    -6.427146  -3.114080  3.625342
H    -5.225517  -0.372980  3.791972
H    -6.852969  -0.659712  3.408466
H    -6.261325  -1.125326  4.880622
N    -3.369788  2.179861  2.060176
C    -4.101951  3.240855  2.755668
H    -2.981515  2.404773  1.148604
H    -3.523862  4.170148  2.711556
H    -4.245674  2.948001  3.798880
H    -5.077310  3.409471  2.281148
Sr    3.274813  -0.390414  2.985162
