35
Energy: -105404.338878 eV PBE+vdW (tier 2 basis)
C    0.271378  -0.751777  1.737715
C    -0.570240  -1.210133  2.878134
O    -0.043607  -2.058720  3.712693
H    -0.246199  -0.083445  1.051143
H    0.612711  -1.622021  1.165169
H    1.154763  -0.237984  2.148004
N    -1.767022  -0.717754  3.183729
C    -2.771897  -0.119910  2.286654
C    -3.070287  -1.199168  1.191495
O    -2.178081  -1.978359  0.857813
H    -2.152198  -1.093293  4.049217
H    -3.656939  -0.013522  2.923842
C    -2.403937  1.305246  1.743158
C    -2.456048  1.524886  0.218253
C    -1.862699  2.884841  -0.212217
C    -2.758191  4.119569  -0.082649
N    -3.643131  4.328151  -1.310119
H    -1.392748  1.546581  2.097741
H    -3.062383  2.023243  2.251014
H    -3.487401  1.412242  -0.153203
H    -1.885344  0.736168  -0.293088
H    -1.494636  2.816145  -1.248261
H    -0.962415  3.094232  0.384298
H    -2.164640  5.037420  -0.000806
H    -3.437887  4.077745  0.777334
H    -4.255063  3.521706  -1.495593
H    -3.073710  4.481276  -2.155858
H    -4.248841  5.155270  -1.198910
N    -4.309276  -1.206089  0.662005
C    -5.492242  -0.473974  1.112506
H    -4.451214  -1.938488  -0.031493
H    -5.295887  0.601682  1.208789
H    -5.876709  -0.856542  2.068490
H    -6.279002  -0.599488  0.362577
Sr    1.071350  -3.673046  4.673426
