35
Energy: -105404.521169 eV PBE+vdW (tier 2 basis)
C    0.216009  1.214039  1.410164
C    0.191013  -0.231044  1.792225
O    1.267275  -0.799982  2.239868
H    -0.223496  1.382062  0.418584
H    1.242945  1.588497  1.402735
H    -0.360112  1.814157  2.130966
N    -0.919812  -0.945573  1.690233
C    -2.244412  -0.486759  1.198565
C    -3.357080  -1.036002  2.143347
O    -4.031796  -2.027635  1.823860
H    -0.845626  -1.930484  1.949036
H    -2.247292  0.606399  1.282377
C    -2.503697  -0.857500  -0.273084
C    -2.349877  -2.343543  -0.662154
C    -3.297144  -2.808231  -1.786442
C    -4.797325  -2.703057  -1.518395
N    -5.217271  -3.436684  -0.259460
H    -3.522101  -0.497607  -0.479063
H    -1.850243  -0.239844  -0.905642
H    -2.490012  -2.988191  0.216800
H    -1.323712  -2.528362  -1.009167
H    -3.048012  -3.847657  -2.048910
H    -3.112549  -2.226589  -2.702192
H    -5.137659  -1.668966  -1.384607
H    -5.365662  -3.132317  -2.351618
H    -6.238615  -3.410837  -0.140992
H    -4.942062  -4.426996  -0.289152
H    -4.778535  -2.983744  0.582276
N    -3.561277  -0.389360  3.302285
C    -2.925384  0.826832  3.804111
H    -4.316020  -0.784066  3.862813
H    -1.861175  0.668614  4.026982
H    -3.418950  1.107161  4.739108
H    -3.044681  1.667490  3.107180
Sr    3.315979  -1.276386  2.926611
