35
Energy: -105404.468116 eV PBE+vdW (tier 2 basis)
C    -0.835524  1.637591  0.501745
C    -0.894021  0.250461  1.057707
O    -0.330798  -0.721031  0.417846
H    0.213606  1.957569  0.418928
H    -1.363708  2.374069  1.117053
H    -1.273872  1.655106  -0.506299
N    -1.525663  0.056155  2.208449
C    -1.648222  -1.171715  3.014308
C    -2.999687  -1.917086  2.858592
O    -3.044806  -3.100301  3.231473
H    -1.864393  0.909015  2.655500
H    -0.889444  -1.878302  2.655256
C    -1.344289  -0.791523  4.489398
C    -1.407631  -1.949395  5.505227
C    -2.747793  -2.076085  6.262856
C    -3.015468  -3.480616  6.795275
N    -3.572600  -4.382405  5.694643
H    -2.030839  0.014186  4.799251
H    -0.335700  -0.355663  4.496589
H    -0.611863  -1.794906  6.245457
H    -1.155304  -2.890230  4.994724
H    -3.601296  -1.754276  5.644956
H    -2.744419  -1.393902  7.123928
H    -3.749923  -3.485933  7.607716
H    -2.099842  -3.956603  7.166053
H    -3.299757  -5.364344  5.826127
H    -3.265986  -4.056330  4.746526
H    -4.599803  -4.356656  5.692986
N    -4.049994  -1.253293  2.354881
C    -5.384950  -1.841094  2.212765
H    -3.942534  -0.279865  2.091583
H    -5.888706  -1.384818  1.355155
H    -5.990052  -1.663134  3.111594
H    -5.288088  -2.918002  2.047199
Sr    0.869762  -1.706939  -1.165904
