35
Energy: -105404.374860 eV PBE+vdW (tier 2 basis)
C    0.720481  1.622819  1.118995
C    0.558718  0.573737  2.168770
O    1.589574  -0.092695  2.593875
H    0.265958  2.573110  1.431607
H    0.222435  1.315828  0.186239
H    1.778394  1.791738  0.902485
N    -0.636092  0.311664  2.681816
C    -1.929204  0.929872  2.306207
C    -2.274379  2.267024  3.031368
O    -3.311471  2.818312  2.679071
H    -0.672624  -0.422980  3.390383
H    -1.849893  1.199974  1.244389
C    -3.096081  -0.082756  2.495909
C    -4.021696  -0.276661  1.274753
C    -4.826726  0.938153  0.775882
C    -5.947580  1.455076  1.674582
N    -7.234320  0.643124  1.526430
H    -3.673340  0.212300  3.382478
H    -2.671833  -1.071724  2.726629
H    -4.693277  -1.117532  1.515010
H    -3.418887  -0.641083  0.429068
H    -5.234276  0.706740  -0.221613
H    -4.160811  1.797198  0.624016
H    -6.219873  2.483484  1.412560
H    -5.692229  1.439947  2.739876
H    -7.978969  1.006856  2.138822
H    -7.101039  -0.349471  1.762683
H    -7.589304  0.682702  0.559817
N    -1.430739  2.737332  3.971718
C    -1.699671  3.969280  4.720598
H    -0.658932  2.157742  4.278560
H    -0.759231  4.500114  4.900806
H    -2.182802  3.748727  5.681084
H    -2.364709  4.600267  4.124731
Sr    3.577317  -0.996608  2.901775
