35
Energy: -105404.299076 eV PBE+vdW (tier 2 basis)
C    -0.971594  0.216189  -0.042302
C    -0.595003  0.041057  1.396450
O    0.506988  -0.449459  1.747528
H    -1.896124  0.783765  -0.192618
H    -1.103251  -0.774109  -0.502985
H    -0.149294  0.710800  -0.574346
N    -1.492447  0.449908  2.328930
C    -1.481887  0.195908  3.781332
C    -0.402825  0.977348  4.538824
O    -0.711602  1.556295  5.657562
H    -2.348129  0.865951  1.972950
H    -2.420569  0.651383  4.118232
C    -1.585470  -1.324565  4.192978
C    -0.405223  -2.106494  4.806344
C    0.788970  -2.533423  3.933699
C    0.423658  -3.410350  2.730301
N    1.397676  -3.169869  1.593526
H    -1.991305  -1.838852  3.310947
H    -2.394712  -1.376345  4.933373
H    -0.852670  -3.009783  5.247958
H    0.001734  -1.554944  5.668693
H    1.494437  -3.079614  4.575386
H    1.320356  -1.645571  3.573539
H    -0.563342  -3.173836  2.316580
H    0.444612  -4.480610  2.964595
H    1.191208  -3.762331  0.777161
H    2.369201  -3.366702  1.871365
H    1.323502  -2.166826  1.314419
N    0.807028  1.036024  4.042906
C    1.937543  1.757626  4.623509
H    0.930809  0.505206  3.150731
H    2.801623  1.636840  3.964665
H    2.192362  1.354961  5.612541
H    1.714427  2.829960  4.699948
Sr    -1.215764  2.721764  7.459323
