35
Energy: -105404.235886 eV PBE+vdW (tier 2 basis)
C    -0.019454  -1.173366  0.701053
C    -0.153905  -0.640824  2.094919
O    0.777949  -0.606552  2.912173
H    0.363617  -2.201549  0.751568
H    0.731434  -0.583299  0.158244
H    -0.954923  -1.166661  0.131408
N    -1.395474  -0.181478  2.474439
C    -1.562916  0.432903  3.790215
C    -2.947881  0.076148  4.331420
O    -3.862475  0.977250  4.522003
H    -2.116735  -0.091217  1.765316
H    -0.844889  -0.115072  4.424447
C    -1.166626  1.926449  3.848945
C    -0.345173  2.329762  5.090483
C    1.022699  1.634609  5.252972
C    2.057466  2.006108  4.180143
N    2.954432  0.827572  3.863435
H    -2.060682  2.564288  3.777367
H    -0.600772  2.138503  2.932343
H    -0.923256  2.130393  6.006599
H    -0.200526  3.420003  5.066648
H    0.884224  0.543416  5.252481
H    1.422243  1.886131  6.244436
H    2.699505  2.836668  4.494119
H    1.596143  2.278611  3.223904
H    3.697739  1.083187  3.199059
H    2.365639  0.073713  3.436103
H    3.416205  0.456841  4.705058
N    -3.224535  -1.182915  4.612600
C    -2.361370  -2.365183  4.489492
H    -4.174769  -1.368119  4.934322
H    -2.676458  -3.094083  5.242670
H    -1.313206  -2.104348  4.662597
H    -2.467520  -2.809467  3.491841
Sr    -5.465900  2.447185  4.896525
