35
Energy: -105403.674316 eV PBE+vdW (tier 2 basis)
C    0.166234  1.786880  -0.708542
C    0.435416  1.039686  0.566808
O    1.551857  0.996864  1.075795
H    -0.887653  2.019933  -0.893797
H    0.521596  1.151770  -1.536785
H    0.765155  2.703164  -0.747353
N    -0.602188  0.277000  1.141315
C    -1.898420  0.865241  1.516843
C    -2.967408  0.594179  0.440627
O    -4.159251  1.082863  0.539156
H    -0.216202  -0.329665  1.864931
H    -2.262700  0.259868  2.366928
C    -1.788469  2.331821  2.016978
C    -1.395441  2.484701  3.506331
C    -0.097763  1.853082  4.078562
C    1.163965  2.702687  4.251348
N    1.959812  2.973663  2.982264
H    -2.764930  2.822594  1.897753
H    -1.106925  2.882230  1.353370
H    -2.226739  2.070436  4.096368
H    -1.403812  3.561323  3.735601
H    0.171437  0.909752  3.584012
H    -0.331270  1.554726  5.111019
H    1.855952  2.173222  4.916738
H    0.948506  3.678721  4.703681
H    1.570007  3.753582  2.440087
H    1.987239  2.138611  2.346636
H    2.928920  3.233824  3.213628
N    -2.641243  -0.224753  -0.531013
C    -3.513958  -0.702996  -1.600039
H    -1.679643  -0.577022  -0.467789
H    -4.309394  -1.343469  -1.194156
H    -2.919517  -1.301366  -2.296339
H    -3.942611  0.142050  -2.154517
Sr    -6.314745  1.578231  0.503891
