35
Energy: -105404.665846 eV PBE+vdW (tier 2 basis)
C    -0.467255  0.332479  -0.173998
C    -0.358097  0.347373  1.320375
O    0.743738  0.466570  1.892946
H    0.240819  -0.405205  -0.572511
H    -0.146906  1.309991  -0.560577
H    -1.472065  0.110435  -0.548565
N    -1.527064  0.245344  2.024946
C    -1.714731  0.106027  3.478743
C    -1.101303  1.250326  4.305731
O    -1.847465  1.836733  5.202273
H    -2.376383  0.174102  1.473380
H    -2.794661  0.234240  3.625735
C    -1.401189  -1.317373  4.040670
C    -0.010736  -1.924490  3.795243
C    0.056425  -3.394787  4.261226
C    1.412165  -4.016015  3.930142
N    1.475104  -5.486927  4.323884
H    -2.160913  -1.975502  3.591939
H    -1.621730  -1.299632  5.120710
H    0.768060  -1.339615  4.306866
H    0.228778  -1.883695  2.724623
H    -0.742573  -3.968944  3.764142
H    -0.129663  -3.458532  5.345533
H    2.237562  -3.526203  4.461505
H    1.628703  -3.984649  2.855008
H    2.393888  -5.896309  4.096479
H    0.762707  -6.044915  3.830445
H    1.323031  -5.621018  5.334159
N    0.137620  1.598394  4.105436
C    0.832689  2.674031  4.801608
H    0.585842  1.101474  3.246806
H    0.813618  2.515342  5.888245
H    0.391254  3.651252  4.556272
H    1.875424  2.684652  4.471775
Sr    -2.955043  3.179273  6.514717
