35
Energy: -105405.035302 eV PBE+vdW (tier 2 basis)
C    0.485976  0.152655  1.018676
C    0.069193  -0.510229  2.292135
O    0.285095  -1.748241  2.450251
H    -0.347253  0.162301  0.297980
H    1.295492  -0.436719  0.573593
H    0.821775  1.182984  1.162788
N    -0.509980  0.178352  3.320384
C    -1.693875  1.047085  3.197846
C    -2.884170  0.142588  2.736200
O    -2.646140  -1.019828  2.266216
H    -0.549893  -0.404337  4.158361
H    -1.920069  1.363166  4.227919
C    -1.526179  2.315369  2.329355
C    -0.466308  3.337781  2.798252
C    -0.859601  4.155866  4.047719
C    -0.265485  5.562285  4.148266
N    1.231250  5.598789  4.446160
H    -2.500634  2.820493  2.289166
H    -1.316846  2.029312  1.292196
H    -0.324651  4.026030  1.950572
H    0.499981  2.832308  2.952213
H    -0.663151  3.601157  4.979092
H    -1.946516  4.335091  4.036220
H    -0.736334  6.125503  4.962810
H    -0.398771  6.130369  3.218729
H    1.561173  6.573975  4.519605
H    1.792064  5.147882  3.710244
H    1.455564  5.138312  5.340312
N    -4.133569  0.559858  2.857305
C    -4.667724  1.793977  3.442184
H    -4.831055  -0.094067  2.497592
H    -4.889914  2.530768  2.659436
H    -3.971031  2.217054  4.171705
H    -5.599847  1.549346  3.962955
Sr    -1.573769  -3.092883  2.079212
