35
Energy: -105404.387630 eV PBE+vdW (tier 2 basis)
C    -0.177113  0.468892  0.946609
C    -0.195088  -0.315320  2.210556
O    0.804288  -0.198694  3.037859
H    -0.256988  1.538694  1.192347
H    -0.975296  0.191357  0.251286
H    0.788651  0.320117  0.444804
N    -1.184600  -1.128324  2.548894
C    -2.472810  -1.455433  1.863365
C    -2.213165  -2.072167  0.452015
O    -2.311203  -1.358731  -0.548458
H    -1.057264  -1.587895  3.450385
H    -2.909753  -2.224262  2.514370
C    -3.438864  -0.258913  1.791615
C    -4.931809  -0.648761  1.721420
C    -5.437844  -1.418153  0.484739
C    -5.486369  -0.661169  -0.840687
N    -6.704381  0.256653  -0.933232
H    -3.154301  0.372566  0.939097
H    -3.305171  0.342534  2.701706
H    -5.510310  0.279918  1.856552
H    -5.181908  -1.252033  2.607138
H    -6.438826  -1.821528  0.708566
H    -4.825097  -2.311102  0.301221
H    -5.578276  -1.349620  -1.688370
H    -4.604086  -0.033456  -1.011243
H    -7.581457  -0.280555  -0.865300
H    -6.725497  0.760754  -1.831701
H    -6.720324  0.962775  -0.184752
N    -1.901708  -3.383674  0.399671
C    -1.796742  -4.346550  1.494721
H    -1.742759  -3.729384  -0.545207
H    -2.743990  -4.459574  2.039180
H    -1.548242  -5.322217  1.067109
H    -0.994857  -4.085206  2.199253
Sr    2.671946  0.306178  4.077495
