35
Energy: -105404.160479 eV PBE+vdW (tier 2 basis)
C    -0.178565  -0.684765  0.444254
C    -0.296829  -0.490140  1.916035
O    0.681870  -0.922670  2.665043
H    0.644899  -0.062970  0.062655
H    -1.082952  -0.435748  -0.109193
H    0.082938  -1.732401  0.244481
N    -1.316527  0.090508  2.524415
C    -2.596113  0.760706  2.128024
C    -3.846851  -0.039979  2.614988
O    -4.681938  0.588121  3.258418
H    -1.205324  0.107131  3.540205
H    -2.615788  1.629397  2.799908
C    -2.714651  1.306353  0.690485
C    -3.648327  2.535022  0.556236
C    -5.168368  2.279424  0.582253
C    -5.921562  3.584777  0.335277
N    -7.429263  3.389166  0.428241
H    -3.025587  0.523275  -0.015914
H    -1.720694  1.651578  0.373230
H    -3.388325  3.012153  -0.400350
H    -3.386353  3.264929  1.338178
H    -5.464169  1.860861  1.555405
H    -5.434655  1.544508  -0.194945
H    -5.731456  4.001105  -0.662082
H    -5.673834  4.350221  1.081580
H    -7.932702  4.274175  0.266936
H    -7.708458  3.040890  1.357072
H    -7.769724  2.712305  -0.269770
N    -3.997126  -1.352433  2.308278
C    -3.207233  -2.224911  1.451411
H    -4.848237  -1.745651  2.706272
H    -3.813669  -3.101475  1.203159
H    -2.294379  -2.587976  1.947277
H    -2.943373  -1.740833  0.503485
Sr    2.531236  -1.659536  3.587179
