35
Energy: -105404.395604 eV PBE+vdW (tier 2 basis)
C    1.457069  -0.166859  1.108458
C    0.608713  0.799689  1.884932
O    1.075981  1.569149  2.724878
H    0.956239  -0.615049  0.242927
H    1.767004  -0.975541  1.787475
H    2.371922  0.338579  0.778078
N    -0.749242  0.766438  1.578953
C    -1.892498  1.307323  2.328448
C    -2.908992  1.920918  1.354839
O    -4.160696  1.965057  1.674271
H    -0.992694  -0.029435  0.992309
H    -2.422047  0.463107  2.801996
C    -1.567763  2.308434  3.473299
C    -0.966528  3.664469  3.072766
C    -0.368838  4.462187  4.251494
C    0.800093  3.858643  5.031989
N    2.046557  3.650272  4.194483
H    -0.910568  1.768100  4.163659
H    -2.509250  2.468764  4.021430
H    -1.743323  4.302875  2.624250
H    -0.205055  3.526188  2.293915
H    -1.149980  4.653286  5.003513
H    -0.078615  5.459185  3.885487
H    0.568956  2.877750  5.464020
H    1.077490  4.528033  5.854696
H    2.844044  3.383656  4.787548
H    2.317685  4.505487  3.691888
H    1.884513  2.875953  3.506828
N    -2.473468  2.405549  0.215696
C    -3.270625  3.059444  -0.823125
H    -1.471451  2.279135  0.055431
H    -2.590761  3.511264  -1.550739
H    -3.891614  3.851131  -0.387509
H    -3.898546  2.326493  -1.347102
Sr    -6.330893  1.815491  2.056374
