35
Energy: -105404.954124 eV PBE+vdW (tier 2 basis)
C    0.222038  -0.392618  1.102431
C    -1.170861  -0.800698  1.444697
O    -1.703965  -1.776487  0.836370
H    0.695552  0.212827  1.876946
H    0.247147  0.138848  0.139753
H    0.804041  -1.314148  0.962038
N    -1.878990  -0.201423  2.441168
C    -2.165426  1.234799  2.595983
C    -3.077805  1.646755  1.398926
O    -3.211354  0.863091  0.402231
H    -2.686271  -0.771199  2.699894
H    -2.816699  1.267238  3.482687
C    -0.974073  2.184378  2.948990
C    -0.275780  2.986158  1.835745
C    0.597513  4.155958  2.351356
C    1.878756  3.732119  3.072080
N    2.727157  4.942651  3.442518
H    -0.263302  1.566456  3.515878
H    -1.371818  2.900985  3.680996
H    -1.028855  3.440517  1.175558
H    0.331787  2.340121  1.187971
H    -0.005332  4.796268  3.015936
H    0.866878  4.773500  1.480494
H    2.518070  3.102013  2.440713
H    1.689981  3.203533  4.014434
H    3.003082  5.485944  2.610360
H    2.226137  5.586298  4.073344
H    3.595588  4.661803  3.923446
N    -3.762240  2.779274  1.448444
C    -3.850321  3.764513  2.531818
H    -4.336518  2.963671  0.624770
H    -4.814308  4.275610  2.447026
H    -3.053345  4.514465  2.451464
H    -3.811643  3.277374  3.512025
Sr    -3.421048  -1.241292  -0.627561
