35
Energy: -105405.708877 eV PBE+vdW (tier 2 basis)
C    -0.783201  0.471093  -0.710218
C    -0.384960  0.624065  0.721232
O    0.758031  0.244520  1.115380
H    -1.778589  0.865547  -0.939032
H    -0.754770  -0.597752  -0.968656
H    -0.043070  0.968948  -1.351334
N    -1.276948  1.173927  1.565562
C    -1.229703  1.321868  3.039624
C    -0.050559  2.216579  3.483789
O    1.134476  1.760304  3.539757
H    -2.160215  1.442681  1.139267
H    -2.153035  1.866883  3.269915
C    -1.291849  -0.030223  3.789766
C    -1.868297  0.073375  5.216602
C    -1.938999  -1.306666  5.899566
C    -2.424962  -1.335489  7.350298
N    -3.944099  -1.283104  7.495470
H    -0.294482  -0.491962  3.818573
H    -1.925309  -0.698044  3.188327
H    -2.869921  0.532222  5.157983
H    -1.251040  0.747676  5.831978
H    -0.928963  -1.742617  5.928963
H    -2.533021  -2.010270  5.292928
H    -2.034572  -0.499761  7.944618
H    -2.125566  -2.269434  7.840125
H    -4.217568  -1.328133  8.489500
H    -4.396201  -2.080700  7.023973
H    -4.353035  -0.421273  7.109784
N    -0.293119  3.474372  3.825723
C    -1.559776  4.221684  3.800680
H    0.531253  3.992769  4.132858
H    -1.337021  5.263113  4.049826
H    -2.264537  3.837931  4.548382
H    -2.012689  4.203611  2.802771
Sr    2.678590  0.604924  2.265793
