35
Energy: -105405.756323 eV PBE+vdW (tier 2 basis)
C    -2.252707  -4.445977  -0.194274
C    -1.456748  -3.607643  0.748894
O    -0.190253  -3.639798  0.744167
H    -2.000208  -5.504798  -0.043442
H    -1.959409  -4.197589  -1.224318
H    -3.335125  -4.319739  -0.088114
N    -2.112086  -2.805676  1.610878
C    -1.463277  -1.874810  2.547967
C    -0.711465  -2.661247  3.659529
O    0.535785  -2.854525  3.485109
H    -3.128346  -2.836577  1.595166
H    -0.642450  -1.392988  1.996080
C    -2.424125  -0.770442  3.036173
C    -2.659443  0.383256  2.037232
C    -3.480663  1.511386  2.697028
C    -3.579925  2.839532  1.944328
N    -4.648446  2.864426  0.853476
H    -1.991973  -0.348694  3.956291
H    -3.388705  -1.207125  3.333496
H    -3.156806  0.004074  1.129618
H    -1.686527  0.788398  1.717006
H    -3.005522  1.771910  3.655287
H    -4.488799  1.158134  2.969911
H    -2.639234  3.119580  1.453828
H    -3.857930  3.648497  2.630110
H    -4.687965  3.792605  0.404454
H    -5.585750  2.678581  1.239990
H    -4.474932  2.176259  0.108868
N    -1.299308  -3.142767  4.743695
C    -2.705752  -3.139107  5.160711
H    -0.650321  -3.598025  5.388083
H    -2.855769  -3.988797  5.834135
H    -3.372505  -3.269375  4.303362
H    -2.956298  -2.219801  5.704023
Sr    1.854219  -3.702721  1.792357
