35
Energy: -105404.457663 eV PBE+vdW (tier 2 basis)
C    0.747632  0.401605  0.311100
C    0.453872  0.544724  1.770883
O    1.371425  1.004795  2.564019
H    1.599387  -0.279439  0.170094
H    1.022109  1.378175  -0.112595
H    -0.098369  0.004246  -0.259037
N    -0.738148  0.192901  2.211712
C    -1.256893  0.156794  3.584429
C    -2.257952  -1.021547  3.585293
O    -2.919352  -1.217159  2.541378
H    -1.396037  -0.235425  1.548893
H    -0.408300  -0.043090  4.251159
C    -1.951550  1.482945  4.039889
C    -3.487017  1.639015  3.927362
C    -4.119052  2.246781  2.658763
C    -4.265408  1.424817  1.381275
N    -5.069984  0.155711  1.584030
H    -1.446235  2.323094  3.540048
H    -1.707916  1.581440  5.106536
H    -3.762451  2.330784  4.735449
H    -3.985611  0.698743  4.211340
H    -3.569875  3.157124  2.372692
H    -5.121178  2.609790  2.937607
H    -3.307408  1.098554  0.959944
H    -4.784264  2.017176  0.618385
H    -4.459758  -0.551606  2.065413
H    -5.919202  0.326481  2.139113
H    -5.371009  -0.245498  0.685942
N    -2.380383  -1.725287  4.706409
C    -3.322855  -2.833872  4.892468
H    -1.787798  -1.483909  5.496107
H    -2.813476  -3.653574  5.409926
H    -3.664517  -3.179963  3.913648
H    -4.181162  -2.511346  5.495512
Sr    3.380016  1.725696  3.159612
