35
Energy: -105403.454200 eV PBE+vdW (tier 2 basis)
C    -0.438388  1.114713  0.159386
C    -0.170009  0.556964  1.532791
O    0.953367  0.389574  1.975538
H    -1.421146  0.882726  -0.265657
H    0.343008  0.773160  -0.527061
H    -0.346436  2.209706  0.219021
N    -1.258572  0.298150  2.399667
C    -2.512564  -0.356675  2.034337
C    -3.636158  0.271111  2.874776
O    -4.270879  -0.397318  3.793193
H    -0.889825  0.004882  3.306136
H    -2.743804  -0.079507  0.993850
C    -2.391942  -1.893798  2.112984
C    -1.582084  -2.473581  0.917840
C    -0.470114  -3.501587  1.233812
C    0.876834  -2.852881  1.553070
N    1.992579  -3.888107  1.634784
H    -3.391531  -2.352270  2.117188
H    -1.921975  -2.154565  3.074563
H    -1.135825  -1.657278  0.331639
H    -2.288695  -2.956273  0.232090
H    -0.351309  -4.139166  0.343917
H    -0.782117  -4.170391  2.051557
H    0.894534  -2.308105  2.504589
H    1.186723  -2.150848  0.769638
H    2.899880  -3.441230  1.836347
H    2.096837  -4.401995  0.746841
H    1.824006  -4.587578  2.371962
N    -3.958085  1.535040  2.678148
C    -3.392471  2.485833  1.711455
H    -4.666491  1.915540  3.303943
H    -4.023163  3.378905  1.711606
H    -3.393256  2.059879  0.702214
H    -2.371096  2.757860  2.001560
Sr    -5.624244  -1.302428  5.271751
