35
Energy: -105403.970518 eV PBE+vdW (tier 2 basis)
C    1.093280  -2.229612  0.939018
C    0.827159  -1.340324  2.114317
O    1.726644  -0.807951  2.781072
H    0.188066  -2.613481  0.456139
H    1.706613  -3.077206  1.274597
H    1.691267  -1.682122  0.198653
N    -0.485815  -1.117425  2.458361
C    -0.779204  -0.369761  3.680993
C    -2.192989  -0.662725  4.151099
O    -3.217149  -0.405718  3.391856
H    -1.207023  -1.644575  1.980403
H    -0.085946  -0.744096  4.445140
C    -0.523532  1.164725  3.538788
C    -0.024822  1.851010  4.823580
C    1.322045  1.388352  5.421522
C    2.623894  1.975323  4.875258
N    3.011512  1.496627  3.480262
H    -1.440823  1.665225  3.193717
H    0.192968  1.277561  2.716528
H    -0.790104  1.734978  5.607665
H    0.011846  2.935139  4.637528
H    1.407876  0.290898  5.438882
H    1.326003  1.688487  6.479924
H    3.449276  1.679967  5.532670
H    2.602421  3.071405  4.842667
H    4.034118  1.440093  3.386883
H    2.691085  2.146879  2.753927
H    2.604470  0.550696  3.252153
N    -2.393431  -1.156803  5.355344
C    -1.400604  -1.566474  6.367444
H    -3.369011  -1.287862  5.624345
H    -1.936111  -2.099223  7.158521
H    -0.909559  -0.690227  6.806300
H    -0.659395  -2.245139  5.932156
Sr    -5.064252  0.094521  2.273502
