35
Energy: -105405.180227 eV PBE+vdW (tier 2 basis)
C    -0.327296  0.487273  0.905295
C    -0.657893  0.266353  2.344160
O    0.122719  0.672990  3.254459
H    0.724717  0.764561  0.794963
H    -0.934400  1.329116  0.535202
H    -0.554227  -0.375317  0.267493
N    -1.816920  -0.348476  2.713316
C    -2.296769  -1.605343  2.121001
C    -1.119925  -2.635188  2.196975
O    -0.090869  -2.373285  2.896227
H    -1.985647  -0.271395  3.715860
H    -3.032552  -1.982656  2.849117
C    -3.028574  -1.459638  0.751256
C    -4.484013  -1.977213  0.739871
C    -5.133210  -1.794570  -0.646170
C    -6.519004  -2.409171  -0.851407
N    -7.661592  -1.577911  -0.272695
H    -2.453797  -1.950906  -0.048487
H    -3.036102  -0.391966  0.498004
H    -5.053515  -1.443009  1.518370
H    -4.514515  -3.044897  1.014783
H    -4.497314  -2.276226  -1.405050
H    -5.150644  -0.729060  -0.929301
H    -6.611716  -3.405463  -0.400951
H    -6.745058  -2.498109  -1.920488
H    -8.570996  -2.025413  -0.466461
H    -7.694754  -0.637181  -0.692855
H    -7.594490  -1.462155  0.747536
N    -1.248561  -3.791260  1.572045
C    -0.269598  -4.886120  1.629953
H    -2.089544  -3.949980  1.025074
H    -0.657456  -5.726926  1.049402
H    -0.118358  -5.205597  2.667549
H    0.686177  -4.565300  1.199402
Sr    1.367932  -1.051186  4.186804
