35
Energy: -105404.743610 eV PBE+vdW (tier 2 basis)
C    0.507204  0.127995  0.081497
C    0.167327  0.692484  1.419804
O    1.116851  1.254561  2.115443
H    1.318215  -0.605150  0.191836
H    0.882278  0.930357  -0.569881
H    -0.335753  -0.357978  -0.415788
N    -1.043198  0.650338  1.924600
C    -2.325525  0.294099  1.295079
C    -3.324613  1.206018  2.076702
O    -2.974267  1.624090  3.188100
H    -1.262630  1.120797  2.832190
H    -2.297233  0.580213  0.235261
C    -2.693651  -1.207958  1.400960
C    -3.013372  -1.733113  2.810751
C    -3.230980  -3.261317  2.854542
C    -4.596532  -3.789689  2.412049
N    -5.627971  -3.749672  3.538067
H    -1.864116  -1.792151  0.972534
H    -3.547333  -1.366593  0.724204
H    -3.880615  -1.194078  3.227263
H    -2.180733  -1.497766  3.488717
H    -3.011429  -3.640297  3.865392
H    -2.488007  -3.754128  2.210064
H    -4.540057  -4.842840  2.113308
H    -5.034860  -3.224487  1.580273
H    -5.336867  -4.344462  4.328103
H    -6.544750  -4.097239  3.218921
H    -5.769805  -2.799112  3.906380
N    -4.509678  1.435517  1.497254
C    -5.543180  2.289548  2.090392
H    -4.648522  1.130423  0.538280
H    -5.530801  3.285996  1.630884
H    -5.346445  2.388210  3.161178
H    -6.528268  1.837671  1.932941
Sr    2.801483  2.339701  2.974914
