35
Energy: -105404.563560 eV PBE+vdW (tier 2 basis)
C    -2.329278  1.213296  -1.409978
C    -1.557008  1.063394  -0.136655
O    -0.322926  0.667644  -0.182364
H    -2.368473  0.247570  -1.934539
H    -1.827250  1.938955  -2.066056
H    -3.358440  1.553167  -1.253232
N    -2.167018  1.338439  1.000505
C    -1.683119  1.294573  2.395124
C    -2.910466  0.830399  3.210840
O    -3.940421  1.531109  3.142546
H    -3.138429  1.655242  0.933322
H    -0.849027  0.583399  2.455268
C    -1.244804  2.713211  2.832564
C    -0.840746  2.895487  4.307919
C    -1.945292  2.984139  5.384063
C    -2.982612  4.106885  5.185056
N    -4.381696  3.555555  4.982523
H    -2.055212  3.406941  2.561309
H    -0.389589  2.995335  2.201974
H    -0.252335  3.823304  4.356321
H    -0.140940  2.100625  4.608420
H    -1.440520  3.149596  6.344391
H    -2.459274  2.019171  5.505966
H    -2.769599  4.724468  4.304334
H    -3.032674  4.777595  6.049349
H    -5.042498  4.293231  4.703794
H    -4.745627  3.143759  5.851883
H    -4.372634  2.801460  4.246588
N    -2.792475  -0.285784  3.932385
C    -3.865214  -0.851018  4.754797
H    -1.904663  -0.778903  3.920956
H    -3.889365  -1.937567  4.619935
H    -4.820382  -0.425968  4.434695
H    -3.695708  -0.632747  5.817529
Sr    1.526879  0.020330  -1.219076
