35
Energy: -105404.732709 eV PBE+vdW (tier 2 basis)
C    0.486248  -1.829014  0.889693
C    0.206224  -0.474864  1.447754
O    1.209576  0.254999  1.848330
H    -0.415897  -2.397692  0.651143
H    1.081967  -2.403457  1.612079
H    1.089537  -1.730697  -0.024330
N    -1.007097  0.015769  1.548370
C    -2.304084  -0.499628  1.072902
C    -3.070135  0.819435  0.759772
O    -2.858661  1.784489  1.502542
H    -1.155328  0.972121  1.924537
H    -2.153328  -1.105362  0.169417
C    -3.001681  -1.333841  2.179514
C    -4.409626  -1.857479  1.812522
C    -5.590198  -0.944495  2.215504
C    -6.128940  -1.133127  3.632949
N    -7.033841  -2.357900  3.753954
H    -3.038633  -0.722235  3.094101
H    -2.344908  -2.186110  2.403799
H    -4.524059  -2.853626  2.268943
H    -4.464905  -2.052573  0.732037
H    -6.419048  -1.056341  1.498857
H    -5.299965  0.112787  2.142008
H    -6.749285  -0.284048  3.942594
H    -5.335734  -1.268483  4.379174
H    -7.376087  -2.476421  4.719172
H    -6.551792  -3.229026  3.491415
H    -7.862195  -2.270542  3.146720
N    -3.921906  0.799129  -0.276400
C    -4.717244  1.958930  -0.686670
H    -3.940432  -0.020484  -0.875381
H    -4.340626  2.365638  -1.633257
H    -4.641251  2.725457  0.089074
H    -5.765345  1.666714  -0.818002
Sr    3.038880  1.347239  2.316788
