35
Energy: -105405.651418 eV PBE+vdW (tier 2 basis)
C    -1.729258  1.699998  0.079809
C    -1.424017  1.253224  1.471663
O    -0.234300  1.266989  1.906857
H    -2.794753  1.675634  -0.170935
H    -1.182300  1.054203  -0.622908
H    -1.347999  2.719490  -0.068781
N    -2.449926  0.839117  2.238806
C    -2.431406  0.224293  3.587403
C    -1.829701  1.193285  4.632790
O    -0.572359  1.307147  4.771155
H    -3.362251  0.870039  1.790846
H    -3.494140  0.107227  3.829907
C    -1.769000  -1.173910  3.605115
C    -2.209881  -2.105160  4.758636
C    -3.591565  -2.755822  4.549899
C    -4.068750  -3.703033  5.654055
N    -3.410879  -5.079865  5.610143
H    -0.678336  -1.055536  3.638328
H    -1.993709  -1.652094  2.640893
H    -2.191968  -1.565972  5.719857
H    -1.435049  -2.882770  4.844383
H    -3.628673  -3.273390  3.576962
H    -4.373340  -1.983027  4.489201
H    -5.143859  -3.897160  5.562749
H    -3.877220  -3.309478  6.660374
H    -3.783338  -5.685372  6.358199
H    -2.390412  -5.038795  5.737640
H    -3.594761  -5.560046  4.716552
N    -2.649315  1.902977  5.396457
C    -4.118024  1.966813  5.376996
H    -2.179066  2.502985  6.075774
H    -4.491565  2.241329  4.383761
H    -4.427838  2.745876  6.079460
H    -4.563982  1.020022  5.706018
Sr    1.321094  1.704931  3.500975
