35
Energy: -105405.728203 eV PBE+vdW (tier 2 basis)
C    -0.635673  -0.181672  0.123227
C    -0.694611  -0.508599  1.580704
O    0.073628  -1.386688  2.073990
H    -1.353803  0.583195  -0.190191
H    -0.813881  -1.101424  -0.452022
H    0.377501  0.156574  -0.134723
N    -1.589501  0.156904  2.336014
C    -1.921017  -0.004105  3.770396
C    -0.732891  0.363453  4.690484
O    0.296389  -0.374159  4.767914
H    -2.110840  0.878866  1.846115
H    -2.697205  0.753793  3.943843
C    -2.520723  -1.393315  4.141368
C    -4.062860  -1.449806  4.226380
C    -4.817845  -1.406801  2.886674
C    -6.344249  -1.336026  2.986541
N    -6.998536  -2.627684  3.469671
H    -2.132913  -1.675892  5.129799
H    -2.147340  -2.150672  3.438023
H    -4.415675  -0.633788  4.878313
H    -4.302540  -2.381394  4.763650
H    -4.522985  -2.253992  2.245829
H    -4.542152  -0.504661  2.318534
H    -6.790557  -1.135555  2.005391
H    -6.679579  -0.554481  3.680220
H    -8.025368  -2.526760  3.490856
H    -6.704508  -2.890692  4.420561
H    -6.787953  -3.420688  2.845902
N    -0.861420  1.457289  5.424699
C    0.119724  1.951612  6.396106
H    -1.699401  2.020735  5.302048
H    -0.415258  2.357256  7.261128
H    0.727307  2.748190  5.947174
H    0.764195  1.129406  6.715807
Sr    1.658087  -1.848427  3.655390
