35
Energy: -105404.463131 eV PBE+vdW (tier 2 basis)
C    0.683473  -0.025401  0.865779
C    0.167472  -0.310197  2.238484
O    0.995104  -0.648878  3.178590
H    1.680993  -0.455982  0.740078
H    0.764805  1.062614  0.713695
H    0.031110  -0.422352  0.079476
N    -1.121916  -0.206898  2.525656
C    -2.231801  0.151212  1.607026
C    -3.187679  1.180057  2.287826
O    -4.362868  0.872262  2.537370
H    -1.383568  -0.438180  3.485166
H    -1.778756  0.656883  0.744409
C    -3.004696  -1.079756  1.104275
C    -3.543570  -2.054322  2.176401
C    -4.853705  -2.771021  1.770540
C    -6.144276  -2.184989  2.337446
N    -6.452652  -0.786159  1.837081
H    -2.362106  -1.629004  0.401146
H    -3.819901  -0.676996  0.486972
H    -3.708898  -1.535049  3.132219
H    -2.780495  -2.819695  2.371360
H    -4.831990  -3.805917  2.139098
H    -4.923335  -2.862721  0.674964
H    -6.102969  -2.108753  3.431431
H    -7.003787  -2.812703  2.073837
H    -6.613965  -0.778968  0.821816
H    -5.663930  -0.122050  2.061111
H    -7.308551  -0.422406  2.277193
N    -2.708101  2.403374  2.568906
C    -1.421773  2.993605  2.209991
H    -3.398725  3.021099  2.994759
H    -1.174098  2.808936  1.156278
H    -0.608732  2.634397  2.856176
H    -1.495688  4.077381  2.339318
Sr    2.774117  -1.201186  4.374284
