35
Energy: -105404.310092 eV PBE+vdW (tier 2 basis)
C    0.543633  -0.895078  0.449245
C    0.231716  0.123769  1.508066
O    1.083920  0.912918  1.947323
H    1.096823  -0.408198  -0.363296
H    -0.336466  -1.400827  0.036954
H    1.210086  -1.658863  0.875888
N    -1.065577  0.135389  1.960294
C    -1.657444  0.868449  3.083410
C    -2.658098  1.947504  2.629240
O    -3.829275  1.968250  3.198301
H    -1.665296  -0.573027  1.547572
H    -2.288237  0.139050  3.615458
C    -0.672367  1.458161  4.128427
C    0.175763  0.386121  4.838254
C    1.431228  0.955882  5.550860
C    2.776648  0.430770  5.053847
N    3.196355  1.016138  3.715834
H    -1.280332  1.995390  4.873104
H    -0.031389  2.205624  3.650581
H    0.479524  -0.385620  4.118623
H    -0.449884  -0.136350  5.574550
H    1.395018  0.697210  6.617385
H    1.432789  2.057613  5.530894
H    2.764897  -0.658875  4.925155
H    3.577452  0.676457  5.761418
H    2.457297  0.899665  2.973235
H    3.391475  2.022140  3.801733
H    4.063254  0.574738  3.380775
N    -2.387267  2.849320  1.711538
C    -1.159576  3.082402  0.939216
H    -3.155059  3.485906  1.494220
H    -1.256433  2.628644  -0.055616
H    -0.284921  2.673689  1.449445
H    -1.038805  4.164818  0.822638
Sr    -5.849972  2.022569  4.084302
