35
Energy: -105405.965766 eV PBE+vdW (tier 2 basis)
C    2.277002  -0.162402  0.256136
C    1.703557  -0.706041  1.522423
O    2.456650  -1.113141  2.455384
H    2.980628  -0.886540  -0.174869
H    2.861550  0.737619  0.499181
H    1.521982  0.097061  -0.493220
N    0.363173  -0.740555  1.655142
C    -0.374347  -1.080177  2.881696
C    -0.419055  -2.618510  3.082109
O    0.639126  -3.195113  3.479490
H    -0.177680  -0.428565  0.853923
H    0.258427  -0.744729  3.717778
C    -1.689316  -0.268841  3.010035
C    -2.690592  -0.200901  1.835770
C    -3.882825  0.716879  2.193252
C    -4.873293  0.862722  1.037006
N    -6.031923  1.782237  1.399825
H    -1.378461  0.760044  3.244448
H    -2.200312  -0.629270  3.915804
H    -3.076071  -1.193641  1.551059
H    -2.204338  0.200061  0.931595
H    -3.496167  1.709066  2.476141
H    -4.400317  0.313088  3.078083
H    -5.327719  -0.094449  0.752000
H    -4.409469  1.302848  0.145308
H    -5.710653  2.732885  1.637161
H    -6.567526  1.429821  2.207319
H    -6.694169  1.873922  0.613878
N    -1.536362  -3.289468  2.861331
C    -1.710513  -4.736030  3.031844
H    -2.344821  -2.763130  2.544868
H    -1.730402  -5.230824  2.052375
H    -2.657104  -4.924099  3.549881
H    -0.884029  -5.131997  3.625558
Sr    2.909368  -2.888831  3.822285
