35
Energy: -105404.018009 eV PBE+vdW (tier 2 basis)
C    0.338828  -0.640219  0.289375
C    0.013241  -0.698106  1.752456
O    0.708562  -1.270586  2.591164
H    1.287754  -0.103444  0.155817
H    -0.433360  -0.156719  -0.318808
H    0.501739  -1.662103  -0.076857
N    -1.158720  -0.066069  2.155444
C    -1.460244  -0.011558  3.579008
C    -2.942877  -0.331782  3.757603
O    -3.805444  0.573981  4.117908
H    -1.644117  0.536286  1.497842
H    -0.900442  -0.876841  3.976867
C    -0.937976  1.245433  4.305877
C    -0.431127  1.020216  5.752773
C    1.101689  0.891451  5.928164
C    1.689260  -0.460115  5.527128
N    3.196036  -0.485849  5.755355
H    -1.711256  2.028207  4.298683
H    -0.124186  1.648247  3.688228
H    -0.932248  0.151703  6.211514
H    -0.726941  1.881967  6.364700
H    1.329372  1.080071  6.988964
H    1.590268  1.697976  5.357410
H    1.535701  -0.707385  4.467688
H    1.284447  -1.277008  6.138506
H    3.597766  -1.398228  5.493721
H    3.440476  -0.313896  6.742096
H    3.678283  0.230508  5.193286
N    -3.374352  -1.554713  3.514376
C    -2.611831  -2.723736  3.057837
H    -4.381014  -1.696050  3.595604
H    -3.115316  -3.622801  3.426081
H    -1.587902  -2.701944  3.441436
H    -2.584523  -2.747697  1.960821
Sr    -5.357941  2.034639  4.649470
