35
Energy: -105404.558177 eV PBE+vdW (tier 2 basis)
C    -0.577044  0.073255  -0.050666
C    -0.452975  0.330097  1.419481
O    0.641316  0.249175  2.030866
H    -0.240577  -0.949232  -0.272452
H    0.103997  0.747256  -0.587908
H    -1.592330  0.197530  -0.441573
N    -1.582908  0.669347  2.093478
C    -1.696315  0.815745  3.552755
C    -1.188782  2.196078  4.007927
O    -1.936596  2.976200  4.719344
H    -2.445500  0.727251  1.560437
H    -2.772788  0.793236  3.762888
C    -1.002265  -0.301584  4.393642
C    -1.194003  -1.727064  3.853314
C    -0.189284  -2.756180  4.406665
C    1.301104  -2.494645  4.189442
N    1.686142  -2.326929  2.726839
H    -1.407927  -0.233555  5.414004
H    0.065087  -0.066576  4.471188
H    -1.146208  -1.725784  2.754712
H    -2.204586  -2.087789  4.089582
H    -0.446241  -3.743975  3.994542
H    -0.312475  -2.861660  5.495244
H    1.886678  -3.338414  4.573039
H    1.659660  -1.588320  4.692043
H    2.709576  -2.340830  2.618070
H    1.341177  -1.412895  2.341102
H    1.315308  -3.095753  2.152059
N    0.030572  2.535128  3.659802
C    0.697593  3.797832  3.973649
H    0.538426  1.822818  3.103138
H    1.691767  3.787198  3.518964
H    0.813661  3.916977  5.058898
H    0.138136  4.645502  3.556602
Sr    -3.143497  4.414608  5.878746
