35
Energy: -105404.590535 eV PBE+vdW (tier 2 basis)
C    -0.737311  0.855348  0.413274
C    -0.203748  0.390601  1.721417
O    0.942333  0.853708  2.133373
H    0.037593  0.725375  -0.354722
H    -0.954892  1.931878  0.479711
H    -1.632669  0.313093  0.094726
N    -0.833781  -0.474763  2.500853
C    -2.170253  -1.141167  2.377796
C    -2.246849  -2.037226  1.103234
O    -2.732868  -1.588230  0.061529
H    -0.338730  -0.688152  3.366623
H    -2.204528  -1.787795  3.266182
C    -3.334279  -0.139820  2.458613
C    -4.687095  -0.750270  2.882031
C    -5.468358  -1.638037  1.889802
C    -5.930024  -0.891323  0.642404
N    -6.909663  -1.731158  -0.167953
H    -3.420118  0.388850  1.499565
H    -3.073563  0.612791  3.216079
H    -5.336297  0.087669  3.176135
H    -4.544936  -1.335350  3.802914
H    -6.348106  -2.014004  2.436368
H    -4.883097  -2.522253  1.595443
H    -5.097432  -0.662097  -0.033437
H    -6.464689  0.034424  0.890601
H    -7.235177  -1.228814  -1.006662
H    -7.744179  -1.977998  0.384666
H    -6.480480  -2.612072  -0.485093
N    -1.757718  -3.283410  1.248931
C    -1.724400  -4.271960  0.171485
H    -1.447519  -3.584074  2.167720
H    -0.747007  -4.766766  0.154064
H    -1.892390  -3.759827  -0.779697
H    -2.500891  -5.034148  0.317566
Sr    2.861114  1.878288  2.426344
