35
Energy: -105404.213455 eV PBE+vdW (tier 2 basis)
C    -0.398496  0.431090  -0.330089
C    -0.239381  -0.027324  1.093327
O    0.803422  -0.552780  1.513919
H    -1.268586  1.074911  -0.500855
H    -0.498694  -0.450153  -0.981346
H    0.510170  0.960351  -0.640529
N    -1.334070  0.159490  1.899627
C    -1.591652  -0.280022  3.273460
C    -1.569574  0.887346  4.284487
O    -2.591479  1.012747  5.082879
H    -2.130484  0.588317  1.437428
H    -2.646504  -0.594492  3.281480
C    -0.780787  -1.473819  3.854423
C    -1.109438  -2.872232  3.283533
C    -0.385207  -3.339480  2.007933
C    1.129731  -3.537384  2.193161
N    1.902638  -3.019172  0.999606
H    -1.039254  -1.497764  4.924580
H    0.292135  -1.257603  3.811058
H    -2.192739  -2.952190  3.106603
H    -0.896558  -3.598320  4.082271
H    -0.576382  -2.638879  1.184879
H    -0.835794  -4.291159  1.696739
H    1.397167  -4.591236  2.327537
H    1.521486  -2.979220  3.051207
H    2.917355  -3.139839  1.120447
H    1.687510  -1.995659  0.902946
H    1.640615  -3.505454  0.132001
N    -0.578823  1.743630  4.394655
C    0.698270  1.824751  3.674788
H    -0.719174  2.473920  5.094064
H    1.473886  2.098522  4.398491
H    0.639576  2.607871  2.907770
H    0.954787  0.870194  3.210677
Sr    -4.294674  1.295675  6.457704
