35
Energy: -105404.609042 eV PBE+vdW (tier 2 basis)
C    -0.699209  -1.906646  0.672943
C    -0.330144  -0.655426  1.396080
O    0.928544  -0.437460  1.658327
H    -0.311597  -2.773323  1.226047
H    -0.219611  -1.912645  -0.316426
H    -1.776114  -2.033495  0.537887
N    -1.215787  0.235756  1.776249
C    -2.647240  0.358380  1.446673
C    -2.842515  1.903472  1.466514
O    -2.065283  2.566330  2.167736
H    -0.914113  1.126050  2.226857
H    -2.819489  -0.042078  0.439882
C    -3.577689  -0.385696  2.444171
C    -3.641401  0.151487  3.892338
C    -4.693846  1.249561  4.160391
C    -6.133758  0.777453  4.361282
N    -6.383300  0.239306  5.768880
H    -3.251806  -1.435409  2.461667
H    -4.580857  -0.405384  1.992405
H    -2.659735  0.543005  4.192168
H    -3.811349  -0.709117  4.559272
H    -4.721601  1.962864  3.325469
H    -4.388055  1.857731  5.026259
H    -6.425741  -0.028947  3.676419
H    -6.845574  1.602242  4.240213
H    -7.357452  -0.079733  5.879953
H    -6.218787  0.967500  6.479543
H    -5.773026  -0.557452  5.997454
N    -3.855305  2.436091  0.764167
C    -4.713576  1.781707  -0.226561
H    -3.890338  3.453719  0.809524
H    -5.514114  2.476798  -0.495895
H    -5.185105  0.877671  0.176413
H    -4.162693  1.530275  -1.143123
Sr    3.093607  -0.195097  1.779832
