35
Energy: -105405.849163 eV PBE+vdW (tier 2 basis)
C    -1.098116  0.933242  -0.030599
C    -0.876666  0.440142  1.363480
O    0.152670  -0.242956  1.645059
H    -1.087535  0.073787  -0.715565
H    -0.258896  1.578484  -0.325835
H    -2.032580  1.488369  -0.162779
N    -1.802264  0.751253  2.290336
C    -1.900740  0.351052  3.712444
C    -0.719390  0.861671  4.569059
O    0.452692  0.393676  4.438778
H    -2.560757  1.339113  1.955257
H    -2.793521  0.883357  4.068995
C    -2.153880  -1.162806  3.929599
C    -3.611793  -1.592349  3.660210
C    -3.850505  -3.069487  4.035725
C    -5.302353  -3.514181  4.215796
N    -6.065855  -3.726774  2.910426
H    -1.909919  -1.390629  4.978673
H    -1.456696  -1.747750  3.312847
H    -3.866530  -1.405882  2.604219
H    -4.280732  -0.958063  4.264629
H    -3.387754  -3.263307  5.016081
H    -3.331855  -3.745565  3.336735
H    -5.892120  -2.792497  4.795149
H    -5.346285  -4.480424  4.732219
H    -7.026106  -4.053047  3.101309
H    -5.617275  -4.443479  2.321181
H    -6.146404  -2.866543  2.351840
N    -1.002879  1.776916  5.482805
C    -0.048714  2.348192  6.438280
H    -1.954651  2.133798  5.524559
H    0.334994  3.306204  6.063595
H    0.778997  1.651251  6.590430
H    -0.563822  2.519839  7.389014
Sr    1.996244  -0.457608  2.975050
