35
Energy: -105404.236697 eV PBE+vdW (tier 2 basis)
C    -1.820029  -2.816059  0.412924
C    -0.756879  -1.834845  0.781596
O    0.494786  -2.188715  0.754907
H    -2.450852  -2.431599  -0.401791
H    -2.491217  -3.010537  1.263591
H    -1.378663  -3.764943  0.097330
N    -1.078658  -0.599494  1.132090
C    -2.463886  -0.090342  1.253315
C    -3.233644  0.216064  -0.070952
O    -4.449629  0.134575  0.006496
H    -0.305150  0.029841  1.345887
H    -3.045157  -0.923572  1.665445
C    -2.618034  1.071579  2.265964
C    -2.475862  2.512599  1.742388
C    -3.088767  3.516667  2.741453
C    -3.091361  4.943839  2.200098
N    -3.793566  5.900211  3.156727
H    -1.952258  0.892874  3.124331
H    -3.638944  0.953115  2.654420
H    -3.007528  2.606098  0.783371
H    -1.422508  2.772569  1.552138
H    -2.541961  3.479059  3.697296
H    -4.125085  3.205719  2.951947
H    -3.632038  5.023137  1.248588
H    -2.080039  5.345040  2.059603
H    -3.796501  6.863988  2.790658
H    -3.335401  5.924456  4.079419
H    -4.776193  5.629061  3.310250
N    -2.582526  0.541262  -1.221393
C    -1.195017  0.920198  -1.454437
H    -3.230862  0.681016  -1.994718
H    -1.152894  1.519025  -2.370017
H    -0.536159  0.051255  -1.601132
H    -0.796629  1.548158  -0.646661
Sr    2.310862  -3.421547  0.661696
