35
Energy: -105404.803312 eV PBE+vdW (tier 2 basis)
C    -0.326241  -1.976714  1.113885
C    -0.166300  -0.635815  1.748322
O    1.004871  -0.310542  2.222520
H    -1.349107  -2.192086  0.795636
H    -0.010168  -2.753935  1.823254
H    0.334551  -2.048918  0.237944
N    -1.149976  0.227136  1.845572
C    -2.473199  0.226621  1.199454
C    -2.737443  1.753978  1.013344
O    -2.121326  2.537938  1.748371
H    -0.989081  1.185566  2.229534
H    -2.390657  -0.267496  0.222449
C    -3.592756  -0.467829  2.014633
C    -4.123400  0.275361  3.253481
C    -5.206132  -0.558345  3.963845
C    -5.795061  0.028271  5.244626
N    -6.811650  1.139262  4.989869
H    -3.235312  -1.467755  2.306287
H    -4.423631  -0.644600  1.314789
H    -4.518454  1.256276  2.941394
H    -3.302947  0.485787  3.956996
H    -4.777926  -1.527479  4.262256
H    -6.020883  -0.814651  3.265700
H    -5.031570  0.463439  5.901639
H    -6.340806  -0.735406  5.811091
H    -7.201053  1.493497  5.876437
H    -7.604052  0.798954  4.425695
H    -6.398671  1.941931  4.496187
N    -3.645171  2.097839  0.092142
C    -3.999589  3.485828  -0.216768
H    -4.027840  1.372782  -0.507910
H    -5.089355  3.590527  -0.259560
H    -3.575645  3.782140  -1.184261
H    -3.594557  4.132925  0.565494
Sr    3.101495  0.071119  2.680425
