35
Energy: -105404.358712 eV PBE+vdW (tier 2 basis)
C    0.637828  -1.338311  0.680223
C    0.433288  -0.845311  2.077850
O    1.226883  -1.252857  3.019811
H    0.546156  -2.433964  0.657903
H    1.648001  -1.076069  0.334900
H    -0.086572  -0.926388  -0.029842
N    -0.557547  -0.007429  2.310739
C    -1.027496  0.561190  3.579672
C    -2.546335  0.746976  3.370055
O    -2.933020  1.027371  2.211809
H    -1.198730  0.219157  1.539480
H    -0.817484  -0.169929  4.369122
C    -0.347743  1.922439  3.955762
C    -1.063236  3.260375  3.647036
C    -0.777741  4.006236  2.327824
C    -1.373856  3.528994  1.006448
N    -2.889809  3.481048  1.020719
H    0.664358  1.924712  3.524402
H    -0.205524  1.886376  5.044048
H    -0.733984  3.951681  4.435063
H    -2.146034  3.164172  3.824697
H    0.309849  4.061804  2.165522
H    -1.084788  5.054214  2.474155
H    -1.052492  2.520101  0.722287
H    -1.081658  4.214501  0.202213
H    -3.295017  4.321086  1.455109
H    -3.192509  2.621870  1.544408
H    -3.272138  3.419393  0.067618
N    -3.368880  0.655660  4.411763
C    -3.048103  0.320015  5.802660
H    -4.353318  0.794544  4.183068
H    -3.925626  0.543912  6.416076
H    -2.218674  0.928746  6.180343
H    -2.821447  -0.748397  5.914724
Sr    2.862258  -2.441856  3.925656
