35
Energy: -105404.535831 eV PBE+vdW (tier 2 basis)
C    0.697955  -1.230342  0.792309
C    0.257067  -0.098562  1.664840
O    1.133387  0.737981  2.119823
H    1.456790  -1.831633  1.313039
H    1.156660  -0.831520  -0.124468
H    -0.121611  -1.895003  0.498248
N    -1.033177  0.013626  1.952519
C    -1.725282  1.062442  2.724325
C    -2.667509  0.456569  3.818867
O    -3.721807  1.040425  4.104269
H    -1.633021  -0.683388  1.510919
H    -0.943973  1.625482  3.254322
C    -2.509427  2.027814  1.816069
C    -3.690463  1.396086  1.052133
C    -4.847275  2.363747  0.731690
C    -5.516247  3.073983  1.908019
N    -6.020103  2.115340  2.969422
H    -1.810286  2.504909  1.114856
H    -2.857429  2.825139  2.485390
H    -4.087551  0.536418  1.614681
H    -3.343405  0.983322  0.094185
H    -5.608987  1.816113  0.156512
H    -4.497625  3.161928  0.059743
H    -6.377716  3.654708  1.558249
H    -4.842981  3.763406  2.431620
H    -6.549455  2.616755  3.695140
H    -5.208372  1.634347  3.435985
H    -6.650794  1.406770  2.572066
N    -2.267726  -0.661624  4.437844
C    -3.038590  -1.283307  5.522053
H    -1.370693  -1.070104  4.202201
H    -2.540228  -2.210332  5.817062
H    -4.053647  -1.514094  5.179878
H    -3.100548  -0.609672  6.385140
Sr    3.124560  1.681700  2.407994
