35
Energy: -105403.676643 eV PBE+vdW (tier 2 basis)
C    -0.004145  0.537937  -0.069780
C    0.156192  0.020730  1.330293
O    1.258068  -0.252546  1.815870
H    -0.817929  1.263148  -0.189812
H    -0.192627  -0.298532  -0.761667
H    0.938588  1.003116  -0.375300
N    -0.969031  -0.161419  2.121795
C    -2.301666  -0.509818  1.649180
C    -3.378000  0.138875  2.546370
O    -4.445668  -0.516731  2.885841
H    -0.718524  -0.526566  3.039705
H    -2.443811  -0.012113  0.674111
C    -2.473322  -2.043997  1.422918
C    -1.638965  -2.962706  2.346543
C    -0.210534  -3.251811  1.809673
C    0.872936  -3.337737  2.896790
N    2.194953  -2.804111  2.386674
H    -2.207536  -2.252440  0.377599
H    -3.540217  -2.295800  1.498589
H    -2.171675  -3.915198  2.460726
H    -1.587781  -2.541475  3.364330
H    0.073452  -2.465923  1.098843
H    -0.223338  -4.181442  1.225488
H    1.039599  -4.360887  3.251942
H    0.630890  -2.715276  3.767272
H    2.931904  -2.869793  3.102473
H    2.064889  -1.791355  2.132174
H    2.530018  -3.317406  1.560197
N    -3.258906  1.388730  2.951327
C    -2.261461  2.419706  2.613973
H    -4.012027  1.711164  3.558587
H    -1.364058  2.314293  3.233026
H    -2.722557  3.392123  2.813012
H    -1.992958  2.369932  1.555700
Sr    -6.438246  -1.403229  3.251926
