35
Energy: -105405.830876 eV PBE+vdW (tier 2 basis)
C    -0.393272  0.010441  0.313196
C    -0.070051  -0.032856  1.772717
O    1.118563  -0.246782  2.159071
H    0.211380  0.788319  -0.173095
H    -1.450319  0.196793  0.096897
H    -0.096394  -0.945611  -0.141228
N    -1.079041  0.166352  2.639441
C    -1.123009  0.069234  4.116926
C    -0.196711  1.075219  4.835470
O    1.067670  1.019331  4.744089
H    -1.977876  0.356872  2.203978
H    -2.149796  0.379296  4.356084
C    -0.972808  -1.375967  4.661911
C    -2.146923  -2.273439  4.211941
C    -2.469231  -3.503877  5.090010
C    -1.523705  -4.692693  4.927465
N    -2.063519  -5.914472  5.663024
H    -0.961082  -1.297736  5.760340
H    -0.001010  -1.793329  4.362559
H    -2.007252  -2.591140  3.167749
H    -3.065406  -1.667061  4.215577
H    -3.485569  -3.827727  4.814976
H    -2.515982  -3.202831  6.148801
H    -0.523226  -4.511732  5.338982
H    -1.421453  -4.997715  3.878237
H    -2.176793  -5.737673  6.672478
H    -1.437566  -6.727837  5.563096
H    -2.987288  -6.195812  5.300084
N    -0.794411  1.976412  5.600277
C    -0.111199  2.981015  6.420755
H    -1.811546  1.997922  5.610645
H    -0.692261  3.142103  7.334459
H    -0.038118  3.930731  5.874644
H    0.888830  2.624777  6.680146
Sr    2.857368  0.560472  3.391297
