35
Energy: -105404.439135 eV PBE+vdW (tier 2 basis)
C    0.226229  1.399395  1.013792
C    0.066984  0.187037  1.863381
O    1.134196  -0.376531  2.347681
H    0.823735  2.142033  1.559748
H    -0.715958  1.860203  0.713017
H    0.787741  1.129136  0.107400
N    -1.104272  -0.366725  2.140027
C    -2.515198  0.001355  1.808813
C    -2.743857  0.570377  0.376466
O    -3.302987  1.666920  0.214767
H    -1.037064  -1.185618  2.746725
H    -3.029659  -0.972661  1.819887
C    -3.186501  0.859474  2.894288
C    -2.612305  2.265040  3.170306
C    -3.679524  3.282687  3.638456
C    -4.250165  4.196838  2.557088
N    -5.011908  3.460547  1.469535
H    -3.205855  0.280722  3.829300
H    -4.240903  0.915057  2.587872
H    -2.110802  2.669076  2.280472
H    -1.842123  2.187551  3.949154
H    -3.236319  3.965319  4.376744
H    -4.493227  2.772207  4.177474
H    -3.456269  4.751357  2.040754
H    -4.944385  4.925884  2.991728
H    -5.838800  2.982715  1.850394
H    -4.398930  2.748666  0.988772
H    -5.352539  4.118825  0.755891
N    -2.351614  -0.202456  -0.645549
C    -2.592727  0.149836  -2.049674
H    -2.029871  -1.145520  -0.450302
H    -2.399899  1.216599  -2.198781
H    -3.631583  -0.065080  -2.331758
H    -1.920752  -0.437735  -2.681576
Sr    3.139613  -1.068265  2.968588
