35
Energy: -105404.360019 eV PBE+vdW (tier 2 basis)
C    0.402915  -0.044841  0.042224
C    0.142691  -0.160607  1.517461
O    1.013067  -0.483470  2.338809
H    -0.503668  0.062555  -0.563451
H    0.966059  -0.924121  -0.293245
H    1.042996  0.830534  -0.142994
N    -1.132547  0.139317  1.935519
C    -1.498543  0.183268  3.353940
C    -2.926439  -0.366867  3.466100
O    -3.143063  -1.638248  3.394021
H    -1.762656  0.555003  1.254473
H    -0.849234  -0.560911  3.842083
C    -1.284413  1.542861  4.064826
C    0.191871  1.876217  4.384814
C    0.964593  2.596176  3.264586
C    2.483383  2.580446  3.408255
N    3.062276  1.165903  3.333151
H    -1.821547  1.502557  5.024821
H    -1.730503  2.363302  3.477059
H    0.688595  0.938921  4.678287
H    0.205423  2.513751  5.279304
H    0.672599  3.656564  3.244597
H    0.700969  2.207857  2.271547
H    2.821886  3.010635  4.358415
H    2.949531  3.150015  2.596794
H    2.434511  0.515537  2.795692
H    3.180713  0.757167  4.267615
H    3.992381  1.171332  2.895604
N    -3.929054  0.472551  3.617272
C    -5.347186  0.120335  3.724932
H    -3.689948  1.460346  3.696701
H    -5.932473  1.043355  3.760223
H    -5.533885  -0.443200  4.648583
H    -5.665593  -0.459709  2.849997
Sr    -3.579645  -3.799696  3.401852
