35
Energy: -105405.627974 eV PBE+vdW (tier 2 basis)
C    -1.064361  -0.001785  -0.334561
C    -0.906628  -0.238747  1.132023
O    0.166275  -0.731172  1.591924
H    -0.238193  0.625774  -0.695272
H    -2.015658  0.465360  -0.609579
H    -0.976912  -0.966504  -0.855891
N    -1.937742  0.087539  1.933388
C    -2.135414  -0.146001  3.383423
C    -1.057485  0.564996  4.232703
O    0.110153  0.077006  4.352386
H    -2.742142  0.483376  1.453592
H    -3.090026  0.350797  3.594859
C    -2.305466  -1.641151  3.743280
C    -2.944782  -1.866158  5.127781
C    -3.107119  -3.356824  5.506178
C    -4.340624  -4.093066  4.972208
N    -5.550898  -3.967112  5.895254
H    -1.332506  -2.151077  3.695473
H    -2.926783  -2.085844  2.951867
H    -3.915958  -1.344276  5.173839
H    -2.320985  -1.395039  5.901751
H    -3.070086  -3.464351  6.601515
H    -2.232690  -3.919989  5.149006
H    -4.155892  -5.170660  4.894030
H    -4.671165  -3.734842  3.989345
H    -5.355466  -4.370138  6.824280
H    -6.363867  -4.474551  5.512912
H    -5.842576  -2.990616  6.040212
N    -1.372618  1.689822  4.858794
C    -2.632287  2.449025  4.842835
H    -0.617993  2.080790  5.424895
H    -2.459929  3.390834  5.371613
H    -3.430353  1.907746  5.365589
H    -2.938831  2.689780  3.818619
Sr    1.870533  -0.724128  3.091933
