35
Energy: -105404.318908 eV PBE+vdW (tier 2 basis)
C    -0.576242  0.905804  -0.481747
C    -0.309080  -0.023059  0.655411
O    0.861064  -0.574659  0.786373
H    0.309224  1.006750  -1.114397
H    -0.873654  1.902312  -0.122648
H    -1.410405  0.543873  -1.101442
N    -1.254752  -0.293725  1.543098
C    -2.623892  0.268396  1.523606
C    -2.700247  1.774122  1.936783
O    -3.320771  2.517702  1.188446
H    -0.995185  -0.915438  2.309209
H    -2.931639  0.295730  0.471062
C    -3.642285  -0.614002  2.279381
C    -5.079663  -0.195046  1.906393
C    -6.221739  -1.038444  2.511649
C    -6.586253  -0.655475  3.944394
N    -7.876196  -1.342222  4.380029
H    -3.475660  -0.551327  3.365567
H    -3.482628  -1.663574  1.985142
H    -5.179538  -0.260322  0.813897
H    -5.240591  0.866838  2.144322
H    -5.982484  -2.112339  2.454147
H    -7.105726  -0.881318  1.873674
H    -6.774716  0.421028  4.043157
H    -5.827405  -0.946231  4.680928
H    -8.665050  -1.075379  3.771959
H    -8.135387  -1.089804  5.345136
H    -7.796699  -2.368786  4.340548
N    -2.126161  2.196189  3.094071
C    -1.356020  1.464244  4.089356
H    -2.247764  3.195938  3.245936
H    -1.342078  2.049347  5.014532
H    -0.309908  1.307360  3.783697
H    -1.810952  0.495882  4.334780
Sr    2.930641  -1.215019  0.421758
