35
Energy: -105404.245409 eV PBE+vdW (tier 2 basis)
C    1.322424  0.065142  1.005102
C    0.585607  0.124640  2.296686
O    1.266155  0.299821  3.395702
H    1.692957  -0.961593  0.853097
H    2.191500  0.730493  1.050383
H    0.702970  0.316750  0.138530
N    -0.725863  -0.015723  2.409175
C    -1.825860  -0.284630  1.431449
C    -1.357122  -1.004564  0.140483
O    -1.156088  -0.362736  -0.891314
H    -1.060023  0.055058  3.371909
H    -2.473675  -0.981288  1.983311
C    -2.692116  0.965182  1.155163
C    -2.061601  2.179607  0.429970
C    -2.527786  2.423173  -1.021436
C    -3.956171  2.953236  -1.116919
N    -4.338941  3.222264  -2.567626
H    -3.101479  1.287190  2.123827
H    -3.560502  0.581637  0.598789
H    -0.969382  2.081233  0.395783
H    -2.255825  3.084901  1.023590
H    -2.417994  1.488693  -1.591072
H    -1.846418  3.159448  -1.476309
H    -4.084889  3.907802  -0.590951
H    -4.706651  2.247995  -0.738403
H    -4.275968  2.368230  -3.140735
H    -3.716259  3.922304  -2.996983
H    -5.302736  3.578589  -2.647760
N    -1.196869  -2.345078  0.214770
C    -1.531215  -3.254394  1.311021
H    -0.955458  -2.767952  -0.680615
H    -2.616323  -3.336300  1.465688
H    -1.048162  -2.954365  2.249910
H    -1.156160  -4.249794  1.054851
Sr    2.802992  0.501359  4.948696
