35
Energy: -105404.591788 eV PBE+vdW (tier 2 basis)
C    0.631296  -0.128677  0.611502
C    0.254592  0.330552  1.979120
O    1.165203  0.508049  2.888036
H    1.715649  -0.224763  0.517827
H    0.170698  -1.102609  0.385997
H    0.267072  0.574006  -0.152056
N    -1.015119  0.562013  2.281334
C    -2.183069  0.340949  1.390994
C    -2.314136  1.373431  0.235790
O    -2.828105  0.988498  -0.809433
H    -1.207613  0.859343  3.239343
H    -2.027621  -0.620573  0.883296
C    -3.465337  0.247091  2.252833
C    -4.658216  -0.502742  1.617266
C    -5.553056  0.293990  0.647430
C    -6.727619  -0.570086  0.195216
N    -7.612645  0.161973  -0.805637
H    -3.771240  1.253796  2.579471
H    -3.199841  -0.312398  3.163136
H    -5.279387  -0.859607  2.451926
H    -4.284264  -1.406681  1.111928
H    -4.966943  0.614782  -0.225922
H    -5.930648  1.198019  1.152578
H    -7.385248  -0.857270  1.025481
H    -6.394915  -1.483666  -0.313559
H    -8.399311  -0.428843  -1.113271
H    -7.084511  0.434890  -1.647177
H    -8.014173  1.020377  -0.401765
N    -1.869710  2.630144  0.462130
C    -2.012848  3.703499  -0.523748
H    -1.564517  2.885330  1.394855
H    -1.162344  4.388180  -0.444851
H    -2.941800  4.267376  -0.366651
H    -2.032883  3.260566  -1.523688
Sr    3.019869  0.538393  4.072159
