35
Energy: -105404.653755 eV PBE+vdW (tier 2 basis)
C    -1.405462  -1.911460  0.120605
C    -0.760493  -1.333833  1.335449
O    0.323672  -1.898157  1.790621
H    -0.709821  -1.847603  -0.728592
H    -2.338925  -1.415828  -0.156954
H    -1.611652  -2.977160  0.290533
N    -1.234064  -0.282828  1.962508
C    -2.287927  0.667779  1.567783
C    -1.784783  1.987948  2.227589
O    -1.025137  1.882628  3.200730
H    -0.722876  0.134515  2.772045
H    -2.303590  0.755973  0.474443
C    -3.705080  0.276684  2.065456
C    -3.937056  0.341479  3.585045
C    -5.328347  -0.178044  4.008641
C    -6.507371  0.786413  3.873674
N    -6.621421  1.734162  5.066167
H    -3.917735  -0.742561  1.707067
H    -4.415566  0.929996  1.537422
H    -3.766807  1.367822  3.950336
H    -3.182870  -0.270310  4.099600
H    -5.288162  -0.549610  5.044895
H    -5.586933  -1.063932  3.409808
H    -7.462063  0.248573  3.842648
H    -6.448842  1.425607  2.984025
H    -7.415387  2.382527  4.955127
H    -5.774258  2.304014  5.196720
H    -6.777446  1.211591  5.940949
N    -2.230213  3.160084  1.749934
C    -2.940629  3.417948  0.494389
H    -1.834417  3.967618  2.229654
H    -3.811091  2.762616  0.377374
H    -2.281233  3.308891  -0.377456
H    -3.306635  4.448733  0.514313
Sr    2.231637  -2.863170  2.220093
