35
Energy: -105404.313071 eV PBE+vdW (tier 2 basis)
C    0.822148  -0.658265  0.082793
C    0.481828  -0.648448  1.541307
O    1.224471  -1.090789  2.425417
H    1.026621  -1.693713  -0.222782
H    1.750258  -0.093836  -0.080397
H    0.037310  -0.245253  -0.559992
N    -0.757473  -0.130343  1.889095
C    -1.085822  0.066185  3.298600
C    -2.575348  -0.193547  3.526003
O    -3.201251  0.307608  4.538213
H    -1.197993  0.478890  1.201484
H    -0.577173  -0.774133  3.808759
C    -0.535720  1.384989  3.909452
C    0.185198  1.235638  5.264632
C    1.419066  0.310298  5.294216
C    2.618253  0.819207  4.482164
N    3.422919  -0.340812  3.933404
H    -1.340454  2.127567  4.006474
H    0.150080  1.812196  3.165955
H    -0.519630  0.852017  6.020191
H    0.469289  2.241062  5.609416
H    1.138284  -0.687021  4.925392
H    1.724408  0.173639  6.340540
H    3.293937  1.438544  5.082763
H    2.318068  1.401101  3.603130
H    2.820425  -0.861278  3.252233
H    3.725469  -0.987092  4.674952
H    4.271546  -0.019850  3.447467
N    -3.197864  -0.989949  2.682095
C    -4.590020  -1.426461  2.773138
H    -2.624570  -1.345630  1.914329
H    -4.799296  -2.101820  1.938684
H    -5.271014  -0.568302  2.692889
H    -4.763757  -1.975226  3.708661
Sr    -4.584046  1.048179  6.090151
