35
Energy: -105404.528665 eV PBE+vdW (tier 2 basis)
C    -0.655295  0.056794  -0.810160
C    -0.089653  -0.674687  0.357818
O    1.126947  -1.023351  0.383839
H    -0.209443  1.058684  -0.897233
H    -1.745490  0.139793  -0.791825
H    -0.353794  -0.486470  -1.718248
N    -0.878085  -1.000907  1.421208
C    -1.727676  -0.023175  2.105202
C    -0.772593  1.020774  2.768743
O    0.479904  0.778701  2.810614
H    -0.400634  -1.628123  2.071027
H    -2.334843  0.501714  1.352354
C    -2.652408  -0.738652  3.119616
C    -3.664642  -1.695501  2.456765
C    -4.396061  -2.620439  3.458517
C    -5.682901  -2.096297  4.103981
N    -6.928125  -2.428415  3.283793
H    -3.168057  0.017436  3.727181
H    -2.018631  -1.302446  3.824343
H    -3.129879  -2.334420  1.740571
H    -4.382444  -1.114735  1.853358
H    -3.715089  -2.875100  4.283583
H    -4.605963  -3.587763  2.975878
H    -5.690977  -1.007610  4.239198
H    -5.856068  -2.560344  5.081798
H    -7.780838  -2.062692  3.734869
H    -7.050776  -3.448338  3.191600
H    -6.893808  -2.037544  2.331939
N    -1.245923  2.152210  3.262566
C    -2.613850  2.677832  3.258543
H    -0.543386  2.749733  3.701993
H    -2.570714  3.752055  3.047518
H    -3.084168  2.534623  4.239877
H    -3.216644  2.200188  2.481064
Sr    2.512622  -0.035114  1.975733
