35
Energy: -105405.177491 eV PBE+vdW (tier 2 basis)
C    -1.031887  0.457434  0.200885
C    -0.951899  0.347025  1.690173
O    -0.018417  0.935968  2.311733
H    -2.062069  0.515364  -0.161885
H    -0.547234  -0.408305  -0.277463
H    -0.485866  1.354968  -0.109346
N    -1.874632  -0.346718  2.416073
C    -2.289761  -1.734790  2.151493
C    -1.020020  -2.634177  2.316051
O    0.135258  -2.093153  2.351555
H    -1.766804  -0.158432  3.413935
H    -2.962197  -1.988252  2.986097
C    -3.073920  -1.981021  0.841502
C    -4.404654  -1.205887  0.754265
C    -5.122277  -1.473136  -0.583521
C    -6.363053  -0.630696  -0.884381
N    -7.624709  -1.097672  -0.161908
H    -3.280972  -3.057839  0.779945
H    -2.445553  -1.759548  -0.030738
H    -4.217063  -0.126219  0.860645
H    -5.039608  -1.490837  1.609760
H    -5.362061  -2.543619  -0.693830
H    -4.429483  -1.254534  -1.410944
H    -6.611431  -0.679855  -1.951133
H    -6.233618  0.424716  -0.613386
H    -7.864173  -2.069285  -0.409057
H    -7.539745  -1.046965  0.862274
H    -8.432715  -0.513050  -0.426682
N    -1.137781  -3.943703  2.459856
C    -2.337630  -4.781327  2.559719
H    -0.247935  -4.439112  2.537367
H    -3.194518  -4.201664  2.915332
H    -2.138577  -5.576206  3.286606
H    -2.569323  -5.245061  1.592365
Sr    1.729975  -0.469243  2.912661
