35
Energy: -105404.503386 eV PBE+vdW (tier 2 basis)
C    0.495559  0.510120  0.029539
C    0.504336  0.252434  1.505263
O    1.508858  0.377277  2.218007
H    -0.473380  0.331107  -0.448936
H    1.252840  -0.130938  -0.442710
H    0.800490  1.547667  -0.163312
N    -0.687708  -0.170456  2.068432
C    -0.823825  -0.303816  3.514930
C    -1.597907  -1.583669  3.849661
O    -2.172275  -1.747314  4.994656
H    -1.529958  -0.001063  1.520707
H    0.207740  -0.488309  3.872959
C    -1.358350  0.970448  4.208233
C    -0.458015  2.203557  4.004748
C    0.843334  2.215361  4.834160
C    1.918162  3.170224  4.297329
N    2.882381  2.473143  3.348529
H    -1.464827  0.768637  5.285217
H    -2.365341  1.193598  3.823735
H    -1.045796  3.094437  4.265459
H    -0.239263  2.314466  2.932723
H    1.277441  1.206820  4.924351
H    0.611916  2.528927  5.861277
H    2.530094  3.592004  5.101874
H    1.477167  4.007203  3.742428
H    2.398291  1.765890  2.735568
H    3.383049  3.149797  2.757634
H    3.597991  1.953847  3.873663
N    -1.626395  -2.541135  2.947081
C    -2.245507  -3.856064  3.101666
H    -1.139426  -2.330876  2.073730
H    -3.327375  -3.756996  3.263538
H    -1.778525  -4.410084  3.927160
H    -2.092725  -4.424508  2.179937
Sr    -3.311592  -2.296100  6.801902
