35
Energy: -105404.348459 eV PBE+vdW (tier 2 basis)
C    -0.691698  -0.136064  0.684335
C    -1.118134  -0.580050  2.039513
O    -0.649770  -1.714838  2.472077
H    0.390419  0.069035  0.720293
H    -1.214204  0.750617  0.330165
H    -0.865646  -0.941879  -0.037165
N    -1.802536  0.160373  2.911286
C    -2.858471  1.161484  2.661922
C    -3.781876  0.600980  1.523738
O    -3.463106  -0.420811  0.916042
H    -1.876865  -0.283873  3.824913
H    -3.458197  1.113244  3.583205
C    -2.415222  2.647671  2.580044
C    -1.761020  3.204355  1.306136
C    -1.339514  4.684507  1.465775
C    -2.423880  5.756276  1.327577
N    -2.605161  6.220912  -0.116290
H    -1.740372  2.818716  3.432564
H    -3.316195  3.235954  2.816429
H    -2.425917  3.066413  0.436640
H    -0.843661  2.645346  1.082475
H    -0.518087  4.913238  0.768337
H    -0.894671  4.820838  2.462479
H    -2.163187  6.662245  1.886759
H    -3.413696  5.424982  1.664909
H    -3.341851  6.938911  -0.189201
H    -2.862039  5.450816  -0.748862
H    -1.737244  6.641318  -0.480953
N    -4.914206  1.293535  1.302350
C    -5.939899  0.827028  0.362784
H    -5.180293  2.021733  1.956859
H    -6.591017  1.666889  0.103430
H    -6.546201  0.025562  0.804556
H    -5.456705  0.445017  -0.541386
Sr    0.005547  -3.786866  2.690728
