35
Energy: -105404.586983 eV PBE+vdW (tier 2 basis)
C    0.213419  -0.786222  0.527210
C    -0.873789  -1.278259  1.428220
O    -1.088931  -2.551060  1.547666
H    0.747132  -1.627936  0.078741
H    0.942194  -0.168414  1.071384
H    -0.198156  -0.165591  -0.282059
N    -1.630224  -0.430234  2.114676
C    -1.598953  1.050067  2.056373
C    -1.579468  1.701535  3.474511
O    -2.161598  2.778744  3.661024
H    -2.372649  -0.848695  2.677939
H    -0.643790  1.327607  1.589132
C    -2.735681  1.632552  1.199431
C    -4.172516  1.390885  1.712246
C    -5.161765  2.530843  1.376886
C    -5.366012  3.594000  2.454170
N    -4.137105  4.439839  2.729659
H    -2.631887  1.251945  0.173235
H    -2.514737  2.705431  1.126401
H    -4.176488  1.230279  2.802050
H    -4.559088  0.463496  1.268367
H    -6.161401  2.103956  1.215054
H    -4.896825  3.003165  0.417356
H    -5.640191  3.142060  3.415939
H    -6.167052  4.284533  2.164789
H    -3.856242  4.974522  1.897900
H    -3.325136  3.839501  3.042854
H    -4.327894  5.125199  3.472811
N    -0.883452  1.081940  4.437282
C    -0.708780  1.655188  5.777751
H    -0.331330  0.265846  4.199089
H    -1.679365  1.970065  6.174210
H    -0.040445  2.524798  5.744313
H    -0.279926  0.891649  6.432131
Sr    -1.048554  -4.759161  1.350575
