35
Energy: -105404.068655 eV PBE+vdW (tier 2 basis)
C    1.842010  3.930871  1.337729
C    1.127351  2.747391  1.920524
O    1.662636  1.646258  2.067508
H    2.811441  4.051287  1.837350
H    1.284700  4.872007  1.400557
H    2.060560  3.716683  0.281103
N    -0.190158  2.967968  2.305290
C    -1.177158  1.911209  2.569835
C    -2.435414  2.536738  3.170138
O    -3.592047  2.017304  2.925441
H    -0.576777  3.813856  1.889196
H    -1.500851  1.458678  1.615991
C    -0.715855  0.712238  3.467014
C    -0.246720  0.964668  4.913977
C    1.152721  1.551517  5.202297
C    2.354355  0.604854  5.253455
N    2.781566  0.026431  3.911199
H    0.027300  0.167242  2.877598
H    -1.593611  0.048671  3.516498
H    -0.331611  0.000430  5.439684
H    -0.980262  1.606999  5.425889
H    1.118108  1.967531  6.220541
H    1.381746  2.407540  4.554975
H    2.180014  -0.244154  5.925915
H    3.224253  1.153470  5.632512
H    2.296386  -0.853074  3.700115
H    3.787795  -0.185169  3.906330
H    2.563621  0.694218  3.127548
N    -2.313334  3.583588  3.957352
C    -3.397574  4.287141  4.647470
H    -1.358676  3.920159  4.094122
H    -2.964523  5.101106  5.235167
H    -3.926393  3.607377  5.327143
H    -4.097163  4.720674  3.921437
Sr    -5.591950  1.252907  2.364758
