35
Energy: -105403.539711 eV PBE+vdW (tier 2 basis)
C    -1.199047  -1.028615  0.685725
C    -0.330300  -0.953773  1.918235
O    0.266103  -1.912797  2.372173
H    -1.219518  -0.096085  0.106399
H    -2.232702  -1.286572  0.959056
H    -0.820272  -1.839513  0.055310
N    -0.194278  0.285546  2.570808
C    -1.227573  1.311162  2.666917
C    -0.556911  2.659268  2.345947
O    -0.634971  3.102958  1.125086
H    0.406149  0.179099  3.389248
H    -1.910405  1.158438  1.821036
C    -2.076945  1.244825  3.961467
C    -3.111736  0.093160  3.968598
C    -2.667099  -1.314487  4.437016
C    -2.644249  -1.468688  5.957489
N    -2.374263  -2.914958  6.355914
H    -2.627333  2.192954  4.061422
H    -1.423102  1.181393  4.842072
H    -3.533118  -0.010978  2.958094
H    -3.960861  0.412723  4.590066
H    -1.688059  -1.594345  4.020980
H    -3.394259  -2.033737  4.028259
H    -1.862132  -0.872768  6.443935
H    -3.608511  -1.207784  6.411796
H    -1.472914  -3.254358  5.988150
H    -3.105715  -3.546847  5.996742
H    -2.352022  -3.027757  7.380616
N    0.142298  3.365414  3.213292
C    0.444921  3.114911  4.630080
H    0.551869  4.219546  2.835845
H    -0.394040  3.418014  5.267447
H    0.695114  2.064360  4.800906
H    1.319568  3.717588  4.892452
Sr    -0.624662  3.861275  -0.939336
