35
Energy: -105404.754624 eV PBE+vdW (tier 2 basis)
C    -0.485440  -0.231532  -0.134091
C    -0.175347  0.231730  1.248666
O    1.038002  0.073224  1.702540
H    -0.223998  -1.294312  -0.229020
H    0.135939  0.320748  -0.853280
H    -1.535610  -0.102577  -0.407961
N    -1.062977  0.794104  2.031038
C    -2.453945  1.221937  1.797326
C    -2.560682  2.419617  2.798323
O    -1.851028  2.353508  3.811565
H    -0.799540  1.138708  2.982514
H    -2.576919  1.533602  0.753481
C    -3.428023  0.074530  2.175847
C    -4.933283  0.396305  2.115080
C    -5.761805  -0.800337  2.622898
C    -7.249886  -0.556087  2.862005
N    -8.081531  -0.517917  1.581152
H    -3.174379  -0.239980  3.199934
H    -3.206707  -0.782606  1.520952
H    -5.215535  0.667141  1.084105
H    -5.150827  1.270636  2.746839
H    -5.369800  -1.107394  3.604792
H    -5.625549  -1.680866  1.973376
H    -7.443274  0.393764  3.376347
H    -7.685876  -1.363670  3.461859
H    -9.079149  -0.368616  1.795736
H    -8.013279  -1.405782  1.062751
H    -7.791155  0.237056  0.945676
N    -3.399590  3.438121  2.556706
C    -4.193396  3.750077  1.373168
H    -3.386203  4.143739  3.293806
H    -3.902532  4.730415  0.976017
H    -5.262288  3.781903  1.621216
H    -4.038022  3.006030  0.587130
Sr    3.118999  -0.115245  2.313448
