35
Energy: -105405.543865 eV PBE+vdW (tier 2 basis)
C    -0.303610  0.682587  -0.640462
C    0.133797  0.508674  0.774314
O    1.363442  0.494622  1.078013
H    -0.100618  1.706199  -0.989411
H    -1.358372  0.446449  -0.806789
H    0.315801  0.021311  -1.263176
N    -0.783101  0.344412  1.768219
C    -1.930629  1.236892  1.926384
C    -1.369461  2.613579  2.431404
O    -0.114783  2.775146  2.570396
H    -0.348968  0.083150  2.655509
H    -2.358556  1.422139  0.928566
C    -3.014231  0.615475  2.834634
C    -3.684454  -0.628105  2.221607
C    -4.797347  -1.205933  3.121041
C    -5.457582  -2.423952  2.473844
N    -6.570948  -2.996693  3.341268
H    -3.782770  1.375585  3.038995
H    -2.568672  0.373327  3.813303
H    -2.925272  -1.401749  2.031742
H    -4.111238  -0.362113  1.241351
H    -4.375072  -1.487896  4.098963
H    -5.557893  -0.431166  3.310302
H    -4.747782  -3.245295  2.314597
H    -5.923511  -2.179376  1.511024
H    -7.007653  -3.816639  2.892762
H    -7.319902  -2.308759  3.509944
H    -6.223216  -3.303554  4.261820
N    -2.220277  3.593494  2.669707
C    -1.842421  4.943575  3.110126
H    -3.209722  3.419990  2.513029
H    -2.754487  5.494257  3.354223
H    -1.309731  5.472098  2.309935
H    -1.208355  4.885455  4.001427
Sr    2.161932  2.303747  2.301524
