35
Energy: -105403.783541 eV PBE+vdW (tier 2 basis)
C    0.191228  -0.651293  -0.005788
C    0.023264  -0.437824  1.473053
O    0.971521  -0.534685  2.256851
H    0.629032  0.270766  -0.419813
H    -0.721698  -0.872210  -0.568143
H    0.923951  -1.444775  -0.186564
N    -1.208928  -0.031237  1.981520
C    -2.491053  -0.597854  1.573085
C    -3.590061  0.484450  1.591079
O    -4.709032  0.288946  2.218828
H    -1.129678  0.171540  2.979213
H    -2.395402  -0.884907  0.513302
C    -2.851513  -1.872593  2.377719
C    -1.691267  -2.900153  2.475437
C    -0.882025  -2.792506  3.784200
C    0.383161  -3.642587  3.900492
N    1.530816  -3.146213  3.024769
H    -3.716870  -2.348199  1.893947
H    -3.166052  -1.587594  3.394640
H    -1.043612  -2.805481  1.589068
H    -2.115983  -3.910794  2.407455
H    -1.524163  -3.112285  4.618875
H    -0.610382  -1.750091  4.006087
H    0.215480  -4.695354  3.642712
H    0.752561  -3.605329  4.931213
H    2.439100  -3.339619  3.467491
H    1.466391  -2.111366  2.836386
H    1.546669  -3.617173  2.112489
N    -3.412780  1.625539  0.955885
C    -2.291607  2.069522  0.112860
H    -4.173346  2.298035  1.051521
H    -2.644085  2.915379  -0.484540
H    -1.977950  1.270875  -0.565632
H    -1.446693  2.389241  0.732843
Sr    -6.729977  0.045177  3.078250
