35
Energy: -105406.123089 eV PBE+vdW (tier 2 basis)
C    -0.410431  -2.092411  1.154856
C    -0.452381  -0.790275  1.881357
O    0.568851  -0.040835  1.938829
H    0.420136  -2.701782  1.535231
H    -0.194303  -1.891995  0.094739
H    -1.340680  -2.665627  1.224720
N    -1.605219  -0.419144  2.467495
C    -1.884011  0.891033  3.087448
C    -1.163022  0.980501  4.457333
O    0.049737  1.352361  4.484586
H    -2.383122  -1.071628  2.396590
H    -1.393980  1.654570  2.463847
C    -3.407574  1.134096  3.064479
C    -3.856970  2.562820  3.422334
C    -5.375898  2.750460  3.213773
C    -5.821168  4.181115  3.518169
N    -7.313371  4.371914  3.278786
H    -3.925450  0.398364  3.704669
H    -3.736116  0.907692  2.038182
H    -3.313306  3.281861  2.789734
H    -3.595148  2.803382  4.464319
H    -5.928099  2.045897  3.856412
H    -5.631074  2.499843  2.171484
H    -5.318478  4.916291  2.877317
H    -5.646386  4.459101  4.565021
H    -7.603348  5.339720  3.487569
H    -7.882651  3.750244  3.872288
H    -7.573363  4.182528  2.299225
N    -1.814081  0.644035  5.557932
C    -1.237602  0.629875  6.907331
H    -2.774746  0.325900  5.461084
H    -2.035946  0.810834  7.633118
H    -0.482046  1.415847  6.990535
H    -0.779966  -0.345646  7.118194
Sr    1.988203  1.197963  3.217687
