35
Energy: -105404.345839 eV PBE+vdW (tier 2 basis)
C    1.235565  0.012238  0.043017
C    0.978920  -0.283894  1.477887
O    1.995360  -0.261467  2.293764
H    0.333379  0.029926  -0.565675
H    1.897716  -0.761112  -0.367542
H    1.750218  0.981705  -0.028052
N    -0.216506  -0.500810  2.006039
C    -1.515291  -0.851227  1.386390
C    -1.341081  -2.259522  0.741615
O    -0.302864  -2.512535  0.133384
H    -0.194589  -0.641300  3.015391
H    -2.182790  -0.924157  2.251379
C    -2.111873  0.237332  0.429564
C    -2.326888  -0.089914  -1.069574
C    -3.688681  -0.735733  -1.387263
C    -3.966296  -1.018022  -2.862770
N    -4.320694  0.233701  -3.663481
H    -1.473133  1.125669  0.511184
H    -3.072783  0.547519  0.862109
H    -1.523501  -0.738361  -1.450724
H    -2.231239  0.866276  -1.609016
H    -4.510504  -0.134048  -0.964146
H    -3.758262  -1.715349  -0.894537
H    -4.826734  -1.686890  -2.981288
H    -3.107144  -1.470408  -3.374172
H    -4.517809  -0.002552  -4.647640
H    -3.561326  0.928002  -3.664365
H    -5.162658  0.694394  -3.288047
N    -2.371405  -3.124353  0.866386
C    -3.565861  -3.009237  1.706699
H    -2.182980  -4.035819  0.451637
H    -4.270207  -3.792846  1.410744
H    -4.071328  -2.045686  1.566099
H    -3.337339  -3.149094  2.772397
Sr    3.944661  -0.299702  3.281886
