35
Energy: -105405.270357 eV PBE+vdW (tier 2 basis)
C    -0.858149  2.006736  0.438523
C    -0.682331  0.807141  1.307629
O    0.472788  0.376032  1.592710
H    -1.876707  2.128867  0.059372
H    -0.163811  1.914162  -0.408261
H    -0.563973  2.920994  0.976316
N    -1.766730  0.148159  1.804370
C    -2.864994  0.847818  2.471952
C    -2.276218  1.493276  3.776980
O    -1.063095  1.283758  4.098308
H    -1.508573  -0.726111  2.266477
H    -3.205856  1.669934  1.824305
C    -4.029174  -0.122580  2.776498
C    -4.765882  -0.748335  1.572355
C    -5.680617  0.215215  0.784849
C    -6.947072  -0.402073  0.188588
N    -6.695355  -1.379484  -0.956758
H    -4.765381  0.398019  3.406368
H    -3.636623  -0.936101  3.407353
H    -5.376992  -1.559587  1.998036
H    -4.038455  -1.233919  0.903621
H    -5.125475  0.757604  0.003370
H    -6.067292  0.993566  1.461930
H    -7.600705  0.373283  -0.228563
H    -7.518272  -0.964022  0.938541
H    -6.215638  -0.927931  -1.748940
H    -7.588171  -1.750158  -1.318117
H    -6.130310  -2.189751  -0.666823
N    -3.063526  2.256122  4.511542
C    -2.663172  2.923300  5.758837
H    -4.016394  2.412229  4.192547
H    -3.556273  3.348878  6.223752
H    -1.950669  3.730689  5.549475
H    -2.211857  2.198458  6.444829
Sr    1.179327  0.683835  3.791950
