35
Energy: -105406.018906 eV PBE+vdW (tier 2 basis)
C    -1.655385  -0.206278  -2.638737
C    -1.293268  -0.611791  -1.248608
O    -0.105560  -0.495010  -0.824022
H    -1.439373  0.865836  -2.756808
H    -2.705046  -0.388666  -2.891501
H    -1.015345  -0.735598  -3.357270
N    -2.263566  -1.095598  -0.449445
C    -2.123984  -1.427399  0.979452
C    -1.375497  -2.778117  1.139762
O    -0.110419  -2.778295  1.037373
H    -3.183822  -1.208477  -0.867255
H    -1.433345  -0.685242  1.409088
C    -3.476527  -1.304068  1.713093
C    -3.974950  0.153834  1.811727
C    -5.115065  0.417730  2.822005
C    -6.500753  -0.044063  2.370258
N    -7.575849  0.427380  3.342445
H    -3.331740  -1.701548  2.729053
H    -4.233064  -1.944001  1.226142
H    -4.268456  0.534913  0.821585
H    -3.131739  0.782852  2.132669
H    -5.145240  1.505840  2.989041
H    -4.864143  -0.038788  3.792868
H    -6.601333  -1.135176  2.320845
H    -6.776910  0.375959  1.394662
H    -7.597860  1.456153  3.414039
H    -7.423694  0.060501  4.293885
H    -8.515420  0.123502  3.044608
N    -2.060323  -3.884359  1.369669
C    -1.486079  -5.224699  1.534389
H    -3.072300  -3.811411  1.432099
H    -0.426808  -5.137620  1.786124
H    -1.601032  -5.801106  0.607360
H    -2.014521  -5.739444  2.343589
Sr    1.658414  -1.589746  0.141814
