35
Energy: -105404.390027 eV PBE+vdW (tier 2 basis)
C    -0.857779  -0.863163  0.276263
C    -0.583906  -0.737361  1.744714
O    0.444850  -1.156409  2.288646
H    -0.868381  -1.930797  0.014410
H    -1.802220  -0.409597  -0.043826
H    -0.033939  -0.413260  -0.293850
N    -1.565089  -0.120945  2.503419
C    -1.374251  0.126117  3.929027
C    -2.662821  -0.218405  4.691765
O    -2.860331  0.184788  5.902086
H    -2.232199  0.459056  1.997315
H    -0.650185  -0.650235  4.247124
C    -0.757293  1.499074  4.286661
C    0.769042  1.583170  4.047486
C    1.203146  1.955125  2.615789
C    2.648558  1.616683  2.257503
N    2.924377  0.111706  2.253788
H    -0.938409  1.674256  5.356359
H    -1.286703  2.300315  3.748331
H    1.207842  0.622075  4.357980
H    1.182171  2.334563  4.734466
H    1.104976  3.041838  2.477362
H    0.541486  1.512567  1.859951
H    3.370891  2.068843  2.947608
H    2.880789  1.975594  1.248789
H    3.304937  -0.207453  3.152432
H    3.622057  -0.132245  1.539149
H    2.050147  -0.449225  2.081122
N    -3.543130  -0.995771  4.097942
C    -4.778570  -1.508525  4.687555
H    -3.295993  -1.289092  3.150908
H    -5.285102  -2.134730  3.947719
H    -5.451962  -0.682291  4.951861
H    -4.559602  -2.128381  5.567614
Sr    -3.483846  0.711373  7.952558
