35
Energy: -105405.186482 eV PBE+vdW (tier 2 basis)
C    -3.784436  -1.052887  -1.477299
C    -3.173658  -2.083146  -0.583344
O    -3.670052  -3.248552  -0.543866
H    -4.322182  -1.570590  -2.279458
H    -3.046717  -0.373930  -1.913333
H    -4.521361  -0.449190  -0.924003
N    -2.068174  -1.831638  0.177439
C    -1.911271  -0.701889  1.109173
C    -2.986999  -0.882978  2.230973
O    -3.954644  -1.694708  2.049781
H    -1.695769  -2.700738  0.563407
H    -0.927878  -0.858460  1.578907
C    -1.926999  0.709868  0.476556
C    -0.870692  0.959173  -0.625876
C    0.486915  1.507589  -0.135129
C    1.380612  1.853259  -1.329078
N    2.692452  2.503916  -0.910476
H    -1.794175  1.440203  1.285642
H    -2.925186  0.917952  0.074660
H    -0.708211  0.039463  -1.208055
H    -1.302325  1.690020  -1.325070
H    0.996715  0.775865  0.512321
H    0.313596  2.413670  0.467760
H    1.656536  0.966467  -1.913167
H    0.895390  2.570472  -2.003216
H    3.271586  2.730278  -1.734051
H    3.256068  1.889942  -0.304457
H    2.538507  3.385719  -0.399076
N    -2.887770  -0.224101  3.373883
C    -1.842108  0.684372  3.853220
H    -3.658018  -0.391609  4.023539
H    -1.701891  0.509276  4.925408
H    -2.139989  1.730652  3.707185
H    -0.891437  0.489475  3.348541
Sr    -5.026441  -3.637849  1.297462
