35
Energy: -105404.328377 eV PBE+vdW (tier 2 basis)
C    -3.460039  0.766265  0.713654
C    -2.709002  0.023635  1.781541
O    -2.226117  -1.094075  1.597035
H    -2.908771  0.696280  -0.231492
H    -3.652544  1.820026  0.944214
H    -4.424911  0.261119  0.556764
N    -2.589613  0.696592  2.994727
C    -2.227040  0.158958  4.313899
C    -1.455879  1.219272  5.109173
O    -1.509836  1.219727  6.400452
H    -3.195987  1.513461  3.041062
H    -3.150752  -0.020987  4.890679
C    -1.444184  -1.184999  4.314530
C    -0.059971  -1.194933  3.644979
C    0.456838  -2.630017  3.343523
C    0.699825  -2.973380  1.873997
N    -0.575874  -3.214838  1.087628
H    -2.106135  -1.921810  3.846696
H    -1.350819  -1.490950  5.368270
H    0.671417  -0.689510  4.291869
H    -0.089150  -0.614358  2.713432
H    -0.205318  -3.386755  3.794114
H    1.426612  -2.779964  3.836186
H    1.295449  -3.889680  1.785291
H    1.236932  -2.171819  1.351590
H    -1.068120  -4.051501  1.427416
H    -1.237942  -2.402479  1.158964
H    -0.367214  -3.376807  0.093184
N    -0.734326  2.098032  4.452682
C    0.098970  3.154468  5.029393
H    -0.788638  2.019793  3.434587
H    0.668508  3.626669  4.224243
H    0.804374  2.733167  5.755756
H    -0.525550  3.921992  5.505387
Sr    -1.784390  1.396646  8.584599
