35
Energy: -105405.749980 eV PBE+vdW (tier 2 basis)
C    2.083987  0.127124  0.134208
C    1.586596  -0.611358  1.332351
O    2.394545  -1.138118  2.152091
H    2.764765  -0.513289  -0.441761
H    2.677718  0.986840  0.479136
H    1.286128  0.487420  -0.523446
N    0.255587  -0.691785  1.528564
C    -0.406848  -1.229394  2.726366
C    -0.430525  -2.781729  2.688266
O    0.658822  -3.395373  2.904078
H    -0.333146  -0.280720  0.810405
H    0.273120  -1.019030  3.566229
C    -1.719939  -0.477345  3.058712
C    -2.787343  -0.214524  1.969673
C    -4.070821  0.345051  2.624801
C    -5.269159  0.622151  1.710829
N    -5.273459  2.018983  1.094285
H    -1.415760  0.494535  3.473954
H    -2.183118  -1.012561  3.902221
H    -3.046458  -1.125816  1.405240
H    -2.397360  0.497940  1.223219
H    -3.835731  1.243105  3.219753
H    -4.431063  -0.387406  3.362532
H    -6.205231  0.563698  2.278402
H    -5.339719  -0.080911  0.871374
H    -4.455272  2.197895  0.496731
H    -5.295055  2.750801  1.820366
H    -6.111457  2.155170  0.507321
N    -1.561471  -3.427775  2.463404
C    -1.721582  -4.885944  2.432823
H    -2.396556  -2.872611  2.304811
H    -2.610977  -5.160382  3.010398
H    -0.839947  -5.356040  2.873195
H    -1.843009  -5.229272  1.397575
Sr    2.940740  -3.108326  3.181893
