35
Energy: -105405.880975 eV PBE+vdW (tier 2 basis)
C    -1.498664  -3.743585  1.334632
C    -0.825467  -2.473990  1.741126
O    0.145602  -2.009201  1.072891
H    -1.892795  -3.620450  0.315328
H    -2.314842  -4.043296  2.000235
H    -0.759311  -4.554674  1.287523
N    -1.283827  -1.831329  2.832080
C    -0.836878  -0.520744  3.341176
C    0.556064  -0.665312  4.017804
O    1.586146  -0.728052  3.278037
H    -2.028182  -2.293574  3.349609
H    -0.652676  0.121820  2.466475
C    -1.932277  0.095287  4.236419
C    -3.247611  0.525521  3.540434
C    -3.201613  1.924638  2.899578
C    -4.501680  2.401184  2.246895
N    -5.568962  2.834554  3.249076
H    -1.501057  0.966442  4.751442
H    -2.191192  -0.630332  5.025500
H    -4.029078  0.490380  4.315013
H    -3.546871  -0.218142  2.785127
H    -2.453061  1.951000  2.093085
H    -2.861218  2.673686  3.633648
H    -4.969377  1.627149  1.625313
H    -4.323073  3.281636  1.618676
H    -6.413531  3.169219  2.759660
H    -5.240217  3.609528  3.844164
H    -5.866895  2.069770  3.870440
N    0.639245  -0.729423  5.334408
C    1.881924  -0.877287  6.101437
H    -0.223343  -0.683025  5.870922
H    2.047159  -1.932690  6.354447
H    1.794533  -0.298702  7.026562
H    2.721857  -0.502054  5.512043
Sr    2.339170  -1.356954  1.193796
