35
Energy: -105404.051654 eV PBE+vdW (tier 2 basis)
C    0.674245  -0.471295  0.264041
C    0.414983  -0.338537  1.736788
O    1.317486  -0.197001  2.570752
H    1.169256  0.438401  -0.103057
H    -0.227444  -0.639282  -0.335496
H    1.376781  -1.298932  0.100308
N    -0.907350  -0.378385  2.134875
C    -1.284457  -0.105293  3.509528
C    -2.267223  -1.141769  4.045517
O    -3.037335  -1.828234  3.258822
H    -1.600782  -0.239811  1.406650
H    -0.347489  -0.233124  4.074602
C    -1.830761  1.351245  3.752175
C    -0.841131  2.359920  4.366198
C    0.419774  2.706254  3.530698
C    1.724007  2.356103  4.259641
N    2.837232  2.035623  3.283636
H    -2.712119  1.311775  4.408896
H    -2.203513  1.725295  2.786750
H    -0.539405  2.008478  5.364618
H    -1.412112  3.278518  4.553347
H    0.417851  3.776046  3.285479
H    0.389051  2.179565  2.568386
H    1.620292  1.453563  4.872325
H    2.071566  3.171486  4.904651
H    3.728508  1.859836  3.767855
H    3.000215  2.800530  2.615106
H    2.563490  1.168588  2.765206
N    -2.361733  -1.328333  5.348798
C    -1.600782  -0.685264  6.428116
H    -3.082594  -1.981275  5.653910
H    -2.048896  0.279805  6.696027
H    -0.556267  -0.544612  6.133039
H    -1.629821  -1.343272  7.301777
Sr    -4.332128  -3.238888  2.154606
