35
Energy: -105404.700466 eV PBE+vdW (tier 2 basis)
C    -0.050300  0.604058  0.032538
C    -0.138689  0.451367  1.514279
O    0.953253  0.506903  2.215800
H    0.772930  -0.013587  -0.348418
H    0.184050  1.651670  -0.211657
H    -0.963559  0.324063  -0.498075
N    -1.290129  0.275109  2.138148
C    -2.657191  0.187623  1.565168
C    -3.589772  0.811319  2.625642
O    -3.679514  0.244764  3.734141
H    -1.257945  0.148998  3.154116
H    -2.678773  0.771033  0.636405
C    -3.028550  -1.286493  1.296410
C    -4.417456  -1.539981  0.680320
C    -5.669235  -1.431580  1.576169
C    -5.703099  -2.383104  2.787697
N    -5.695097  -1.626338  4.103295
H    -2.901708  -1.842015  2.238486
H    -2.273471  -1.689303  0.605480
H    -4.391548  -2.556065  0.260400
H    -4.564893  -0.880773  -0.188695
H    -6.535904  -1.655331  0.941128
H    -5.833119  -0.395410  1.909450
H    -4.836211  -3.053992  2.818010
H    -6.602022  -3.008749  2.793746
H    -6.582517  -1.126034  4.244097
H    -4.917378  -0.914356  4.113257
H    -5.582549  -2.262212  4.903935
N    -4.245678  1.921950  2.279707
C    -5.179966  2.634538  3.153419
H    -4.104614  2.296755  1.345583
H    -4.993009  3.711485  3.082629
H    -5.024174  2.306028  4.184515
H    -6.217438  2.439892  2.850710
Sr    3.021888  0.697143  2.953468
