35
Energy: -105404.214966 eV PBE+vdW (tier 2 basis)
C    -0.169249  -0.433127  0.227182
C    -0.212733  -0.226368  1.713272
O    0.802571  -0.194549  2.426520
H    -1.154733  -0.534596  -0.240444
H    0.426517  -1.329468  0.011944
H    0.352436  0.413169  -0.241730
N    -1.453795  -0.044509  2.270071
C    -1.642796  0.128362  3.713198
C    -2.928575  -0.573899  4.164596
O    -2.837956  -1.566159  4.998345
H    -2.248845  -0.034067  1.640562
H    -0.824490  -0.440847  4.176552
C    -1.558925  1.578030  4.278587
C    -0.133817  2.170863  4.322544
C    0.303094  2.884104  3.029247
C    1.799383  3.152524  2.901189
N    2.618360  1.863324  2.809997
H    -1.948643  1.540714  5.308033
H    -2.230155  2.251308  3.727884
H    0.565448  1.364622  4.590924
H    -0.095130  2.894191  5.148955
H    -0.186790  3.867613  2.974801
H    -0.035436  2.343028  2.135025
H    2.198958  3.725066  3.746671
H    2.006755  3.718182  1.986331
H    3.411577  1.974519  2.166350
H    2.028701  1.048745  2.491364
H    3.014970  1.603186  3.720218
N    -4.128880  -0.202049  3.766125
C    -4.555542  0.874597  2.861485
H    -4.899328  -0.748581  4.154570
H    -5.200409  1.569804  3.413333
H    -5.132342  0.439180  2.035872
H    -3.701564  1.425727  2.465713
Sr    -2.720719  -3.289470  6.375942
