35
Energy: -105404.575325 eV PBE+vdW (tier 2 basis)
C    1.147089  1.273017  0.333373
C    0.563186  1.454734  1.702375
O    0.970510  2.330056  2.488226
H    2.239972  1.331185  0.400747
H    0.832000  2.116800  -0.297598
H    0.854541  0.338681  -0.158079
N    -0.472768  0.628515  2.053117
C    -1.081852  0.552256  3.387464
C    -1.889975  1.821030  3.730496
O    -3.144799  1.727885  4.061277
H    -0.790621  -0.046886  1.365802
H    -1.817790  -0.260046  3.327269
C    -0.082021  0.211337  4.530276
C    0.693437  -1.097352  4.301807
C    1.541812  -1.525034  5.520155
C    2.913442  -0.866351  5.683744
N    4.004072  -1.595610  4.901686
H    -0.670254  0.124255  5.457536
H    0.607661  1.053987  4.672253
H    1.319136  -1.008145  3.398721
H    -0.016607  -1.909939  4.087988
H    1.666015  -2.619611  5.517694
H    0.984225  -1.317884  6.445068
H    3.247497  -0.890369  6.727408
H    2.940089  0.175343  5.340335
H    4.918688  -1.132833  5.013866
H    3.802825  -1.637813  3.893295
H    4.112546  -2.565782  5.233485
N    -1.269859  2.969841  3.690266
C    -1.868329  4.269227  3.970467
H    -0.266097  2.896463  3.332439
H    -1.091945  5.034814  3.886228
H    -2.272771  4.301023  4.991528
H    -2.657567  4.504371  3.241655
Sr    -5.279094  1.948063  4.480139
