35
Energy: -105404.790831 eV PBE+vdW (tier 2 basis)
C    0.887410  -0.756219  2.692153
C    0.294409  0.557743  2.311221
O    0.973461  1.643497  2.556716
H    1.111132  -0.754541  3.768021
H    0.238699  -1.607883  2.472750
H    1.840222  -0.895258  2.162071
N    -0.880254  0.670033  1.736764
C    -1.830668  -0.347803  1.252251
C    -2.525889  0.406246  0.081256
O    -2.692307  1.623237  0.207677
H    -1.248175  1.605791  1.475119
H    -1.281960  -1.229836  0.895467
C    -2.820859  -0.731617  2.383480
C    -3.960743  -1.707369  2.003353
C    -5.273627  -1.013801  1.596517
C    -6.418661  -1.938228  1.188010
N    -7.052844  -2.677546  2.365021
H    -3.244841  0.198567  2.790632
H    -2.224424  -1.178030  3.191272
H    -4.129994  -2.350431  2.881122
H    -3.634005  -2.388391  1.201106
H    -5.104722  -0.363447  0.726181
H    -5.612221  -0.336587  2.397947
H    -6.101725  -2.716995  0.482600
H    -7.237216  -1.371405  0.729096
H    -7.834560  -3.271103  2.048835
H    -7.433674  -2.020156  3.061249
H    -6.383904  -3.291288  2.849852
N    -2.921981  -0.330315  -0.970010
C    -3.577441  0.248891  -2.146021
H    -2.617096  -1.296951  -1.026989
H    -4.363416  -0.426898  -2.499990
H    -2.854467  0.407563  -2.956330
H    -4.013443  1.212008  -1.866445
Sr    2.316742  3.315990  2.947325
