35
Energy: -105404.025972 eV PBE+vdW (tier 2 basis)
C    -1.025205  0.467077  -1.020392
C    -0.533288  0.083056  0.338013
O    0.618692  -0.214429  0.599910
H    -2.026494  0.910802  -1.028165
H    -1.033471  -0.420079  -1.672929
H    -0.304245  1.159662  -1.476135
N    -1.498602  0.085194  1.438529
C    -2.558808  -0.978586  1.291520
C    -3.616215  -0.731072  2.382465
O    -3.487853  0.313924  3.115362
H    -0.922696  -0.215992  2.237484
H    -3.070858  -0.803745  0.330691
C    -1.900987  -2.385349  1.221306
C    -0.948372  -2.761538  2.369238
C    -0.068503  -3.996145  2.079270
C    0.957270  -3.904003  0.949730
N    2.059027  -2.879391  1.201379
H    -1.371246  -2.415187  0.256754
H    -2.680551  -3.150703  1.130590
H    -1.526668  -2.976563  3.279500
H    -0.286706  -1.921242  2.641188
H    -0.707229  -4.856158  1.826039
H    0.442814  -4.290053  3.008780
H    0.521552  -3.637678  -0.020999
H    1.463759  -4.869107  0.829529
H    2.798794  -2.962120  0.488192
H    2.509684  -3.026588  2.116119
H    1.703749  -1.906621  1.159570
N    -4.664950  -1.511706  2.548116
C    -5.137392  -2.666756  1.771302
H    -5.272578  -1.220811  3.317833
H    -4.775135  -3.605649  2.208826
H    -4.835246  -2.589794  0.722563
H    -6.231796  -2.668554  1.811729
Sr    -2.525432  2.316047  2.788652
