35
Energy: -105404.693288 eV PBE+vdW (tier 2 basis)
C    -0.085535  0.616615  0.078482
C    0.069617  0.162090  1.489326
O    1.133073  0.507592  2.148559
H    -0.738597  -0.031007  -0.514588
H    0.894400  0.665508  -0.408771
H    -0.528488  1.624532  0.080818
N    -0.835106  -0.598839  2.082408
C    -2.196179  -0.856569  1.583506
C    -2.945590  0.523159  1.525594
O    -2.471074  1.495089  2.108533
H    -0.659259  -0.798359  3.066492
H    -2.102683  -1.267428  0.567941
C    -2.923537  -1.913239  2.447715
C    -3.414872  -1.429590  3.822995
C    -4.102389  -2.512140  4.685465
C    -5.494309  -2.906109  4.191960
N    -6.168083  -3.869382  5.162036
H    -2.261121  -2.787057  2.556654
H    -3.772401  -2.264616  1.843781
H    -4.092556  -0.570992  3.700499
H    -2.571781  -1.047448  4.418420
H    -4.189258  -2.115380  5.709025
H    -3.460960  -3.406380  4.745771
H    -5.480705  -3.422245  3.224488
H    -6.163691  -2.039827  4.116265
H    -7.109617  -4.136726  4.837701
H    -6.275063  -3.451108  6.098296
H    -5.626046  -4.738535  5.276881
N    -4.097684  0.514698  0.827343
C    -4.937550  1.703372  0.658218
H    -4.344708  -0.311922  0.292052
H    -5.991762  1.433075  0.782069
H    -4.796948  2.141525  -0.338193
H    -4.655425  2.439349  1.415757
Sr    2.938463  1.575259  2.772873
