35
Energy: -105404.752273 eV PBE+vdW (tier 2 basis)
C    0.271709  -0.798835  0.301925
C    0.093290  -0.403947  1.728730
O    1.126580  -0.455164  2.524988
H    -0.667001  -0.830240  -0.257089
H    0.746933  -1.787560  0.253304
H    0.950278  -0.088542  -0.192599
N    -1.052217  -0.002555  2.221494
C    -2.332701  0.343003  1.578436
C    -2.799242  1.527259  2.491390
O    -2.443730  1.472571  3.678015
H    -1.122574  0.319983  3.213655
H    -2.156623  0.655416  0.542870
C    -3.323016  -0.852701  1.651673
C    -4.741724  -0.520975  1.156856
C    -5.812841  -1.605022  1.407871
C    -5.748241  -2.801095  0.461157
N    -6.961300  -3.704972  0.652018
H    -3.367583  -1.177107  2.702839
H    -2.884181  -1.683504  1.077282
H    -4.727094  -0.259807  0.087217
H    -5.097639  0.374144  1.683466
H    -6.794791  -1.119655  1.291082
H    -5.756769  -1.947933  2.453520
H    -4.870464  -3.438159  0.623545
H    -5.767645  -2.494412  -0.592416
H    -7.839727  -3.198994  0.462954
H    -7.021537  -4.065630  1.615628
H    -6.935120  -4.518403  0.019438
N    -3.546399  2.522209  1.993159
C    -3.959334  2.808520  0.621684
H    -3.801390  3.215470  2.697353
H    -3.499701  2.109942  -0.082827
H    -3.646264  3.823307  0.348346
H    -5.050300  2.742644  0.520328
Sr    2.942411  -0.377194  3.722490
