35
Energy: -105405.665918 eV PBE+vdW (tier 2 basis)
C    -1.676546  2.024661  0.226881
C    -1.306376  1.549852  1.598024
O    -0.574805  2.272185  2.339580
H    -2.219493  2.976757  0.307123
H    -2.289044  1.316891  -0.341253
H    -0.755913  2.235553  -0.334929
N    -1.793753  0.358280  1.983705
C    -1.609605  -0.513034  3.170273
C    -1.714989  0.153379  4.558566
O    -1.047312  1.171174  4.914673
H    -2.378365  -0.081817  1.276250
H    -2.493705  -1.163276  3.113881
C    -0.419717  -1.506777  3.032336
C    1.025717  -0.995670  2.938054
C    1.966301  -2.194293  2.667914
C    3.437226  -1.803763  2.539816
N    4.308394  -3.021166  2.253281
H    -0.641959  -2.100313  2.131803
H    -0.506873  -2.210228  3.875102
H    1.320810  -0.492712  3.871977
H    1.122179  -0.260440  2.124421
H    1.641273  -2.695045  1.741460
H    1.852663  -2.929386  3.481084
H    3.835660  -1.360439  3.460910
H    3.614830  -1.106476  1.711481
H    5.303176  -2.761629  2.169120
H    4.040772  -3.485905  1.372494
H    4.241082  -3.726784  3.002223
N    -2.519891  -0.464838  5.412659
C    -2.706550  -0.092172  6.818072
H    -3.074194  -1.247763  5.073671
H    -3.519203  0.639922  6.914387
H    -1.779473  0.329428  7.215961
H    -2.973191  -0.989901  7.384278
Sr    -0.293683  3.260204  4.358543
