35
Energy: -105405.620873 eV PBE+vdW (tier 2 basis)
C    0.093919  -0.288585  -0.342615
C    -0.088157  -0.117623  1.126908
O    0.865024  -0.329363  1.936233
H    0.460184  -1.302759  -0.552435
H    0.876987  0.405489  -0.682335
H    -0.817092  -0.106933  -0.922063
N    -1.290192  0.275747  1.586894
C    -1.596858  0.625443  2.985751
C    -1.529650  -0.643366  3.878776
O    -0.449135  -0.838498  4.526346
H    -2.016714  0.442585  0.893697
H    -0.759613  1.235484  3.356632
C    -2.889257  1.472850  3.002885
C    -3.402792  1.982872  4.368019
C    -2.704120  3.254088  4.886500
C    -3.277153  3.852251  6.174086
N    -4.585618  4.611561  5.967647
H    -3.695769  0.908426  2.518725
H    -2.696214  2.335527  2.346003
H    -3.344642  1.189625  5.130448
H    -4.477959  2.176423  4.229325
H    -2.680906  4.026849  4.100284
H    -1.648365  3.043709  5.114332
H    -2.585847  4.585332  6.605852
H    -3.487716  3.091059  6.935987
H    -4.921670  5.007483  6.859314
H    -5.340387  4.014634  5.602113
H    -4.468708  5.400402  5.314257
N    -2.512516  -1.528135  3.969912
C    -3.801782  -1.611403  3.272571
H    -2.310283  -2.293538  4.615059
H    -4.134154  -2.653279  3.312548
H    -3.701840  -1.331968  2.219581
H    -4.562338  -0.991220  3.762591
Sr    1.776295  -1.070914  3.888731
