35
Energy: -105404.443557 eV PBE+vdW (tier 2 basis)
C    -0.441334  0.415685  -0.788618
C    -0.086685  0.852294  0.591238
O    1.090580  1.379913  0.759602
H    0.308755  -0.296541  -1.151283
H    -1.418946  -0.054168  -0.871435
H    -0.421769  1.304733  -1.438686
N    -0.932627  0.913935  1.623760
C    -2.015443  -0.034371  1.948900
C    -1.315404  -1.439080  2.004858
O    -0.366440  -1.630912  1.239720
H    -0.518272  1.354000  2.444671
H    -2.358328  0.283612  2.941203
C    -3.215825  -0.015927  0.962124
C    -4.585262  -0.461224  1.518870
C    -5.269406  0.540960  2.463282
C    -6.628579  0.107554  3.012724
N    -7.738237  0.117947  1.963880
H    -2.990556  -0.671169  0.111978
H    -3.304994  1.005618  0.563450
H    -4.501559  -1.443536  2.005500
H    -5.215758  -0.630149  0.630928
H    -5.362715  1.527236  1.978943
H    -4.651400  0.719244  3.356925
H    -6.970337  0.785682  3.803421
H    -6.611015  -0.911990  3.418400
H    -8.639750  -0.158688  2.381407
H    -7.551988  -0.533077  1.188588
H    -7.867708  1.056553  1.558672
N    -1.776205  -2.383739  2.844196
C    -2.739793  -2.306939  3.936719
H    -1.283443  -3.271237  2.744490
H    -2.285089  -2.702593  4.853134
H    -3.636730  -2.901342  3.716455
H    -3.033136  -1.271204  4.132277
Sr    3.228069  1.775988  0.547058
