35
Energy: -105405.367473 eV PBE+vdW (tier 2 basis)
C    -0.107940  -0.382214  0.260282
C    -0.207922  -0.011990  1.699167
O    0.801376  -0.078226  2.461676
H    -1.058568  -0.342489  -0.278697
H    0.266424  -1.418193  0.224071
H    0.646591  0.226118  -0.256967
N    -1.402610  0.369235  2.238491
C    -2.210508  1.435769  1.645502
C    -1.574347  2.789531  2.114795
O    -0.422638  2.790816  2.656553
H    -1.357840  0.409325  3.257487
H    -2.036265  1.408285  0.558351
C    -3.731088  1.248346  1.857479
C    -4.220135  1.184025  3.313769
C    -5.757267  1.135467  3.487026
C    -6.398151  -0.194010  3.084257
N    -7.884502  -0.212083  3.419153
H    -3.991274  0.327440  1.315737
H    -4.258492  2.053133  1.320104
H    -3.874195  2.073940  3.861421
H    -3.779155  0.314600  3.826823
H    -6.219642  1.960034  2.920841
H    -5.972817  1.326367  4.549737
H    -5.959522  -1.042547  3.624603
H    -6.334265  -0.397398  2.008493
H    -8.318303  -1.110022  3.155260
H    -8.400832  0.531506  2.925697
H    -8.050420  -0.079720  4.428410
N    -2.229903  3.911724  1.884801
C    -1.719114  5.257233  2.180583
H    -3.129913  3.850843  1.416361
H    -2.532797  5.973954  2.042644
H    -0.898666  5.513496  1.498638
H    -1.366797  5.307002  3.216252
Sr    1.641146  1.904844  3.334262
