35
Energy: -105404.636321 eV PBE+vdW (tier 2 basis)
C    0.216840  -0.695578  0.049642
C    -0.043095  0.323821  1.109699
O    0.800445  1.301863  1.256291
H    -0.014092  -0.260232  -0.935488
H    -0.369328  -1.611026  0.161514
H    1.280472  -0.964190  0.049890
N    -1.109517  0.268043  1.884513
C    -2.244071  -0.675623  1.793638
C    -3.455203  0.097109  2.361512
O    -3.274836  0.843072  3.350133
H    -1.257057  1.001743  2.588602
H    -2.402107  -0.892034  0.730227
C    -2.030221  -2.027875  2.553584
C    -2.568631  -2.136750  3.988577
C    -1.795093  -1.349765  5.063682
C    -2.602909  -1.022192  6.314396
N    -3.759498  -0.064911  6.000891
H    -0.957897  -2.273046  2.528855
H    -2.527936  -2.798929  1.949608
H    -2.565533  -3.202000  4.259029
H    -3.635051  -1.858361  3.977786
H    -1.392170  -0.408849  4.662190
H    -0.924510  -1.933642  5.395283
H    -1.980433  -0.523989  7.065132
H    -3.042253  -1.913221  6.778041
H    -3.856513  0.653353  6.729186
H    -4.657511  -0.560904  5.960018
H    -3.619946  0.408828  5.071593
N    -4.630185  -0.124380  1.773749
C    -5.898444  0.474605  2.195914
H    -4.657598  -0.741366  0.965838
H    -6.426468  0.859565  1.316695
H    -5.691675  1.300959  2.881103
H    -6.534440  -0.273553  2.686434
Sr    2.424854  2.759304  0.959281
