35
Energy: -105405.346515 eV PBE+vdW (tier 2 basis)
C    0.772358  -0.046102  0.980653
C    0.500768  0.259266  2.413463
O    1.446550  0.517057  3.213984
H    1.266027  0.801792  0.485348
H    -0.114993  -0.340831  0.414224
H    1.498628  -0.873315  0.955319
N    -0.773346  0.244505  2.897558
C    -1.874339  0.972374  2.259987
C    -1.502762  2.489437  2.297731
O    -0.528548  2.871926  3.028521
H    -0.794918  0.314172  3.916829
H    -1.952770  0.655486  1.209836
C    -3.194444  0.693064  3.018059
C    -3.668085  -0.778382  3.044347
C    -4.622473  -1.196008  1.905207
C    -5.145490  -2.613141  2.154386
N    -6.199358  -3.038676  1.140495
H    -3.984384  1.338293  2.611140
H    -3.054135  1.033750  4.055900
H    -4.191457  -0.926444  3.999748
H    -2.799130  -1.453508  3.073204
H    -4.117908  -1.149443  0.926584
H    -5.470594  -0.493070  1.869396
H    -5.628011  -2.697768  3.136382
H    -4.350183  -3.366747  2.098047
H    -6.535178  -3.994513  1.336656
H    -5.836166  -3.037862  0.176223
H    -7.023665  -2.419870  1.160446
N    -2.181029  3.371062  1.583266
C    -3.286978  3.165324  0.644340
H    -1.885584  4.340344  1.714400
H    -3.132482  3.818252  -0.221783
H    -4.243508  3.428196  1.114305
H    -3.316155  2.130021  0.293949
Sr    1.560025  2.684849  4.065285
