35
Energy: -105405.184308 eV PBE+vdW (tier 2 basis)
C    -0.338877  0.841860  1.078185
C    -0.543275  0.500369  2.519715
O    0.408095  0.654423  3.342381
H    -1.214692  1.327247  0.636787
H    -0.117783  -0.065019  0.493826
H    0.524777  1.510269  0.997670
N    -1.738206  0.047831  2.992459
C    -2.514249  -1.059824  2.412365
C    -1.622819  -2.341446  2.504717
O    -0.379515  -2.228040  2.768216
H    -1.754116  0.046961  4.013285
H    -3.347845  -1.210976  3.116356
C    -3.148410  -0.793450  1.022205
C    -4.081199  0.432870  1.050865
C    -4.703004  0.856960  -0.299320
C    -5.888575  0.001576  -0.748529
N    -6.591198  0.623022  -1.949873
H    -3.706263  -1.696675  0.741056
H    -2.369953  -0.676142  0.257078
H    -3.519372  1.298893  1.427198
H    -4.883824  0.270128  1.788077
H    -3.931454  0.873713  -1.085722
H    -5.047288  1.895984  -0.178786
H    -6.653870  -0.078290  0.033976
H    -5.601665  -1.009997  -1.060531
H    -7.394655  0.052735  -2.254975
H    -5.960948  0.720250  -2.759851
H    -6.953045  1.564028  -1.731641
N    -2.156242  -3.543840  2.360073
C    -3.555355  -3.942303  2.177561
H    -1.484163  -4.310470  2.421939
H    -4.236741  -3.172825  2.552103
H    -3.727604  -4.858106  2.753539
H    -3.764500  -4.152656  1.120951
Sr    1.505457  -1.325486  3.843419
