35
Energy: -105403.364099 eV PBE+vdW (tier 2 basis)
C    1.585724  0.317308  1.271805
C    1.380408  -0.139842  2.696599
O    2.292625  -0.209478  3.495371
H    2.324213  1.125817  1.260416
H    2.034102  -0.517822  0.711953
H    0.681492  0.636442  0.741628
N    0.104063  -0.622239  3.100452
C    -1.221953  -0.092947  2.793134
C    -1.692932  -0.549728  1.400071
O    -2.734142  -0.043919  0.822929
H    0.183050  -0.999139  4.045507
H    -1.903260  -0.691308  3.427775
C    -1.526323  1.381174  3.207189
C    -0.488013  2.493175  2.943550
C    0.632033  2.690146  3.998279
C    0.208912  3.558030  5.182666
N    1.380197  3.787492  6.130829
H    -1.758424  1.346997  4.281373
H    -2.475261  1.661687  2.727154
H    -1.039806  3.440500  2.848787
H    -0.012688  2.352823  1.965395
H    1.483060  3.174747  3.495268
H    1.006985  1.724446  4.365721
H    -0.584638  3.105298  5.790247
H    -0.122607  4.556043  4.869332
H    1.107148  4.370484  6.936255
H    2.160671  4.267448  5.657741
H    1.752550  2.901561  6.504050
N    -1.061972  -1.572815  0.871139
C    -1.409430  -2.260244  -0.367049
H    -0.274718  -1.909899  1.435964
H    -2.388434  -2.753462  -0.279097
H    -0.661613  -3.034532  -0.561033
H    -1.401801  -1.560352  -1.213681
Sr    -4.567303  0.315507  -0.344378
