35
Energy: -105404.682040 eV PBE+vdW (tier 2 basis)
C    0.364559  0.031523  0.406589
C    0.256449  0.786946  1.689470
O    1.336335  1.325529  2.185515
H    0.549540  0.738255  -0.416909
H    -0.529257  -0.549234  0.165202
H    1.224972  -0.648233  0.451104
N    -0.879341  0.941012  2.328097
C    -2.252331  0.681875  1.862404
C    -3.047507  1.809643  2.588895
O    -2.523920  2.317486  3.592759
H    -0.948620  1.552819  3.174595
H    -2.285664  0.826703  0.775716
C    -2.801368  -0.734317  2.188627
C    -3.412926  -0.954945  3.586040
C    -4.003630  -2.375116  3.700313
C    -5.043638  -2.604349  4.792867
N    -4.460654  -2.638577  6.204133
H    -1.999179  -1.465257  2.005888
H    -3.574853  -0.948366  1.436754
H    -4.214100  -0.216594  3.748150
H    -2.657888  -0.770159  4.366924
H    -3.206569  -3.132981  3.771867
H    -4.536903  -2.615418  2.766889
H    -5.540533  -3.573070  4.662224
H    -5.813956  -1.822914  4.806929
H    -5.198452  -2.818520  6.901750
H    -4.009150  -1.750352  6.460314
H    -3.760829  -3.388082  6.302836
N    -4.253043  2.158262  2.121308
C    -4.968501  1.654060  0.950001
H    -4.709141  2.887381  2.668291
H    -5.618945  2.448124  0.570070
H    -5.594493  0.785431  1.196068
H    -4.275968  1.385096  0.144651
Sr    3.208665  2.352087  2.621265
