35
Energy: -105404.514969 eV PBE+vdW (tier 2 basis)
C    0.583479  -0.153132  0.034339
C    0.029627  -0.391701  1.402996
O    0.709980  -1.085341  2.257058
H    0.807319  -1.112927  -0.452662
H    1.524216  0.411892  0.111191
H    -0.095605  0.409535  -0.615454
N    -1.157933  0.119682  1.702155
C    -1.885558  0.093782  2.982893
C    -3.336828  -0.466805  2.838894
O    -4.202349  -0.100893  3.646989
H    -1.581304  0.680961  0.962765
H    -1.342601  -0.602655  3.637295
C    -1.925820  1.482809  3.647465
C    -2.684270  2.574091  2.858367
C    -3.401558  3.620880  3.741627
C    -4.881516  3.372679  4.023086
N    -5.153117  2.161012  4.897053
H    -0.896537  1.809907  3.850555
H    -2.381335  1.315963  4.631928
H    -3.427902  2.120173  2.182620
H    -1.975341  3.105499  2.209458
H    -3.375105  4.595234  3.234049
H    -2.851595  3.777869  4.683395
H    -5.443382  3.206541  3.095076
H    -5.325229  4.234436  4.535692
H    -6.165101  2.031617  5.030181
H    -4.743552  2.278066  5.832470
H    -4.768162  1.276173  4.467464
N    -3.584622  -1.353811  1.868224
C    -4.902010  -1.976739  1.685105
H    -2.832049  -1.651126  1.258446
H    -5.162672  -2.588426  2.557011
H    -5.668911  -1.205402  1.552539
H    -4.868287  -2.607249  0.792880
Sr    2.426391  -2.246655  3.063055
