35
Energy: -105405.553457 eV PBE+vdW (tier 2 basis)
C    0.449164  -0.398553  0.478943
C    0.335734  0.228467  1.831980
O    1.042901  1.236764  2.129677
H    1.503530  -0.546493  0.215771
H    0.039455  0.311204  -0.256837
H    -0.087950  -1.347761  0.381306
N    -0.537136  -0.321226  2.698326
C    -1.146609  0.196943  3.937284
C    -0.184418  0.866246  4.929123
O    1.073693  0.692787  4.897798
H    -1.050386  -1.109805  2.311235
H    -1.872992  0.972417  3.641274
C    -1.965230  -0.954840  4.596333
C    -1.139039  -2.105982  5.197818
C    -1.928863  -3.404919  5.482774
C    -2.915873  -3.315779  6.647433
N    -3.544892  -4.673536  6.936771
H    -2.642803  -1.335370  3.813954
H    -2.624695  -0.506650  5.350701
H    -0.634611  -1.772146  6.118008
H    -0.332530  -2.383877  4.503782
H    -1.191374  -4.192469  5.702704
H    -2.459810  -3.719780  4.569693
H    -3.754619  -2.636168  6.452876
H    -2.425995  -3.008192  7.580105
H    -4.206434  -4.623136  7.726626
H    -2.833400  -5.379201  7.180883
H    -4.067391  -5.036917  6.125459
N    -0.714098  1.652363  5.865744
C    -2.099606  2.080422  6.089624
H    -0.033363  1.995047  6.544051
H    -2.080197  3.087886  6.518064
H    -2.609748  1.415400  6.798039
H    -2.661188  2.122106  5.151183
Sr    2.732017  1.678306  3.590891
