35
Energy: -105404.562837 eV PBE+vdW (tier 2 basis)
C    0.927525  0.245502  -0.929194
C    0.449265  0.687017  0.418828
O    1.131207  1.586122  1.068858
H    1.936110  -0.184410  -0.843819
H    0.980740  1.109426  -1.606904
H    0.276747  -0.508025  -1.384500
N    -0.643770  0.144639  0.899791
C    -1.319087  0.274699  2.195287
C    -1.859922  -1.168531  2.422195
O    -2.106639  -1.847732  1.418953
H    -1.074087  -0.656579  0.394800
H    -0.587289  0.560187  2.962639
C    -2.464759  1.325682  2.162361
C    -3.563136  1.125632  1.093041
C    -4.789858  0.252512  1.450409
C    -5.861728  1.024153  2.218794
N    -7.151310  0.218288  2.333123
H    -1.995654  2.306433  1.999415
H    -2.891899  1.368571  3.175635
H    -3.117327  0.702538  0.183091
H    -3.921987  2.120094  0.790427
H    -4.489651  -0.647332  2.007014
H    -5.223732  -0.104335  0.503294
H    -6.140575  1.953665  1.706479
H    -5.568459  1.271896  3.246483
H    -7.877457  0.736770  2.849651
H    -7.005744  -0.676678  2.821966
H    -7.537661  -0.003593  1.403258
N    -2.062907  -1.550113  3.692132
C    -2.543725  -2.883755  4.063277
H    -1.754322  -0.936777  4.440283
H    -2.879772  -3.396913  3.158222
H    -3.371944  -2.800309  4.776260
H    -1.736841  -3.466784  4.524135
Sr    2.871424  2.877338  1.432483
