35
Energy: -105405.350835 eV PBE+vdW (tier 2 basis)
C    -1.631855  0.373141  -0.450303
C    -0.975615  0.228789  0.880201
O    0.107330  -0.413723  1.007347
H    -1.628992  -0.613833  -0.934774
H    -1.041532  1.032805  -1.104418
H    -2.659350  0.743670  -0.395394
N    -1.537136  0.782127  1.993147
C    -1.966864  2.182034  2.036591
C    -0.687348  3.061873  1.858618
O    0.462360  2.509069  1.916143
H    -1.055575  0.492517  2.846268
H    -2.626200  2.374093  1.176676
C    -2.727708  2.481423  3.348102
C    -4.150107  1.888344  3.414352
C    -4.868449  2.315162  4.711157
C    -6.377474  2.079499  4.780182
N    -6.773850  0.634847  5.076021
H    -2.793890  3.570701  3.472947
H    -2.120755  2.126987  4.197489
H    -4.099259  0.791430  3.325817
H    -4.727093  2.247720  2.546913
H    -4.756601  3.403447  4.835895
H    -4.377974  1.877862  5.596264
H    -6.888935  2.347958  3.847176
H    -6.820825  2.668202  5.592010
H    -7.799781  0.545200  5.140372
H    -6.387496  0.313954  5.976048
H    -6.459200  -0.020751  4.348248
N    -0.789582  4.359050  1.625983
C    -1.984097  5.190107  1.444524
H    0.104468  4.848870  1.557828
H    -1.789686  5.901003  0.633878
H    -2.201703  5.756265  2.359403
H    -2.849816  4.582068  1.167680
Sr    2.019912  0.805016  1.556247
