35
Energy: -105404.554346 eV PBE+vdW (tier 2 basis)
C    -1.630333  -0.494429  0.083396
C    -0.908988  0.238119  1.170288
O    0.379352  0.397529  1.080789
H    -2.708206  -0.563971  0.261508
H    -1.233927  -1.516642  -0.000777
H    -1.469187  0.011380  -0.879087
N    -1.602425  0.696213  2.187863
C    -1.162100  1.343000  3.428201
C    -2.156691  0.777850  4.483490
O    -3.297870  0.493838  4.091469
H    -2.601518  0.438865  2.274184
H    -0.128517  1.034088  3.630978
C    -1.226445  2.898712  3.375504
C    -2.566669  3.598189  3.685842
C    -3.684780  3.445276  2.641491
C    -4.876195  4.383583  2.826515
N    -5.723070  4.044446  4.051023
H    -0.851698  3.226417  2.393706
H    -0.496707  3.260806  4.113230
H    -2.328728  4.667851  3.794730
H    -2.912004  3.264080  4.678065
H    -4.044287  2.405709  2.596851
H    -3.291164  3.682459  1.640832
H    -5.561727  4.327633  1.972835
H    -4.570153  5.429861  2.953985
H    -6.064083  3.072585  4.017936
H    -6.548821  4.659214  4.108175
H    -5.198972  4.159545  4.928992
N    -1.717341  0.685817  5.743657
C    -2.533904  0.197519  6.858012
H    -0.752882  0.933068  5.943618
H    -2.699455  0.996293  7.591345
H    -2.025006  -0.637969  7.352018
H    -3.492509  -0.147917  6.462466
Sr    2.409558  0.101532  0.286065
