35
Energy: -105404.592438 eV PBE+vdW (tier 2 basis)
C    -0.723483  0.210327  0.079924
C    -0.587559  0.153820  1.571098
O    0.523535  0.251509  2.128412
H    -0.423046  1.209955  -0.263876
H    -1.731677  -0.007177  -0.288309
H    -0.011589  -0.496241  -0.365452
N    -1.743044  0.011799  2.291643
C    -1.907623  -0.196186  3.740847
C    -1.287691  0.915167  4.608875
O    -2.013915  1.448835  5.552730
H    -2.603279  -0.022903  1.753738
H    -2.986449  -0.085488  3.908921
C    -1.570051  -1.642281  4.228265
C    -0.122268  -2.141621  4.096057
C    0.103224  -3.601564  4.556934
C    -0.344582  -4.645686  3.534597
N    0.075406  -6.048615  3.958407
H    -2.257097  -2.291949  3.664775
H    -1.889029  -1.710820  5.281552
H    0.543517  -1.512946  4.703062
H    0.234274  -2.032130  3.063467
H    -0.396372  -3.780731  5.522770
H    1.183126  -3.724483  4.733836
H    0.118952  -4.480441  2.553812
H    -1.432492  -4.687437  3.402431
H    -0.216397  -6.756034  3.267333
H    -0.337233  -6.316711  4.863817
H    1.099172  -6.122482  4.056667
N    -0.059011  1.289903  4.392252
C    0.639243  2.339608  5.122883
H    0.379811  0.834176  3.506157
H    1.666351  2.398262  4.751428
H    0.673153  2.114396  6.197803
H    0.164811  3.318302  4.955952
Sr    -3.009427  2.763455  6.981522
