35
Energy: -105404.463164 eV PBE+vdW (tier 2 basis)
C    -0.032421  0.258975  0.009444
C    -0.170579  0.055631  1.490641
O    0.796191  -0.126815  2.246280
H    0.696108  -0.456746  -0.389186
H    0.373876  1.264359  -0.176840
H    -0.976282  0.169794  -0.539890
N    -1.450164  0.086486  1.998156
C    -1.681640  0.134986  3.440741
C    -2.906207  -0.725584  3.770461
O    -2.918633  -1.983535  3.474673
H    -2.183393  0.428176  1.380929
H    -0.820714  -0.398236  3.880449
C    -1.728505  1.574109  4.008534
C    -0.435259  2.385487  3.804386
C    0.722080  2.016167  4.753228
C    2.088882  2.514351  4.277302
N    2.775702  1.499345  3.370283
H    -1.943908  1.529503  5.089155
H    -2.552388  2.127918  3.527965
H    -0.683169  3.444921  3.956721
H    -0.125161  2.315164  2.751650
H    0.778086  0.929883  4.928521
H    0.535613  2.462601  5.739582
H    2.775229  2.694935  5.111584
H    2.006316  3.446571  3.705392
H    3.482503  1.945989  2.771681
H    2.092578  0.973459  2.768975
H    3.267346  0.791269  3.930480
N    -3.941336  -0.176152  4.368138
C    -5.168177  -0.862743  4.778388
H    -3.876002  0.820427  4.571184
H    -5.831879  -0.134262  5.252243
H    -4.941203  -1.649938  5.509001
H    -5.683727  -1.284083  3.905825
Sr    -3.043739  -4.140000  3.057532
