35
Energy: -105406.035831 eV PBE+vdW (tier 2 basis)
C    -0.711413  0.862559  0.251027
C    -0.663078  0.317331  1.642505
O    0.172153  -0.585892  1.947801
H    -1.471347  1.636816  0.103094
H    -0.901074  0.033893  -0.446049
H    0.271993  1.274858  -0.013809
N    -1.528913  0.821623  2.540552
C    -1.794010  0.428920  3.943928
C    -0.575337  0.625145  4.873194
O    0.466364  -0.092572  4.774995
H    -2.125810  1.563774  2.185160
H    -2.552251  1.153377  4.272323
C    -2.421489  -0.978943  4.100505
C    -3.863489  -1.047188  3.561871
C    -4.574760  -2.377721  3.885719
C    -6.019259  -2.362306  3.382668
N    -6.765527  -3.642182  3.735583
H    -2.417232  -1.218274  5.175178
H    -1.786882  -1.729468  3.607962
H    -3.864458  -0.887522  2.472673
H    -4.446145  -0.220281  3.999243
H    -4.564629  -2.541087  4.975469
H    -4.028642  -3.217763  3.427679
H    -6.078109  -2.271040  2.290912
H    -6.601107  -1.545418  3.827867
H    -6.813092  -3.791418  4.754484
H    -6.321006  -4.475563  3.323198
H    -7.736631  -3.613234  3.388252
N    -0.692762  1.549966  5.813595
C    0.314285  1.855663  6.834464
H    -1.538936  2.114552  5.826937
H    0.934310  2.702902  6.513401
H    0.943638  0.978275  7.002359
H    -0.198164  2.123499  7.764051
Sr    1.858809  -1.217282  3.345208
