35
Energy: -105403.920467 eV PBE+vdW (tier 2 basis)
C    1.310949  0.710949  0.070771
C    0.909473  0.794247  1.517977
O    1.691262  0.961335  2.439947
H    2.212218  1.310870  -0.089792
H    0.524034  1.030141  -0.623399
H    1.573640  -0.332320  -0.163273
N    -0.480929  0.677955  1.751229
C    -1.007891  0.303556  3.067314
C    -2.530312  0.279379  3.005149
O    -3.195872  -0.575934  3.710607
H    -0.956387  0.228306  0.969008
H    -0.706661  -0.727288  3.329306
C    -0.543779  1.185022  4.279447
C    -0.730475  2.715880  4.244586
C    0.260926  3.566233  3.422185
C    1.721335  3.587220  3.875837
N    1.975034  4.576664  5.013151
H    0.505445  0.922041  4.448829
H    -1.097705  0.798142  5.149281
H    -0.717109  3.048240  5.295937
H    -1.744972  2.976958  3.905288
H    -0.120214  4.599686  3.378503
H    0.272802  3.231597  2.378887
H    2.379401  3.911001  3.061963
H    2.081928  2.612614  4.221128
H    1.747893  5.541516  4.731292
H    2.967409  4.568407  5.292166
H    1.421642  4.363420  5.853725
N    -3.146946  1.156704  2.243640
C    -4.594223  1.310105  2.080590
H    -2.529204  1.770873  1.708632
H    -4.782130  2.188938  1.457936
H    -5.076741  1.459689  3.053835
H    -5.020715  0.432855  1.576922
Sr    -4.241123  -2.230395  4.723630
