35
Energy: -105404.665005 eV PBE+vdW (tier 2 basis)
C    -0.749301  -2.516736  1.317396
C    -0.119196  -1.210938  1.669250
O    1.117398  -1.211401  2.084072
H    -1.801964  -2.435479  1.035952
H    -0.199446  -2.975644  0.483035
H    -0.669437  -3.200156  2.173972
N    -0.754644  -0.066037  1.575506
C    -2.052972  0.244529  0.948895
C    -1.819553  1.691949  0.431459
O    -0.984171  2.383883  1.033208
H    -0.267935  0.832237  1.777061
H    -2.216504  -0.444311  0.110849
C    -3.258489  0.126385  1.920101
C    -3.417121  1.174587  3.045449
C    -4.122085  2.476695  2.620392
C    -4.417832  3.468840  3.743197
N    -5.607521  3.062377  4.611680
H    -3.202175  -0.872638  2.375400
H    -4.168493  0.109768  1.302536
H    -2.440425  1.419075  3.490431
H    -3.992646  0.676861  3.842593
H    -5.052416  2.251664  2.072123
H    -3.492703  3.032276  1.912440
H    -3.570790  3.593284  4.429527
H    -4.679609  4.454327  3.340824
H    -5.783289  3.762424  5.347910
H    -5.461126  2.158160  5.080504
H    -6.470669  2.986344  4.053900
N    -2.548743  2.130115  -0.605174
C    -3.461415  1.367582  -1.460870
H    -2.319105  3.079165  -0.896160
H    -4.257205  0.884419  -0.881446
H    -2.929441  0.614388  -2.057580
H    -3.938724  2.065904  -2.154166
Sr    3.236618  -1.504040  2.512012
