35
Energy: -105403.733258 eV PBE+vdW (tier 2 basis)
C    0.393955  -0.405589  0.964176
C    -0.097626  0.166027  2.260630
O    0.680412  0.544287  3.142942
H    -0.341368  -0.980889  0.392140
H    1.279963  -1.023492  1.144750
H    0.725430  0.439229  0.339377
N    -1.462371  0.372848  2.461501
C    -2.504974  -0.610545  2.173422
C    -3.788319  0.087941  1.677197
O    -4.946031  -0.194638  2.192898
H    -1.608068  0.872746  3.340646
H    -2.166283  -1.224967  1.322213
C    -2.700025  -1.528150  3.402449
C    -1.438033  -2.379232  3.708483
C    -1.041622  -2.506173  5.192286
C    -0.462025  -1.287208  5.914370
N    0.927599  -0.888850  5.451508
H    -3.553242  -2.201590  3.239038
H    -2.964071  -0.890819  4.262505
H    -0.578014  -2.009077  3.132904
H    -1.603202  -3.395032  3.326711
H    -0.333870  -3.344148  5.292068
H    -1.916399  -2.816835  5.783978
H    -1.078750  -0.385041  5.809178
H    -0.381795  -1.506835  6.985428
H    1.375123  -0.272157  6.143636
H    0.900102  -0.348796  4.540670
H    1.543049  -1.706070  5.342685
N    -3.731640  0.975712  0.704671
C    -2.588396  1.415784  -0.111336
H    -4.621495  1.413230  0.467131
H    -1.963913  2.120613  0.448332
H    -2.991378  1.913127  -0.998417
H    -1.990328  0.558830  -0.433826
Sr    -7.027807  -0.682551  2.759813
