35
Energy: -105404.798284 eV PBE+vdW (tier 2 basis)
C    -0.533346  0.209694  -0.364938
C    -0.269249  0.482038  1.076797
O    0.969426  0.558309  1.481288
H    -0.088199  -0.756828  -0.639989
H    -0.044809  0.978464  -0.979215
H    -1.598367  0.187742  -0.609495
N    -1.221799  0.650321  1.959210
C    -2.691084  0.689457  1.853072
C    -3.048219  1.546044  3.113068
O    -2.260126  1.510107  4.064818
H    -0.994499  0.863617  2.958851
H    -2.991758  1.192426  0.923732
C    -3.253718  -0.755159  1.959204
C    -4.775685  -0.948271  2.100888
C    -5.613777  -0.834038  0.810384
C    -7.052587  -1.268891  1.093612
N    -7.919645  -1.299286  -0.159323
H    -2.786062  -1.203238  2.847688
H    -2.883678  -1.329178  1.095258
H    -5.173932  -0.270903  2.870568
H    -4.913150  -1.961931  2.505598
H    -5.178149  -1.483575  0.033511
H    -5.603816  0.194631  0.413949
H    -7.560770  -0.596424  1.795866
H    -7.091984  -2.284977  1.506031
H    -8.880979  -1.599936  0.063186
H    -7.551713  -1.956876  -0.862222
H    -7.986865  -0.374431  -0.607808
N    -4.196974  2.235285  3.088146
C    -4.656686  3.065127  4.206569
H    -4.703480  2.298692  2.211542
H    -5.738607  2.948700  4.329415
H    -4.425231  4.122495  4.026416
H    -4.148629  2.736754  5.117020
Sr    3.054915  0.750963  2.072905
