35
Energy: -105405.256217 eV PBE+vdW (tier 2 basis)
C    0.543043  -0.298299  0.394713
C    0.023124  -0.437047  1.781605
O    0.796359  -0.704981  2.747825
H    0.984945  -1.271252  0.121824
H    1.366476  0.426583  0.349551
H    -0.223237  -0.054925  -0.346183
N    -1.310301  -0.311747  2.041523
C    -2.106291  0.844706  1.612620
C    -1.459916  2.095267  2.282008
O    -0.750127  1.929776  3.332121
H    -1.541924  -0.615362  2.988765
H    -2.035263  0.941537  0.520960
C    -3.583653  0.574025  2.014187
C    -4.637175  1.567264  1.498550
C    -6.099641  1.216158  1.865555
C    -6.711022  0.097917  1.019364
N    -8.198845  -0.059914  1.308348
H    -3.641426  0.519640  3.113949
H    -3.791874  -0.438640  1.637778
H    -4.558431  1.675108  0.405688
H    -4.446140  2.562113  1.922763
H    -6.696322  2.130590  1.724419
H    -6.167832  0.961672  2.935271
H    -6.264840  -0.885694  1.209509
H    -6.637705  0.310084  -0.054865
H    -8.720660  0.805299  1.101287
H    -8.378644  -0.294436  2.295946
H    -8.615738  -0.809902  0.735890
N    -1.599626  3.307608  1.769403
C    -2.220456  3.752671  0.518010
H    -1.151103  4.044221  2.317867
H    -2.457331  2.905169  -0.128937
H    -1.514259  4.407073  -0.006208
H    -3.134328  4.321907  0.725764
Sr    1.008107  0.858524  4.461373
