35
Energy: -105404.605323 eV PBE+vdW (tier 2 basis)
C    -0.409569  0.278293  -1.151730
C    0.034403  0.778288  0.182642
O    1.233269  1.280432  0.287455
H    0.336261  -0.427713  -1.541176
H    -0.462739  1.119729  -1.858167
H    -1.381734  -0.219917  -1.134998
N    -0.734726  0.737760  1.246416
C    -2.171392  0.416941  1.347933
C    -2.621581  1.298238  2.543320
O    -1.774205  1.558377  3.411432
H    -0.413455  1.132386  2.152059
H    -2.665946  0.733941  0.421855
C    -2.460305  -1.093515  1.566506
C    -2.249737  -1.715128  2.966862
C    -3.430501  -1.517349  3.942979
C    -3.614444  -2.602118  5.000737
N    -2.548102  -2.578712  6.094042
H    -1.842459  -1.644710  0.843236
H    -3.498987  -1.271146  1.251818
H    -1.309623  -1.349805  3.409374
H    -2.113565  -2.794347  2.796735
H    -4.373812  -1.533916  3.375348
H    -3.396602  -0.529527  4.426151
H    -3.582264  -3.612319  4.572902
H    -4.569715  -2.482198  5.525572
H    -2.730400  -3.307871  6.799926
H    -2.533427  -1.673795  6.586084
H    -1.605172  -2.746752  5.718918
N    -3.899877  1.699403  2.596476
C    -4.946615  1.531021  1.584889
H    -4.113968  2.290846  3.397648
H    -5.122337  0.474053  1.350432
H    -4.716828  2.081305  0.662763
H    -5.877933  1.936506  1.990070
Sr    3.174146  2.245377  0.021969
