35
Energy: -105404.491125 eV PBE+vdW (tier 2 basis)
C    0.661738  -0.313813  0.172922
C    0.462282  -0.383137  1.660518
O    1.274301  -0.922818  2.426726
H    1.721031  -0.134372  -0.042226
H    0.052376  0.449922  -0.323816
H    0.399719  -1.288744  -0.266233
N    -0.697800  0.193533  2.132924
C    -1.282246  0.124006  3.474914
C    -1.076237  1.436573  4.248782
O    -1.935747  1.804615  5.141532
H    -1.307358  0.581413  1.417915
H    -2.370725  0.031707  3.333117
C    -0.816517  -1.064344  4.364704
C    -1.062107  -2.444100  3.730387
C    -0.319668  -3.607359  4.416321
C    1.208617  -3.573841  4.458886
N    1.853840  -3.530824  3.086258
H    -1.376235  -0.995311  5.309988
H    0.242209  -0.921755  4.607141
H    -0.807450  -2.420052  2.662123
H    -2.136372  -2.676319  3.761828
H    -0.645386  -4.547374  3.944665
H    -0.640364  -3.692463  5.465879
H    1.583959  -4.474106  4.959435
H    1.605659  -2.703898  4.995570
H    1.476188  -4.259708  2.466453
H    1.709359  -2.584842  2.645175
H    2.867796  -3.691399  3.155134
N    -0.003053  2.151543  4.002956
C    0.387019  3.394973  4.669140
H    0.600373  1.800962  3.258555
H    1.393210  3.666196  4.337914
H    0.405776  3.257025  5.757152
H    -0.296065  4.210572  4.396406
Sr    -3.423624  2.656873  6.533140
