35
Energy: -105404.082723 eV PBE+vdW (tier 2 basis)
C    -0.392118  1.249092  1.452423
C    -0.432728  0.059580  2.367364
O    0.596147  -0.508033  2.769403
H    -1.362664  1.732140  1.294719
H    -0.000168  0.932514  0.474719
H    0.319404  1.982239  1.852843
N    -1.681610  -0.371008  2.737146
C    -2.076813  -1.557046  3.501442
C    -2.581169  -1.208663  4.919745
O    -3.735828  -1.690464  5.283256
H    -2.451981  0.161080  2.342853
H    -2.983233  -1.935586  3.004180
C    -1.089716  -2.759923  3.572696
C    -0.986342  -3.621577  2.293880
C    -0.256119  -3.104365  1.035599
C    1.247819  -3.345530  0.904083
N    2.113350  -2.569860  1.887875
H    -1.493212  -3.422219  4.355093
H    -0.116232  -2.421127  3.938392
H    -2.011264  -3.881891  1.987394
H    -0.536679  -4.581078  2.594375
H    -0.488552  -2.052162  0.826547
H    -0.675280  -3.653577  0.179157
H    1.577574  -3.036348  -0.094530
H    1.504003  -4.405388  1.024489
H    3.056936  -2.420967  1.507385
H    2.230151  -3.077853  2.772048
H    1.681033  -1.637879  2.121861
N    -1.912635  -0.469659  5.776555
C    -0.595146  0.169329  5.666840
H    -2.389097  -0.307746  6.664808
H    -0.092676  0.069155  6.635138
H    -0.720738  1.236913  5.444004
H    0.011919  -0.301382  4.890924
Sr    -5.700095  -2.428205  5.974393
