35
Energy: -105404.427399 eV PBE+vdW (tier 2 basis)
C    0.755688  -0.385319  1.934479
C    -0.099439  -1.084346  2.938918
O    0.451616  -1.636597  3.975344
H    1.762638  -0.814187  1.931829
H    0.843556  0.678275  2.210086
H    0.351839  -0.434776  0.918506
N    -1.416665  -1.130265  2.809749
C    -2.238352  -0.502566  1.738396
C    -3.579125  0.013632  2.322342
O    -3.898091  1.193522  2.130478
H    -1.919085  -1.597526  3.565519
H    -1.712171  0.406013  1.424235
C    -2.437740  -1.450078  0.526545
C    -2.847048  -0.780165  -0.801594
C    -4.210356  -0.042970  -0.848518
C    -4.065678  1.486938  -0.905806
N    -5.164062  2.185483  -0.132576
H    -3.161549  -2.238085  0.787425
H    -1.485050  -1.970858  0.349032
H    -2.855600  -1.582271  -1.550263
H    -2.045333  -0.098140  -1.125445
H    -4.826442  -0.333192  0.015856
H    -4.772455  -0.378311  -1.728755
H    -4.095270  1.863557  -1.934398
H    -3.135253  1.830553  -0.441055
H    -5.033804  1.948190  0.877085
H    -6.102254  1.897641  -0.440617
H    -5.108500  3.208043  -0.234975
N    -4.342509  -0.867435  2.998965
C    -5.637233  -0.505860  3.587033
H    -4.136300  -1.860271  2.931890
H    -5.857210  -1.190056  4.411960
H    -6.444262  -0.576274  2.845203
H    -5.584837  0.518449  3.967394
Sr    1.836782  -2.391243  5.522997
