35
Energy: -105405.285506 eV PBE+vdW (tier 2 basis)
C    -0.105309  1.476148  -0.331460
C    -0.350465  0.503937  0.773317
O    0.582466  -0.224205  1.220569
H    0.589963  1.018461  -1.047198
H    -1.017964  1.783438  -0.851052
H    0.398368  2.376185  0.056282
N    -1.592547  0.389348  1.325260
C    -2.353117  1.565668  1.759708
C    -1.512599  2.277759  2.868379
O    -0.493959  1.684258  3.361102
H    -1.642490  -0.379995  1.995444
H    -2.439613  2.262592  0.912638
C    -3.767041  1.175819  2.251853
C    -4.868520  1.033852  1.177033
C    -5.012606  -0.339868  0.488628
C    -6.269560  -0.342177  -0.385966
N    -6.563286  -1.704641  -1.000533
H    -4.101173  1.949550  2.953874
H    -3.692710  0.260532  2.861382
H    -4.743968  1.820824  0.416455
H    -5.820276  1.259971  1.679724
H    -5.099418  -1.123089  1.259320
H    -4.125163  -0.573895  -0.119870
H    -6.191422  0.357294  -1.227712
H    -7.164275  -0.080286  0.193170
H    -7.416892  -1.670416  -1.579356
H    -6.716278  -2.425927  -0.280262
H    -5.798454  -2.031234  -1.608519
N    -1.836988  3.491426  3.277779
C    -2.909012  4.382022  2.819979
H    -1.249961  3.857851  4.029419
H    -2.514769  5.403414  2.780898
H    -3.753103  4.360387  3.521566
H    -3.252724  4.106145  1.819284
Sr    1.387521  0.311013  3.349017
