35
Energy: -105404.668918 eV PBE+vdW (tier 2 basis)
C    -0.026823  -1.806281  0.659933
C    0.051961  -0.604622  1.535524
O    1.239617  -0.215272  1.904083
H    0.433629  -2.659882  1.171393
H    0.547499  -1.597094  -0.256008
H    -1.041266  -2.088076  0.386162
N    -0.968839  0.188227  1.854438
C    -2.390612  -0.162441  2.044838
C    -2.398159  -1.268892  3.155250
O    -1.473525  -2.084774  3.150907
H    -0.682021  1.014801  2.377565
H    -2.844942  0.770634  2.400976
C    -3.143495  -0.597827  0.760079
C    -4.666713  -0.389280  0.833999
C    -5.363369  -0.732198  -0.498631
C    -6.874619  -0.532962  -0.400101
N    -7.576987  -0.858220  -1.712498
H    -2.944044  -1.656440  0.546908
H    -2.735067  -0.012193  -0.077059
H    -4.886994  0.656797  1.099190
H    -5.092119  -1.016952  1.630365
H    -5.144220  -1.777293  -0.771137
H    -4.956473  -0.096218  -1.301396
H    -7.142192  0.505059  -0.165975
H    -7.331154  -1.186274  0.353932
H    -7.246569  -0.257655  -2.481998
H    -8.596174  -0.721718  -1.635023
H    -7.421052  -1.836234  -1.997541
N    -3.406919  -1.308875  4.045861
C    -4.477398  -0.357977  4.332116
H    -3.332121  -2.102349  4.682459
H    -4.461280  -0.100869  5.398202
H    -5.460569  -0.786791  4.097792
H    -4.351839  0.566942  3.762541
Sr    3.331851  -0.187003  2.518335
