35
Energy: -105404.498861 eV PBE+vdW (tier 2 basis)
C    0.868924  0.251358  2.373055
C    -0.338768  -0.396549  2.960357
O    -0.152510  -1.219680  3.948775
H    0.661363  0.871988  1.502782
H    1.596219  -0.514328  2.081965
H    1.322463  0.884888  3.151981
N    -1.600375  -0.025240  2.699087
C    -2.124696  0.294081  1.361604
C    -1.678103  -0.914108  0.456426
O    -0.678254  -1.558656  0.789462
H    -2.277310  -0.496563  3.298212
H    -3.217225  0.286771  1.483777
C    -1.696529  1.673329  0.783050
C    -2.711855  2.310492  -0.191029
C    -3.923643  3.012797  0.462407
C    -3.735436  4.493142  0.795447
N    -3.863325  5.385062  -0.437180
H    -0.743850  1.565979  0.249745
H    -1.510880  2.352284  1.628933
H    -3.071428  1.556804  -0.904560
H    -2.151769  3.019082  -0.822357
H    -4.190992  2.521487  1.410129
H    -4.819853  2.899396  -0.167397
H    -2.750439  4.713141  1.226486
H    -4.503076  4.850444  1.491736
H    -3.717847  6.377226  -0.196908
H    -4.801496  5.309391  -0.857936
H    -3.178640  5.145175  -1.168156
N    -2.401815  -1.147322  -0.645652
C    -2.074573  -2.202875  -1.609648
H    -3.278428  -0.654028  -0.772503
H    -0.988840  -2.326523  -1.652070
H    -2.534265  -3.156205  -1.318623
H    -2.446803  -1.911157  -2.596341
Sr    0.694326  -2.824458  5.161498
