35
Energy: -105404.131312 eV PBE+vdW (tier 2 basis)
C    -0.362532  -0.446093  0.745457
C    0.360308  0.285585  1.838398
O    1.305068  -0.202229  2.454559
H    -1.043958  0.178080  0.158165
H    -0.914810  -1.302642  1.157937
H    0.395632  -0.870510  0.073105
N    -0.034127  1.602348  2.133670
C    -1.435691  1.937363  2.385508
C    -1.869039  3.142936  1.537420
O    -3.060438  3.635367  1.634857
H    0.601761  1.993471  2.831634
H    -2.057959  1.096087  2.042137
C    -1.701961  2.178749  3.907381
C    -0.899493  1.282319  4.873062
C    -1.200787  -0.228349  4.869836
C    -0.201615  -1.036548  5.709278
N    1.049917  -1.438145  4.933039
H    -2.778570  2.062126  4.095433
H    -1.449371  3.222438  4.148986
H    -1.095450  1.666655  5.884934
H    0.178089  1.453839  4.721868
H    -1.253060  -0.651267  3.854231
H    -2.195125  -0.402372  5.304879
H    0.138421  -0.463892  6.580514
H    -0.644153  -1.967903  6.078012
H    1.865817  -1.523831  5.553695
H    1.288551  -0.778777  4.152110
H    0.925048  -2.355818  4.485950
N    -0.984201  3.642534  0.708970
C    -1.171537  4.778217  -0.190684
H    -0.088005  3.141980  0.713268
H    -0.225852  4.979140  -0.701815
H    -1.451575  5.675992  0.375977
H    -1.930803  4.549128  -0.950720
Sr    -5.007368  4.670299  1.552888
