35
Energy: -105404.241752 eV PBE+vdW (tier 2 basis)
C    -0.762293  -0.005442  0.203337
C    -0.509195  0.339947  1.647342
O    0.562706  0.778011  2.059908
H    -0.238173  0.716187  -0.432154
H    -1.823853  -0.030151  -0.069669
H    -0.334333  -0.996660  -0.007346
N    -1.585214  0.112946  2.497949
C    -1.618359  0.164077  3.956510
C    -2.403292  1.383561  4.483144
O    -3.387187  1.162311  5.312538
H    -2.408534  -0.287080  2.059113
H    -2.237840  -0.688856  4.276012
C    -0.256146  0.021233  4.692538
C    0.421539  -1.334487  4.414367
C    1.922728  -1.394067  4.770045
C    2.820309  -0.769120  3.702503
N    4.293079  -0.988030  4.031913
H    -0.461611  0.109815  5.771023
H    0.398864  0.853022  4.418815
H    0.297469  -1.611916  3.358668
H    -0.090047  -2.116593  4.992560
H    2.194509  -2.454864  4.886884
H    2.101903  -0.916365  5.746948
H    2.685652  0.312566  3.593284
H    2.661872  -1.223575  2.717287
H    4.904349  -0.577518  3.310753
H    4.522786  -1.991157  4.092099
H    4.553632  -0.562447  4.933199
N    -2.145633  2.625838  4.142236
C    -1.120960  3.179088  3.248441
H    -2.772825  3.320027  4.550747
H    -0.337405  2.447388  3.035112
H    -1.593698  3.493546  2.308811
H    -0.686730  4.059096  3.736219
Sr    -5.122682  0.845210  6.616825
