35
Energy: -105404.549778 eV PBE+vdW (tier 2 basis)
C    0.808218  -0.431890  1.449434
C    -0.214004  -0.608397  2.516809
O    0.173885  -1.062114  3.676302
H    0.365994  -0.366346  0.451400
H    1.490674  -1.291024  1.461873
H    1.402982  0.467688  1.674007
N    -1.500930  -0.314042  2.384930
C    -2.320633  0.167374  1.229388
C    -2.361431  -0.919941  0.116211
O    -1.350546  -1.152769  -0.541892
H    -2.042948  -0.491415  3.229936
H    -3.318417  0.286911  1.673218
C    -1.842925  1.526907  0.676768
C    -2.635290  2.056030  -0.537740
C    -4.063896  2.543367  -0.245106
C    -4.848805  3.030804  -1.462745
N    -4.330236  4.349631  -2.031090
H    -0.799680  1.428568  0.355512
H    -1.861168  2.262453  1.495040
H    -2.655078  1.285809  -1.324294
H    -2.030279  2.881847  -0.945530
H    -4.061705  3.323737  0.533936
H    -4.674878  1.724273  0.164237
H    -5.899265  3.216249  -1.209830
H    -4.814651  2.314469  -2.293435
H    -4.902292  4.653203  -2.833481
H    -3.358567  4.276746  -2.362960
H    -4.365317  5.104428  -1.330547
N    -3.559988  -1.514243  -0.068691
C    -3.783619  -2.547754  -1.080857
H    -4.320554  -1.305278  0.569276
H    -4.734830  -2.365847  -1.592654
H    -3.810844  -3.544395  -0.621831
H    -2.962205  -2.510689  -1.801937
Sr    1.345597  -1.937591  5.307341
