35
Energy: -105403.666424 eV PBE+vdW (tier 2 basis)
C    -0.196271  -0.731987  0.905847
C    -0.612458  -0.580094  2.351084
O    0.136352  -0.797348  3.287945
H    -0.448103  0.146813  0.295422
H    -0.685336  -1.612731  0.464373
H    0.885370  -0.888083  0.870228
N    -1.944098  -0.240039  2.625863
C    -2.817377  0.645414  1.864382
C    -3.303281  -0.022477  0.566508
O    -3.216058  0.574093  -0.584781
H    -2.128537  -0.269817  3.626742
H    -3.740988  0.719928  2.467421
C    -2.282565  2.086485  1.704010
C    -1.997173  2.802136  3.050007
C    -0.600965  2.570568  3.668407
C    -0.445938  3.345847  4.976700
N    0.907462  3.081833  5.623434
H    -3.045618  2.674774  1.172425
H    -1.377996  2.091351  1.076796
H    -2.777704  2.529355  3.778855
H    -2.123893  3.880618  2.878480
H    0.171738  2.897541  2.953650
H    -0.421011  1.503253  3.862267
H    -1.195817  3.052398  5.722261
H    -0.509754  4.432166  4.836051
H    0.997809  3.583500  6.519911
H    1.686173  3.389618  5.022993
H    1.048700  2.078798  5.816620
N    -3.847835  -1.222203  0.616857
C    -4.140602  -2.065888  1.786044
H    -4.123841  -1.615657  -0.282039
H    -4.898212  -2.795484  1.484919
H    -4.541092  -1.464331  2.608500
H    -3.238479  -2.591061  2.119547
Sr    -3.320881  1.486688  -2.581825
