35
Energy: -105404.031806 eV PBE+vdW (tier 2 basis)
C    -1.071194  0.562521  3.056116
C    -0.917468  -0.839875  2.567199
O    -0.215376  -1.695890  3.247364
H    -2.129562  0.854902  3.107637
H    -0.577673  1.271353  2.372878
H    -0.626278  0.676772  4.047926
N    -1.498928  -1.224619  1.441294
C    -2.246839  -0.349220  0.510333
C    -3.724327  0.019772  0.843698
O    -4.171970  0.950913  0.184336
H    -1.370390  -2.201759  1.177756
H    -1.753618  0.629879  0.565234
C    -2.097836  -0.810811  -0.959438
C    -2.967315  -1.968901  -1.489681
C    -4.473194  -1.710062  -1.723070
C    -4.874577  -0.554407  -2.636985
N    -4.661437  -0.859491  -4.119032
H    -1.038718  -1.060438  -1.121486
H    -2.267392  0.094548  -1.557299
H    -2.893684  -2.849501  -0.830890
H    -2.498670  -2.307280  -2.427883
H    -4.981205  -1.509877  -0.771108
H    -4.932505  -2.642709  -2.088516
H    -4.331853  0.374436  -2.425262
H    -5.944891  -0.340284  -2.537924
H    -4.966027  -0.068205  -4.705436
H    -5.205791  -1.683093  -4.414939
H    -3.675446  -1.044620  -4.347091
N    -4.450443  -0.615319  1.799478
C    -4.223403  -1.870799  2.507665
H    -5.365805  -0.184626  1.923496
H    -3.575750  -1.748573  3.388163
H    -3.810284  -2.645221  1.849018
H    -5.191405  -2.238206  2.863239
Sr    1.189761  -2.616235  4.674279
