35
Energy: -105404.655000 eV PBE+vdW (tier 2 basis)
C    -1.446359  -1.142864  -0.230253
C    -0.636042  -0.482038  0.833741
O    0.658586  -0.641120  0.815895
H    -1.252111  -2.224407  -0.214841
H    -1.130522  -0.771579  -1.215595
H    -2.522019  -0.981328  -0.125324
N    -1.166225  0.250672  1.784200
C    -2.532143  0.781751  1.928511
C    -2.268955  2.116081  2.692343
O    -1.201051  2.211861  3.315812
H    -0.564167  0.761743  2.471659
H    -2.947235  0.976699  0.932041
C    -3.499274  -0.151744  2.702065
C    -3.197106  -0.354217  4.197200
C    -4.102233  -1.414909  4.861437
C    -5.501360  -0.973541  5.294339
N    -5.501161  -0.311871  6.671111
H    -3.500714  -1.129308  2.195320
H    -4.511065  0.256874  2.560376
H    -3.255138  0.609806  4.729717
H    -2.155565  -0.683059  4.320370
H    -3.584295  -1.858097  5.726835
H    -4.246790  -2.256928  4.168438
H    -6.179510  -1.829616  5.388639
H    -5.961863  -0.249861  4.610455
H    -6.449410  -0.012649  6.944038
H    -4.893510  0.518139  6.707951
H    -5.170217  -0.966024  7.395918
N    -3.203470  3.076948  2.673395
C    -4.458278  3.139065  1.926358
H    -2.945306  3.902275  3.213348
H    -4.614535  4.166606  1.581041
H    -5.316826  2.851662  2.548488
H    -4.426858  2.496353  1.040536
Sr    2.798440  -0.840004  0.450379
