35
Energy: -105404.503392 eV PBE+vdW (tier 2 basis)
C    -1.001029  -1.446483  -1.470285
C    -0.478930  -1.633014  -0.090028
O    0.768363  -1.980889  0.064437
H    -0.692130  -2.299576  -2.088938
H    -0.542685  -0.543268  -1.902153
H    -2.093076  -1.372612  -1.510238
N    -1.203359  -1.455385  1.005841
C    -2.637193  -1.076637  1.204429
C    -3.573983  -2.140114  0.548596
O    -3.898898  -2.006176  -0.630358
H    -0.687845  -1.616919  1.870707
H    -2.751742  -1.103022  2.295352
C    -2.968843  0.339134  0.703302
C    -4.399544  0.780814  1.070870
C    -4.747856  2.137114  0.430880
C    -6.217544  2.546124  0.464877
N    -6.700885  2.982552  1.846769
H    -2.871735  0.364943  -0.390086
H    -2.233794  1.042374  1.122317
H    -4.499398  0.822032  2.168891
H    -5.111608  0.024216  0.707696
H    -4.498558  2.096744  -0.640710
H    -4.121606  2.945192  0.843512
H    -6.885012  1.731782  0.155667
H    -6.400059  3.406789  -0.189340
H    -6.628284  2.227938  2.542182
H    -7.689593  3.273319  1.815048
H    -6.159247  3.785271  2.198568
N    -3.989566  -3.164054  1.324431
C    -3.696285  -3.434849  2.730253
H    -4.605307  -3.814916  0.839729
H    -4.179475  -4.377786  3.002609
H    -4.095639  -2.657619  3.396146
H    -2.619621  -3.558266  2.912357
Sr    2.834804  -2.629568  -0.268177
