35
Energy: -105404.482897 eV PBE+vdW (tier 2 basis)
C    0.387972  0.129169  0.108306
C    0.231782  0.115712  1.599587
O    1.217927  0.077532  2.362668
H    1.126276  -0.628579  -0.181225
H    0.809168  1.099737  -0.191396
H    -0.544027  -0.036820  -0.442599
N    -1.045405  0.165972  2.083653
C    -1.497350  0.082910  3.482581
C    -0.931462  1.184090  4.397926
O    -1.755985  1.832525  5.171286
H    -1.787236  0.227306  1.393066
H    -2.567707  0.320303  3.431485
C    -1.440933  -1.331717  4.143657
C    -0.118294  -2.133343  4.197873
C    0.099039  -3.050378  2.979593
C    1.440267  -3.777359  2.917140
N    1.550004  -4.938885  3.903291
H    -2.206795  -1.935010  3.633526
H    -1.817955  -1.198035  5.168966
H    -0.164144  -2.742559  5.114615
H    0.746069  -1.466100  4.316262
H    0.055389  -2.465198  2.051668
H    -0.724788  -3.778672  2.896185
H    2.286458  -3.112728  3.132745
H    1.598506  -4.225219  1.929110
H    2.458442  -5.417421  3.807986
H    0.817429  -5.644415  3.736566
H    1.469749  -4.633080  4.882367
N    0.349348  1.429610  4.399229
C    1.016011  2.446511  5.204987
H    0.892477  0.865774  3.664555
H    0.847486  2.270393  6.275834
H    0.670637  3.453334  4.930047
H    2.090779  2.393257  5.010439
Sr    -2.978188  3.197235  6.363910
