35
Energy: -105405.306054 eV PBE+vdW (tier 2 basis)
C    0.436103  -0.305553  0.246060
C    0.124736  0.801374  1.196178
O    0.803542  1.869381  1.195113
H    1.527888  -0.424831  0.212555
H    0.127041  -0.037532  -0.775969
H    -0.024662  -1.259805  0.517122
N    -0.893738  0.675116  2.094910
C    -2.231959  0.238892  1.691122
C    -2.830264  1.378199  0.786956
O    -2.150755  2.429484  0.556338
H    -0.911213  1.447228  2.764103
H    -2.126335  -0.647390  1.046118
C    -3.124113  -0.116486  2.901772
C    -2.860954  -1.480097  3.584399
C    -1.711759  -1.517764  4.606986
C    -1.458756  -2.877603  5.261944
N    -2.530424  -3.290030  6.268698
H    -4.166853  -0.122613  2.557383
H    -3.076570  0.702538  3.638188
H    -2.698382  -2.250387  2.813438
H    -3.807407  -1.751384  4.078393
H    -1.862700  -0.753257  5.387203
H    -0.760168  -1.256969  4.120901
H    -0.519603  -2.870073  5.827389
H    -1.409574  -3.692161  4.528094
H    -2.617928  -2.606662  7.035378
H    -2.294026  -4.197206  6.699744
H    -3.459755  -3.396792  5.838859
N    -4.025202  1.198272  0.257729
C    -4.710751  2.156613  -0.620673
H    -4.507522  0.322497  0.444942
H    -5.745587  1.827946  -0.747511
H    -4.224586  2.191421  -1.603632
H    -4.703355  3.153307  -0.167056
Sr    -0.253993  3.784916  0.389435
