35
Energy: -105405.810666 eV PBE+vdW (tier 2 basis)
C    -0.530283  1.396323  0.967097
C    -0.570296  -0.032614  1.404026
O    0.379946  -0.817230  1.115072
H    -0.467752  1.425838  -0.130431
H    0.386743  1.868409  1.345208
H    -1.394063  1.985620  1.291927
N    -1.646756  -0.441386  2.105617
C    -2.020565  -1.795294  2.576318
C    -1.016459  -2.349032  3.610403
O    0.140256  -2.733502  3.251808
H    -2.323217  0.289334  2.307373
H    -2.972231  -1.640250  3.097953
C    -2.248351  -2.813733  1.433865
C    -3.428778  -2.510901  0.485118
C    -4.807461  -3.029292  0.950007
C    -5.851408  -2.825645  -0.150931
N    -7.205705  -3.423521  0.207478
H    -2.375885  -3.807553  1.889800
H    -1.330691  -2.873366  0.834470
H    -3.481280  -1.430791  0.276791
H    -3.193764  -2.982881  -0.479767
H    -5.133719  -2.519727  1.871214
H    -4.726505  -4.102881  1.185273
H    -5.550977  -3.311947  -1.087655
H    -6.035905  -1.764625  -0.360415
H    -7.146682  -4.439996  0.369247
H    -7.886809  -3.278265  -0.554072
H    -7.607120  -2.999194  1.056419
N    -1.382010  -2.457275  4.879491
C    -2.641163  -2.071174  5.530694
H    -0.675869  -2.883941  5.481823
H    -2.926926  -1.046378  5.269220
H    -2.482288  -2.106192  6.612457
H    -3.447388  -2.772942  5.282244
Sr    1.905360  -2.357997  1.831861
