35
Energy: -105405.327555 eV PBE+vdW (tier 2 basis)
C    0.698613  -1.529809  2.186717
C    0.698567  -0.053231  2.376402
O    1.770873  0.616080  2.291039
H    -0.277975  -1.999827  2.332236
H    1.394481  -1.944900  2.934171
H    1.112140  -1.806737  1.207470
N    -0.452638  0.610278  2.688168
C    -1.672806  0.460414  1.895541
C    -1.500561  1.376384  0.636416
O    -0.362213  1.878591  0.370925
H    -0.265242  1.571411  2.975386
H    -1.674731  -0.566105  1.496422
C    -2.966132  0.610783  2.733619
C    -3.196170  1.969290  3.419108
C    -4.226614  1.954925  4.573416
C    -5.678552  1.742502  4.144203
N    -6.621546  1.867461  5.334892
H    -2.909571  -0.184026  3.492467
H    -3.823828  0.339666  2.097871
H    -3.475395  2.736411  2.680068
H    -2.258676  2.317058  3.877995
H    -4.148102  2.922640  5.092878
H    -3.938284  1.182306  5.304262
H    -5.863779  0.746719  3.723145
H    -6.010805  2.496428  3.419138
H    -7.604511  1.728622  5.054774
H    -6.559323  2.798311  5.774661
H    -6.412227  1.171333  6.066264
N    -2.539233  1.560857  -0.157731
C    -2.505932  2.308427  -1.422133
H    -3.411126  1.098377  0.084722
H    -1.944277  1.750910  -2.182195
H    -2.043174  3.288688  -1.267449
H    -3.532940  2.446319  -1.770102
Sr    1.964211  2.155854  0.564051
