35
Energy: -105404.673015 eV PBE+vdW (tier 2 basis)
C    -0.123589  -1.147330  0.334565
C    -0.017932  -0.125507  1.415273
O    1.141246  0.065314  1.981815
H    0.541813  -0.871624  -0.495767
H    -1.137513  -1.266422  -0.055341
H    0.220632  -2.117790  0.717764
N    -1.037108  0.593496  1.821209
C    -2.423847  0.688160  1.326231
C    -2.770467  2.164370  1.685768
O    -2.241647  2.624286  2.705314
H    -0.916079  1.313746  2.562815
H    -2.440824  0.505609  0.245582
C    -3.315312  -0.338111  2.076555
C    -4.823887  -0.363664  1.733773
C    -5.693651  0.579100  2.585119
C    -7.190951  0.556159  2.282956
N    -7.895130  -0.700253  2.792329
H    -3.180352  -0.174590  3.156485
H    -2.895148  -1.330701  1.861476
H    -5.150144  -1.405598  1.879891
H    -4.980568  -0.157693  0.663892
H    -5.385384  1.623461  2.434255
H    -5.529461  0.387309  3.658401
H    -7.405990  0.602657  1.207668
H    -7.704350  1.392052  2.772439
H    -8.905461  -0.663887  2.589022
H    -7.794666  -0.799936  3.813040
H    -7.529807  -1.558843  2.358097
N    -3.615117  2.872331  0.914736
C    -4.235177  2.542958  -0.365034
H    -3.756270  3.822726  1.257948
H    -5.314717  2.370540  -0.254188
H    -3.780853  1.653434  -0.810669
H    -4.093161  3.376149  -1.063038
Sr    3.170923  0.334581  2.729113
