35
Energy: -105404.034635 eV PBE+vdW (tier 2 basis)
C    0.170107  1.504550  0.285476
C    -0.145380  0.800289  1.567799
O    0.545785  -0.122035  2.030682
H    1.165985  1.962203  0.357247
H    -0.559362  2.273812  0.010416
H    0.227460  0.757741  -0.518503
N    -1.273055  1.194191  2.248470
C    -1.596859  0.540177  3.514573
C    -3.115649  0.507539  3.681354
O    -3.720872  1.203359  4.594967
H    -1.772849  2.021829  1.938705
H    -1.290139  -0.507875  3.355848
C    -0.783058  1.056067  4.719624
C    -0.472223  -0.016898  5.782030
C    0.346783  -1.254692  5.353129
C    1.869438  -1.155630  5.249308
N    2.390816  -0.401266  4.029870
H    -1.294956  1.908989  5.191240
H    0.141927  1.482520  4.310432
H    -1.422636  -0.396246  6.192332
H    0.030870  0.471752  6.630077
H    -0.044990  -1.707153  4.429083
H    0.186335  -2.023825  6.123124
H    2.281938  -2.167644  5.170494
H    2.317789  -0.684681  6.132585
H    3.266921  -0.821350  3.692128
H    2.608538  0.576693  4.252119
H    1.701751  -0.392223  3.228788
N    -3.832290  -0.247039  2.870044
C    -3.376696  -1.111320  1.772054
H    -4.843442  -0.204689  2.999472
H    -4.094611  -1.930499  1.665419
H    -2.388817  -1.529549  1.986448
H    -3.337269  -0.542996  0.834224
Sr    -4.879405  2.331453  6.102529
