35
Energy: -105404.307024 eV PBE+vdW (tier 2 basis)
C    0.070708  0.329507  0.464401
C    -0.094682  0.193816  1.938631
O    0.946000  0.327387  2.704976
H    0.760832  -0.450747  0.110508
H    0.534308  1.300199  0.239711
H    -0.861634  0.246479  -0.100113
N    -1.263013  -0.073031  2.502969
C    -2.616051  -0.158891  1.878759
C    -2.696528  -1.227622  0.749273
O    -3.089936  -0.927361  -0.387828
H    -1.243362  -0.145239  3.520380
H    -3.245578  -0.552670  2.691285
C    -3.112372  1.270226  1.535902
C    -4.363562  1.443739  0.655523
C    -5.613909  0.605287  0.987884
C    -6.499036  0.411975  -0.240316
N    -5.867839  -0.591765  -1.207571
H    -2.298790  1.815687  1.037762
H    -3.266223  1.773916  2.502072
H    -4.060027  1.272102  -0.383906
H    -4.636904  2.507214  0.708879
H    -6.221858  1.101081  1.756787
H    -5.368796  -0.384655  1.406030
H    -6.624970  1.349272  -0.795302
H    -7.493661  0.027467  0.009652
H    -6.210182  -1.542590  -1.021411
H    -6.098060  -0.378344  -2.186714
H    -4.828080  -0.620160  -1.101224
N    -2.371904  -2.496049  1.072356
C    -2.016728  -3.072390  2.366736
H    -2.447606  -3.141603  0.287203
H    -2.233566  -4.144795  2.337590
H    -2.617515  -2.642422  3.178124
H    -0.948722  -2.950616  2.594828
Sr    2.915009  0.739431  3.616007
