35
Energy: -105404.473733 eV PBE+vdW (tier 2 basis)
C    0.082613  -0.258743  0.017325
C    0.039300  -0.345986  1.512732
O    1.045490  -0.582233  2.200129
H    0.374910  -1.237236  -0.387765
H    0.876780  0.441979  -0.271365
H    -0.864555  0.048435  -0.439635
N    -1.178717  -0.160784  2.124918
C    -1.309887  -0.074008  3.580007
C    -1.214100  -1.487697  4.214338
O    -2.185179  -2.058650  4.855853
H    -2.014052  -0.063027  1.556428
H    -0.397497  0.433483  3.938868
C    -2.536087  0.748625  3.997579
C    -2.310810  2.272047  4.099514
C    -2.059861  3.049194  2.789959
C    -2.000935  4.547540  3.094579
N    -1.773862  5.395945  1.849906
H    -2.848195  0.414602  4.996422
H    -3.385004  0.524056  3.331800
H    -1.478095  2.458985  4.795807
H    -3.205218  2.691285  4.584350
H    -2.872904  2.846692  2.073576
H    -1.118333  2.725763  2.319065
H    -1.180573  4.795628  3.779755
H    -2.937564  4.910885  3.535824
H    -2.525903  5.270808  1.156599
H    -0.882883  5.169157  1.385020
H    -1.744737  6.399529  2.087207
N    -0.054894  -2.080244  4.066244
C    0.269308  -3.412851  4.550962
H    0.627167  -1.538474  3.452263
H    -0.372604  -4.174524  4.080413
H    0.191667  -3.459892  5.648666
H    1.305598  -3.643810  4.286138
Sr    -3.272942  -3.576137  6.008705
