35
Energy: -105404.493921 eV PBE+vdW (tier 2 basis)
C    0.141093  -0.460242  0.420250
C    -0.316534  -0.574746  1.832141
O    0.438091  -1.207661  2.682387
H    -0.466984  0.210743  -0.189249
H    0.126730  -1.458866  -0.041756
H    1.181019  -0.108791  0.407456
N    -1.465583  -0.086195  2.271588
C    -2.572310  0.692604  1.630993
C    -2.855007  0.342852  0.138146
O    -2.676542  1.173535  -0.767686
H    -1.620805  -0.242726  3.269005
H    -3.459158  0.352973  2.188290
C    -2.456424  2.205800  1.878527
C    -1.253270  2.939106  1.256278
C    -1.534917  4.411694  0.893773
C    -2.676286  4.674361  -0.087176
N    -2.521521  3.902748  -1.384589
H    -2.486427  2.385696  2.963058
H    -3.405541  2.614750  1.503037
H    -0.902573  2.409620  0.360528
H    -0.408589  2.932430  1.959090
H    -0.609356  4.862564  0.505095
H    -1.779449  4.986084  1.799936
H    -2.723317  5.738627  -0.345318
H    -3.657496  4.389281  0.311144
H    -2.550819  2.866862  -1.202211
H    -1.636244  4.132050  -1.854772
H    -3.279035  4.133400  -2.041162
N    -3.331000  -0.888657  -0.090544
C    -3.730017  -1.358857  -1.421468
H    -3.583166  -1.470469  0.702837
H    -3.731929  -2.452607  -1.424235
H    -3.021641  -0.988514  -2.168458
H    -4.734901  -0.997582  -1.675964
Sr    1.931999  -2.369101  3.820601
