35
Energy: -105405.481786 eV PBE+vdW (tier 2 basis)
C    0.181617  -0.999349  -0.079015
C    -0.033379  -0.515431  1.313304
O    0.934934  -0.125321  2.033167
H    0.898601  -1.832030  -0.069753
H    0.644038  -0.193183  -0.667102
H    -0.738290  -1.321678  -0.577606
N    -1.285280  -0.487606  1.815981
C    -1.572910  0.100493  3.129418
C    -0.943674  -0.746643  4.269910
O    0.046404  -0.223538  4.877847
H    -2.048233  -0.764137  1.204860
H    -0.955199  1.008689  3.178923
C    -3.007447  0.658851  3.305850
C    -4.282699  -0.208112  3.298674
C    -5.506184  0.710806  3.523900
C    -6.859888  0.043562  3.778338
N    -7.626496  -0.325533  2.509929
H    -3.103778  1.435161  2.529851
H    -2.979419  1.210770  4.258178
H    -4.250841  -0.949119  4.108872
H    -4.380524  -0.766737  2.352465
H    -5.596862  1.448366  2.709400
H    -5.317073  1.313923  4.425031
H    -7.525960  0.726081  4.319128
H    -6.777169  -0.880741  4.363658
H    -8.543227  -0.736944  2.745519
H    -7.130090  -1.011091  1.925280
H    -7.812362  0.504859  1.927775
N    -1.337792  -1.967559  4.603819
C    -2.309938  -2.868699  3.988243
H    -0.816963  -2.359613  5.391237
H    -1.820649  -3.829781  3.787729
H    -2.675046  -2.463511  3.043653
H    -3.150772  -3.046499  4.669726
Sr    2.086295  0.412973  3.957447
