35
Energy: -105405.387125 eV PBE+vdW (tier 2 basis)
C    0.184656  3.201351  1.583927
C    0.177638  1.780409  2.028839
O    0.934150  1.384243  2.963741
H    -0.114162  3.872070  2.401950
H    -0.430606  3.392331  0.700511
H    1.228245  3.462873  1.348497
N    -0.627110  0.863693  1.418847
C    -2.063894  1.071690  1.227152
C    -2.715045  1.070232  2.646276
O    -2.015531  0.712535  3.652505
H    -0.405099  -0.089937  1.709969
H    -2.215590  2.070671  0.790912
C    -2.638721  0.001625  0.265756
C    -2.076852  0.155547  -1.160570
C    -2.405209  -0.977414  -2.158752
C    -3.826259  -0.940338  -2.721652
N    -3.992517  -1.947056  -3.854078
H    -3.734460  0.074641  0.271226
H    -2.400291  -0.996712  0.668794
H    -0.980974  0.210267  -1.100509
H    -2.399257  1.120980  -1.582558
H    -2.208260  -1.957569  -1.695755
H    -1.694745  -0.880138  -2.994586
H    -4.069292  0.037827  -3.155893
H    -4.594534  -1.194012  -1.981093
H    -3.814911  -2.913152  -3.541389
H    -3.341082  -1.754381  -4.630223
H    -4.946493  -1.922903  -4.245242
N    -3.966727  1.462169  2.814372
C    -4.921324  1.994676  1.837945
H    -4.305738  1.397450  3.775857
H    -5.641841  1.221571  1.541830
H    -4.406529  2.383826  0.955032
H    -5.470021  2.819416  2.305964
Sr    -0.050988  0.604272  4.924962
