35
Energy: -105404.655575 eV PBE+vdW (tier 2 basis)
C    -0.743577  -0.417050  1.241855
C    0.111970  0.696495  0.740883
O    1.368373  0.453080  0.486875
H    -0.292720  -0.843957  2.148122
H    -0.779026  -1.217662  0.489390
H    -1.766137  -0.106315  1.470792
N    -0.337984  1.910288  0.538359
C    -1.686309  2.500021  0.630055
C    -1.566610  3.658466  -0.414508
O    -0.440389  4.148910  -0.564729
H    0.288318  2.656201  0.158772
H    -2.440187  1.754442  0.352328
C    -1.900838  3.061647  2.064237
C    -3.175794  3.884716  2.342126
C    -4.458940  3.064070  2.552886
C    -5.730243  3.879269  2.789445
N    -5.756130  4.587138  4.142108
H    -1.033421  3.702618  2.276490
H    -1.842791  2.218272  2.769990
H    -3.326248  4.630268  1.546693
H    -2.953424  4.468537  3.249918
H    -4.325136  2.341648  3.375196
H    -4.679479  2.453073  1.664808
H    -6.619890  3.238676  2.779173
H    -5.866162  4.668539  2.038952
H    -6.638336  5.106388  4.267529
H    -4.989017  5.266107  4.243974
H    -5.685563  3.917533  4.922219
N    -2.648620  4.091021  -1.081916
C    -4.000142  3.546927  -1.134664
H    -2.443883  4.872628  -1.704678
H    -4.354226  3.567563  -2.171451
H    -4.699889  4.136860  -0.525874
H    -4.020822  2.504144  -0.802307
Sr    3.423456  -0.072814  -0.009182
