35
Energy: -105404.721245 eV PBE+vdW (tier 2 basis)
C    -0.660686  -0.713985  -0.115391
C    -0.197633  -0.430824  1.271289
O    0.869291  -1.020083  1.716717
H    -1.726593  -0.514264  -0.260849
H    -0.457691  -1.759498  -0.371649
H    -0.099441  -0.070242  -0.810923
N    -0.845841  0.401514  2.067065
C    -1.892822  1.369353  1.674617
C    -1.291673  2.271784  0.547019
O    -0.084426  2.494764  0.540364
H    -0.408602  0.566566  2.973798
H    -2.770222  0.807368  1.318069
C    -2.262156  2.184261  2.935488
C    -3.431426  3.173134  2.778948
C    -3.652848  3.966021  4.081720
C    -4.649751  5.120847  4.021265
N    -6.109769  4.671885  4.040227
H    -1.364456  2.743090  3.247419
H    -2.501017  1.471725  3.741474
H    -4.341111  2.618454  2.491359
H    -3.215257  3.879847  1.963901
H    -2.700546  4.433307  4.376185
H    -3.910641  3.292334  4.915779
H    -4.532952  5.732076  3.117442
H    -4.540561  5.776388  4.893229
H    -6.744143  5.484689  4.019307
H    -6.327753  4.139792  4.895354
H    -6.349799  4.078636  3.234789
N    -2.183885  2.757962  -0.341050
C    -1.813090  3.657883  -1.434594
H    -3.143616  2.430404  -0.302437
H    -2.504225  4.507387  -1.472381
H    -1.841970  3.133183  -2.398020
H    -0.798084  4.021629  -1.253353
Sr    2.821060  -1.987216  1.926155
