35
Energy: -105404.518914 eV PBE+vdW (tier 2 basis)
C    -0.159729  0.922060  -0.018770
C    -0.073391  0.492548  1.405305
O    1.073704  0.528681  2.012471
H    -0.960019  0.417427  -0.570057
H    0.790290  0.738368  -0.530601
H    -0.369177  2.003484  -0.045689
N    -1.138745  0.079047  2.068271
C    -2.535706  0.083179  1.584730
C    -2.946585  1.555138  1.274192
O    -2.426734  2.475008  1.901935
H    -0.990511  -0.138693  3.053143
H    -2.565528  -0.527185  0.669682
C    -3.466038  -0.593814  2.620817
C    -3.795367  0.203357  3.906549
C    -5.048905  1.102537  3.834962
C    -6.400724  0.399867  3.957268
N    -6.754930  0.054443  5.402484
H    -3.014072  -1.561985  2.883803
H    -4.389486  -0.854540  2.083607
H    -2.949158  0.848766  4.184051
H    -3.888154  -0.515374  4.736423
H    -5.070771  1.644326  2.879682
H    -4.982179  1.895800  4.596125
H    -6.451798  -0.545758  3.402508
H    -7.216903  1.043195  3.608552
H    -7.669063  -0.419117  5.459614
H    -6.815265  0.903377  5.983887
H    -6.061163  -0.568737  5.838028
N    -3.902149  1.687492  0.329857
C    -4.451910  2.981321  -0.079209
H    -4.207567  0.864382  -0.180865
H    -5.547408  2.953612  -0.048861
H    -4.134683  3.230881  -1.099364
H    -4.082593  3.747031  0.608581
Sr    3.181082  0.862070  2.518536
