35
Energy: -105405.612889 eV PBE+vdW (tier 2 basis)
C    -1.341718  0.166726  -0.126735
C    -1.573137  0.740798  1.237657
O    -1.743248  1.988994  1.374021
H    -0.480421  0.675420  -0.581471
H    -2.208130  0.387235  -0.765869
H    -1.165378  -0.913876  -0.134577
N    -1.603411  -0.127718  2.264685
C    -1.676050  -0.013161  3.740528
C    -2.769133  0.894711  4.327885
O    -3.041372  2.054950  3.887336
H    -1.469137  -1.092237  1.969272
H    -1.979918  -1.026080  4.035254
C    -0.285069  0.163541  4.419535
C    0.548599  1.427275  4.159214
C    1.920095  1.287242  4.861564
C    2.845735  2.480125  4.629958
N    4.187842  2.284342  5.325228
H    0.301646  -0.717444  4.117021
H    -0.446828  0.049235  5.502592
H    0.026886  2.320800  4.536050
H    0.701458  1.570108  3.078657
H    2.411347  0.369934  4.498323
H    1.758816  1.152856  5.943398
H    3.077551  2.628706  3.567852
H    2.434193  3.414666  5.031160
H    4.814415  3.088403  5.167177
H    4.679259  1.445152  4.982240
H    4.080892  2.178981  6.345375
N    -3.424882  0.435490  5.387476
C    -3.345974  -0.871529  6.056658
H    -4.094334  1.100012  5.777362
H    -3.545389  -1.689769  5.353485
H    -4.120253  -0.897082  6.828595
H    -2.374386  -1.018441  6.543413
Sr    -3.180423  3.557072  2.173510
