35
Energy: -105404.534770 eV PBE+vdW (tier 2 basis)
C    -0.473920  -0.984749  1.363770
C    -0.608589  -0.037722  2.503397
O    0.340614  0.006392  3.395709
H    0.251831  -0.573607  0.644421
H    -1.429746  -1.181570  0.867905
H    -0.071317  -1.936781  1.731312
N    -1.633806  0.787086  2.665693
C    -2.879383  1.021957  1.864813
C    -3.787990  -0.240283  1.920164
O    -3.530386  -1.205928  1.203231
H    -1.557756  1.373564  3.496216
H    -3.361065  1.853742  2.397994
C    -2.576293  1.475003  0.424642
C    -3.767107  2.055952  -0.371158
C    -4.797186  1.030714  -0.892912
C    -5.491749  1.406139  -2.198125
N    -6.429388  2.607304  -2.076676
H    -2.155246  0.633513  -0.141218
H    -1.800170  2.251419  0.481416
H    -3.313692  2.571319  -1.232752
H    -4.259091  2.842286  0.225017
H    -5.548479  0.781805  -0.127211
H    -4.291803  0.078052  -1.111795
H    -6.117141  0.583519  -2.564773
H    -4.774342  1.670359  -2.985632
H    -6.880532  2.813526  -2.980578
H    -5.932175  3.459801  -1.784602
H    -7.181397  2.433555  -1.394813
N    -4.835307  -0.163144  2.768454
C    -5.784365  -1.258969  2.967390
H    -4.952469  0.670653  3.334855
H    -5.649068  -1.713525  3.956959
H    -5.605412  -2.015888  2.198766
H    -6.811487  -0.885063  2.888126
Sr    2.134990  -0.369390  4.597418
