35
Energy: -105404.314355 eV PBE+vdW (tier 2 basis)
C    -0.520164  -1.541623  1.649036
C    0.052197  -0.221810  2.056892
O    1.228464  -0.166839  2.599075
H    0.210013  -2.339361  1.807286
H    -0.813564  -1.549570  0.589806
H    -1.420363  -1.774425  2.237124
N    -0.626451  0.904834  1.875651
C    -2.007884  1.048698  1.359508
C    -2.117533  2.125692  0.235360
O    -3.150371  2.802208  0.137122
H    -0.176539  1.756796  2.215343
H    -2.267511  0.093667  0.882048
C    -3.031143  1.314887  2.476835
C    -2.873645  2.644311  3.247417
C    -4.208551  3.250387  3.738317
C    -4.858239  4.292827  2.830704
N    -5.337121  3.743320  1.500039
H    -3.014048  0.467554  3.177162
H    -4.010402  1.254547  1.984349
H    -2.352018  3.393687  2.631041
H    -2.234221  2.475553  4.124461
H    -4.036942  3.777379  4.687323
H    -4.928397  2.453091  3.983391
H    -4.158718  5.102319  2.586037
H    -5.731673  4.738013  3.321748
H    -5.748132  4.491458  0.925785
H    -6.068677  3.032964  1.629677
H    -4.537516  3.318099  0.954387
N    -1.092183  2.243847  -0.619116
C    -1.127745  3.145644  -1.777082
H    -0.324118  1.584789  -0.560640
H    -0.109865  3.272640  -2.155631
H    -1.526579  4.117902  -1.471782
H    -1.764495  2.734794  -2.570943
Sr    3.200899  -0.644890  3.492209
