35
Energy: -105403.439606 eV PBE+vdW (tier 2 basis)
C    1.077817  0.083097  0.637133
C    0.148405  -0.310736  1.760249
O    0.524094  -0.450943  2.906403
H    1.919036  0.656187  1.038886
H    0.605055  0.640547  -0.180015
H    1.498062  -0.843084  0.213342
N    -1.195655  -0.694021  1.428739
C    -2.210472  0.189523  0.840202
C    -2.183795  0.136055  -0.692633
O    -2.906625  0.928027  -1.417939
H    -1.572699  -1.179500  2.245350
H    -3.168198  -0.326929  1.043046
C    -2.376809  1.567498  1.540550
C    -1.184189  2.548015  1.581671
C    -1.054684  3.341236  2.904468
C    -0.402555  2.526602  4.023536
N    -0.218931  3.359211  5.285887
H    -2.673280  1.301103  2.565732
H    -3.259482  2.072139  1.120990
H    -1.276317  3.275290  0.764413
H    -0.233545  2.034413  1.399563
H    -2.044664  3.705725  3.223284
H    -0.440488  4.233365  2.707711
H    -0.988043  1.649519  4.324524
H    0.598922  2.174169  3.748308
H    0.235751  2.809583  6.030821
H    -1.116492  3.699039  5.661230
H    0.372453  4.186135  5.114415
N    -1.486400  -0.835860  -1.231915
C    -1.403358  -1.170657  -2.648656
H    -1.012862  -1.424942  -0.534853
H    -0.612821  -1.913727  -2.788870
H    -1.143395  -0.282432  -3.239398
H    -2.346627  -1.610958  -3.003297
Sr    -4.239982  1.782793  -2.947815
