35
Energy: -105404.080920 eV PBE+vdW (tier 2 basis)
C    0.120701  0.820085  -0.167737
C    -0.085466  0.473096  1.272731
O    0.717912  -0.192654  1.941355
H    -0.671511  1.445458  -0.593126
H    0.184109  -0.115032  -0.742899
H    1.087924  1.324929  -0.290312
N    -1.261014  0.899282  1.864507
C    -1.460073  0.658767  3.291639
C    -2.955658  0.506596  3.579170
O    -3.467307  0.820918  4.721441
H    -1.749435  1.673205  1.417897
H    -1.040018  -0.352379  3.454071
C    -0.679958  1.624255  4.219841
C    -0.100759  0.981076  5.496247
C    0.903008  -0.184944  5.352949
C    2.379394  0.115680  5.086427
N    2.707337  0.537319  3.659206
H    -1.310453  2.482326  4.495200
H    0.125214  2.054197  3.609747
H    -0.936706  0.597152  6.104804
H    0.354067  1.778871  6.103036
H    0.555654  -0.938119  4.629496
H    0.917425  -0.713553  6.317518
H    2.959521  -0.796629  5.264988
H    2.774982  0.894333  5.750020
H    3.647773  0.215811  3.393776
H    2.710235  1.558253  3.554025
H    2.014590  0.152269  2.961224
N    -3.710922  -0.007605  2.629442
C    -5.138138  -0.307822  2.730849
H    -3.231342  -0.233479  1.756122
H    -5.472280  -0.739283  1.782941
H    -5.715614  0.610103  2.906490
H    -5.324182  -1.043974  3.524778
Sr    -4.699169  1.288520  6.496138
