35
Energy: -105405.084049 eV PBE+vdW (tier 2 basis)
C    0.027666  -0.651190  -0.940348
C    0.002090  0.254851  0.247940
O    0.961701  1.047770  0.476571
H    0.850865  -0.360314  -1.599452
H    -0.914969  -0.609734  -1.498195
H    0.185130  -1.697919  -0.634895
N    -1.049317  0.244808  1.114190
C    -1.639680  -0.984943  1.664437
C    -0.469515  -1.814474  2.294275
O    0.667084  -1.271530  2.468861
H    -1.000232  1.012173  1.783764
H    -2.232702  -0.637609  2.525822
C    -2.612225  -1.736945  0.707932
C    -3.892150  -2.270730  1.388615
C    -4.805267  -3.082151  0.438900
C    -5.804390  -2.298725  -0.419543
N    -7.143598  -2.082913  0.282163
H    -2.092030  -2.560196  0.196713
H    -2.892921  -1.019445  -0.074932
H    -3.636501  -2.926333  2.235679
H    -4.440313  -1.428410  1.842841
H    -4.182488  -3.661605  -0.258122
H    -5.348949  -3.846849  1.015061
H    -6.050165  -2.844381  -1.337841
H    -5.447548  -1.301028  -0.704016
H    -7.796026  -1.553840  -0.317010
H    -7.052235  -1.562740  1.165957
H    -7.599333  -2.981970  0.500833
N    -0.698852  -3.057690  2.675443
C    0.281788  -3.917486  3.353830
H    -1.622788  -3.447003  2.513322
H    -0.204089  -4.864053  3.603696
H    0.631263  -3.438924  4.275838
H    1.135124  -4.116902  2.694980
Sr    2.350484  0.351062  2.206466
