35
Energy: -105405.686694 eV PBE+vdW (tier 2 basis)
C    -1.855087  -0.530681  -0.142275
C    -1.050608  -0.108536  1.044318
O    0.186882  0.137987  0.924228
H    -2.915284  -0.696274  0.075181
H    -1.423698  -1.458496  -0.545384
H    -1.765608  0.226602  -0.933051
N    -1.688407  -0.000250  2.223744
C    -1.175031  0.250784  3.590688
C    -0.431048  1.597036  3.715445
O    0.735424  1.756747  3.233559
H    -2.681467  -0.217221  2.187328
H    -2.088938  0.340055  4.189685
C    -0.389183  -0.949960  4.177560
C    -0.188378  -0.827127  5.705523
C    -0.189360  -2.148144  6.508026
C    1.053285  -3.019484  6.335370
N    1.012690  -4.211776  7.284930
H    0.566007  -1.075820  3.649259
H    -0.995205  -1.838997  3.947593
H    -1.016783  -0.237137  6.125988
H    0.723643  -0.254394  5.930988
H    -1.090529  -2.728683  6.252645
H    -0.283913  -1.877391  7.571487
H    1.975417  -2.476029  6.577638
H    1.148861  -3.441753  5.327371
H    1.848317  -4.807712  7.184572
H    0.189515  -4.809650  7.117021
H    0.971263  -3.909946  8.270490
N    -1.014605  2.590588  4.370964
C    -2.352578  2.663293  4.978558
H    -0.438320  3.429379  4.456567
H    -2.544782  3.709259  5.234798
H    -2.404638  2.072138  5.901218
H    -3.127855  2.342725  4.274153
Sr    1.956518  1.505215  1.297360
