35
Energy: -105404.497643 eV PBE+vdW (tier 2 basis)
C    0.671042  -0.204403  0.894752
C    0.163652  -1.233932  1.840188
O    1.017071  -1.879810  2.583637
H    1.481526  -0.638884  0.293666
H    1.101428  0.627460  1.472556
H    -0.098345  0.167270  0.211321
N    -1.119246  -1.533897  1.978404
C    -2.354083  -0.991599  1.326690
C    -2.321857  -1.232240  -0.215753
O    -1.847400  -0.369344  -0.956548
H    -1.299685  -2.257933  2.673484
H    -3.153435  -1.600293  1.772425
C    -2.613670  0.488046  1.664526
C    -4.091494  0.920036  1.544438
C    -4.746985  0.922750  0.148581
C    -4.267198  1.975006  -0.848466
N    -4.877919  3.348133  -0.572080
H    -1.968016  1.109849  1.029112
H    -2.307387  0.660756  2.705692
H    -4.170268  1.918520  2.005000
H    -4.704002  0.276447  2.193679
H    -5.838264  1.013430  0.273413
H    -4.614412  -0.048122  -0.347389
H    -4.572986  1.723266  -1.870279
H    -3.179018  2.108762  -0.846121
H    -4.547889  4.049254  -1.251328
H    -4.645481  3.697923  0.367505
H    -5.905981  3.318380  -0.641076
N    -2.843660  -2.403847  -0.628085
C    -2.903871  -2.811290  -2.032626
H    -3.264071  -3.023307  0.057660
H    -2.479859  -3.815254  -2.148901
H    -2.325992  -2.098439  -2.626665
H    -3.942619  -2.823785  -2.386143
Sr    2.786663  -2.720545  3.571848
