35
Energy: -105404.662778 eV PBE+vdW (tier 2 basis)
C    0.675074  0.486488  0.550122
C    0.076593  0.409806  1.912627
O    0.837084  0.733671  2.917430
H    0.944323  1.537252  0.358164
H    0.014184  0.145872  -0.245025
H    1.588657  -0.117600  0.515784
N    -1.220035  0.215696  2.165510
C    -2.136560  -0.665326  1.423044
C    -1.427560  -2.068069  1.390686
O    -0.197136  -2.110928  1.447175
H    -1.450719  0.308005  3.154077
H    -3.037808  -0.712302  2.050744
C    -2.553509  -0.157391  0.015571
C    -3.959220  -0.603214  -0.433444
C    -4.271056  -0.094862  -1.854223
C    -5.554294  -0.608406  -2.503895
N    -6.819990  0.070976  -1.984469
H    -1.828605  -0.498155  -0.736584
H    -2.511496  0.941591  0.029468
H    -4.704105  -0.238073  0.293956
H    -4.021860  -1.702707  -0.434593
H    -3.465048  -0.418301  -2.530754
H    -4.248140  1.007007  -1.890182
H    -5.704359  -1.684564  -2.350422
H    -5.548425  -0.415622  -3.583167
H    -6.794148  1.088076  -2.148127
H    -6.963106  -0.078984  -0.976751
H    -7.655755  -0.292007  -2.467637
N    -2.229409  -3.136989  1.267298
C    -1.722195  -4.509863  1.185004
H    -3.230504  -3.012001  1.370655
H    -2.397725  -5.106827  0.564347
H    -1.654438  -4.963581  2.182282
H    -0.727694  -4.494697  0.730915
Sr    2.562698  0.958640  4.232632
