35
Energy: -105404.402070 eV PBE+vdW (tier 2 basis)
C    -0.013544  0.534823  0.482269
C    -0.253934  0.173807  1.908687
O    0.652694  -0.487990  2.559459
H    -0.255349  -0.329440  -0.156286
H    1.044308  0.775612  0.328846
H    -0.621349  1.378958  0.144149
N    -1.379052  0.499566  2.527249
C    -2.502715  1.328300  2.005858
C    -3.395141  1.848095  3.157750
O    -3.859137  2.989902  3.072071
H    -1.425288  0.245922  3.515534
H    -2.052662  2.232709  1.576032
C    -3.388639  0.610159  0.938076
C    -3.728695  1.457398  -0.306979
C    -4.340546  2.851536  -0.083636
C    -5.736824  2.852505  0.553091
N    -5.896719  4.058759  1.455607
H    -4.305507  0.247230  1.424635
H    -2.872884  -0.297427  0.595730
H    -4.395502  0.852946  -0.939396
H    -2.817108  1.599890  -0.906548
H    -4.385750  3.363372  -1.054277
H    -3.661984  3.451493  0.541584
H    -5.912004  1.984265  1.198998
H    -6.538551  2.884985  -0.192863
H    -6.840588  4.116502  1.860907
H    -5.725813  4.939703  0.951903
H    -5.200539  3.968717  2.228126
N    -3.653400  1.015268  4.188143
C    -4.523803  1.401773  5.306605
H    -3.476841  0.020458  4.079178
H    -4.293775  0.768968  6.168777
H    -5.583658  1.281338  5.046088
H    -4.332961  2.447819  5.562914
Sr    2.479578  -1.536567  3.231152
