35
Energy: -105404.388046 eV PBE+vdW (tier 2 basis)
C    0.170440  0.047350  0.138932
C    0.145562  -0.129232  1.620851
O    1.252139  -0.263551  2.283685
H    1.188552  0.240741  -0.208617
H    -0.478450  0.870925  -0.187011
H    -0.194831  -0.865774  -0.357932
N    -1.006139  -0.162569  2.276114
C    -2.363525  -0.128364  1.683440
C    -2.870171  1.259310  1.203546
O    -3.567560  1.271966  0.177680
H    -0.947954  -0.285858  3.287391
H    -2.313435  -0.721543  0.762183
C    -3.412923  -0.765634  2.642992
C    -4.286582  -1.870839  2.013350
C    -5.067411  -1.516564  0.736114
C    -6.144775  -0.437152  0.914363
N    -6.213213  0.442756  -0.316865
H    -2.891629  -1.215932  3.501393
H    -4.039170  0.030326  3.070761
H    -4.981728  -2.219552  2.791120
H    -3.650972  -2.737679  1.779717
H    -5.533483  -2.435134  0.355586
H    -4.361702  -1.192422  -0.044114
H    -5.930378  0.246311  1.744305
H    -7.141813  -0.860935  1.077133
H    -6.402672  -0.103877  -1.167844
H    -5.288739  0.918580  -0.416850
H    -6.950652  1.156341  -0.241550
N    -2.603732  2.379036  1.900197
C    -1.977699  2.546540  3.210203
H    -3.002719  3.215368  1.475441
H    -2.306909  3.505068  3.623722
H    -0.881305  2.569940  3.145595
H    -2.297938  1.769295  3.914969
Sr    3.339400  -0.584194  2.940967
