35
Energy: -105405.034720 eV PBE+vdW (tier 2 basis)
C    1.030465  0.597958  0.307249
C    0.748077  0.469163  1.762145
O    1.670394  0.581859  2.621085
H    1.701862  -0.235572  0.039642
H    1.591817  1.515802  0.090361
H    0.142451  0.531124  -0.327109
N    -0.512863  0.190237  2.204007
C    -1.693759  0.969781  1.810606
C    -1.401031  2.446939  2.209225
O    -0.559024  2.671371  3.142783
H    -0.520826  -0.058451  3.194806
H    -1.825305  0.897916  0.722974
C    -2.915649  0.358861  2.555422
C    -4.333095  0.773465  2.115813
C    -4.852919  0.116120  0.816952
C    -5.486237  -1.271502  0.961193
N    -6.934493  -1.216916  1.440559
H    -2.801590  0.586413  3.626645
H    -2.800432  -0.732179  2.461885
H    -4.404762  1.864599  2.024750
H    -5.003970  0.535928  2.956574
H    -4.034928  -0.005865  0.090841
H    -5.567787  0.786570  0.314810
H    -4.956163  -1.914078  1.675624
H    -5.522538  -1.793271  -0.002194
H    -7.328724  -2.166200  1.531225
H    -7.533093  -0.705739  0.774347
H    -7.034587  -0.759621  2.357867
N    -1.983966  3.462675  1.591743
C    -2.861115  3.491314  0.418368
H    -1.733541  4.379077  1.969180
H    -2.432087  4.172728  -0.326206
H    -3.854047  3.864365  0.697731
H    -2.954739  2.499397  -0.029084
Sr    1.548024  2.348878  4.136355
