35
Energy: -105403.926386 eV PBE+vdW (tier 2 basis)
C    -0.089741  -0.600855  -0.400939
C    -0.162285  0.318074  0.793032
O    0.143003  1.493541  0.738065
H    -0.604893  -0.135793  -1.249784
H    -0.484767  -1.610613  -0.244673
H    0.967250  -0.682588  -0.693839
N    -0.519438  -0.223196  2.057198
C    -1.564019  -1.210817  2.325898
C    -0.977441  -2.638692  2.329028
O    -1.726876  -3.687161  2.443458
H    -0.436400  0.501337  2.769827
H    -1.837861  -1.063904  3.386873
C    -2.873189  -1.052057  1.512370
C    -3.664456  0.251011  1.784099
C    -3.178283  1.525115  1.060815
C    -4.154652  2.683468  1.261795
N    -3.653331  3.952371  0.584080
H    -3.529943  -1.891276  1.781883
H    -2.669277  -1.157517  0.437486
H    -3.709297  0.434777  2.869682
H    -4.701491  0.055005  1.473387
H    -3.076365  1.316734  -0.016748
H    -2.184423  1.830902  1.416794
H    -4.283905  2.939417  2.321057
H    -5.144399  2.481322  0.833400
H    -4.301168  4.739983  0.736573
H    -3.557234  3.829570  -0.434592
H    -2.730465  4.238753  0.943790
N    0.328890  -2.740145  2.287941
C    1.112221  -3.968424  2.362101
H    0.804386  -1.831367  2.228502
H    0.833496  -4.654096  1.550648
H    0.983040  -4.453867  3.339638
H    2.170334  -3.717144  2.246653
Sr    -2.657077  -5.651721  2.779703
