35
Energy: -105404.609421 eV PBE+vdW (tier 2 basis)
C    -0.483737  -0.493240  -0.165186
C    -0.253058  -0.206887  1.285454
O    0.961488  0.009040  1.702889
H    -1.539485  -0.660535  -0.401503
H    0.076800  -1.392205  -0.459830
H    -0.122320  0.347946  -0.773598
N    -1.287893  -0.187956  2.091377
C    -1.381760  -0.033075  3.547068
C    -2.589303  -0.945887  3.898580
O    -3.450493  -1.105393  3.022187
H    -2.218306  -0.477044  1.731638
H    -0.450732  -0.384348  4.008879
C    -1.631955  1.442058  3.967016
C    -2.916147  2.136739  3.459920
C    -4.190336  1.912977  4.301674
C    -5.332263  2.775957  3.767406
N    -6.609812  2.602326  4.579066
H    -0.767653  2.022467  3.613931
H    -1.588210  1.485053  5.065218
H    -3.115698  1.856673  2.414308
H    -2.701663  3.215339  3.441940
H    -3.985182  2.179083  5.351263
H    -4.487976  0.854679  4.275843
H    -5.596934  2.517571  2.734399
H    -5.096042  3.846875  3.806362
H    -6.945495  1.628416  4.559020
H    -7.369365  3.194817  4.211229
H    -6.472743  2.861561  5.566925
N    -2.673626  -1.464081  5.133876
C    -1.667118  -1.447405  6.195994
H    -3.480176  -2.072309  5.267151
H    -0.822134  -2.112389  5.969186
H    -2.136163  -1.805594  7.117140
H    -1.299484  -0.433058  6.390676
Sr    3.150699  0.088596  1.543781
