35
Energy: -105405.804350 eV PBE+vdW (tier 2 basis)
C    0.078415  1.409668  0.304124
C    0.164898  0.802384  1.666959
O    1.197592  0.153629  2.014607
H    0.938941  2.072733  0.141988
H    -0.844286  1.971297  0.125333
H    0.156759  0.605129  -0.441786
N    -0.881232  0.974535  2.493631
C    -1.181424  0.397554  3.825411
C    -0.135781  0.766285  4.902323
O    1.043569  0.298623  4.887059
H    -1.640524  1.527061  2.102574
H    -2.112598  0.905902  4.111994
C    -1.516577  -1.115917  3.767012
C    -2.198596  -1.617742  5.060427
C    -3.259049  -2.729747  4.891999
C    -2.705990  -4.116876  4.570953
N    -3.820261  -5.157704  4.576856
H    -0.612557  -1.694257  3.530447
H    -2.197582  -1.235044  2.911157
H    -2.735717  -0.778255  5.527402
H    -1.445497  -1.929390  5.799570
H    -3.983847  -2.428146  4.118621
H    -3.818896  -2.785119  5.838927
H    -1.978527  -4.454191  5.320260
H    -2.242265  -4.179128  3.578679
H    -4.547764  -4.947112  3.877155
H    -4.288379  -5.206593  5.494799
H    -3.460500  -6.101514  4.368652
N    -0.549178  1.567772  5.872888
C    0.262522  2.009677  7.010821
H    -1.493723  1.941086  5.815204
H    -0.396839  2.171905  7.869061
H    0.771386  2.953244  6.773040
H    1.001626  1.242424  7.256392
Sr    2.853337  -0.143755  3.532391
