35
Energy: -105403.972742 eV PBE+vdW (tier 2 basis)
C    -0.979781  0.735979  -0.376132
C    -0.650110  0.424180  1.052123
O    0.336665  -0.243244  1.396888
H    -0.157761  1.318154  -0.814863
H    -1.914255  1.292027  -0.508539
H    -1.035095  -0.205232  -0.938954
N    -1.497444  0.918078  2.012317
C    -1.286396  0.611090  3.433720
C    -2.524482  1.023734  4.229755
O    -3.196745  0.116036  4.871801
H    -2.351119  1.370260  1.702405
H    -1.223127  -0.482817  3.533108
C    0.033870  1.228084  4.024137
C    0.844839  0.286649  4.933651
C    1.494039  -0.972071  4.321142
C    2.869816  -0.846182  3.664713
N    2.878105  -0.099231  2.337284
H    -0.199967  2.128317  4.607693
H    0.623824  1.581509  3.170703
H    0.191898  -0.043354  5.757826
H    1.617796  0.892339  5.431305
H    0.811557  -1.482616  3.626283
H    1.665847  -1.683599  5.142260
H    3.254067  -1.848546  3.444220
H    3.596752  -0.347033  4.317166
H    3.642367  -0.433160  1.735905
H    3.029575  0.907209  2.469131
H    1.963347  -0.218776  1.826456
N    -2.931656  2.276431  4.299226
C    -2.367233  3.500884  3.710538
H    -3.761518  2.430340  4.874089
H    -1.993902  4.147850  4.514830
H    -3.165098  4.031054  3.176172
H    -1.557334  3.268931  3.017674
Sr    -4.465034  -1.389506  5.884820
