35
Energy: -105404.422506 eV PBE+vdW (tier 2 basis)
C    -0.140281  -1.600221  -0.195060
C    0.316357  -0.724028  0.916564
O    1.571970  -0.375549  0.959093
H    0.542374  -2.457352  -0.275119
H    -1.153289  -1.989557  -0.048926
H    -0.075915  -1.038274  -1.139503
N    -0.476781  -0.261703  1.874158
C    -1.938077  -0.446072  2.139027
C    -2.264743  -1.951651  2.375074
O    -2.488910  -2.678745  1.408891
H    0.002687  0.327418  2.554497
H    -2.087661  0.114070  3.069744
C    -2.818582  0.162933  1.028533
C    -4.339991  -0.018861  1.214386
C    -4.975056  0.750126  2.384207
C    -6.467105  0.492705  2.592703
N    -7.341614  1.063381  1.479179
H    -2.558916  -0.307575  0.072737
H    -2.570527  1.231649  0.941674
H    -4.564405  -1.092558  1.301975
H    -4.789652  0.304875  0.261632
H    -4.791475  1.833542  2.292857
H    -4.512226  0.455232  3.338892
H    -6.827191  0.961641  3.515863
H    -6.700512  -0.578780  2.634938
H    -8.339360  0.885751  1.669144
H    -7.128590  0.643994  0.563530
H    -7.225877  2.083385  1.390552
N    -2.306723  -2.383595  3.655300
C    -2.029471  -1.650107  4.888058
H    -2.534720  -3.372967  3.739554
H    -2.114807  -2.348209  5.726003
H    -2.751625  -0.840503  5.064176
H    -1.009579  -1.241753  4.908536
Sr    3.719223  -0.196450  0.551056
