35
Energy: -105404.122302 eV PBE+vdW (tier 2 basis)
C    -0.104921  -0.384516  0.054572
C    -0.171014  -0.315321  1.551691
O    0.818142  -0.424560  2.289303
H    0.522059  0.438873  -0.314180
H    -1.081189  -0.327864  -0.439147
H    0.391791  -1.319188  -0.236492
N    -1.409072  -0.110350  2.108698
C    -1.593939  -0.032340  3.564621
C    -3.079879  -0.186607  3.887229
O    -3.476468  -1.200542  4.596369
H    -2.207062  -0.078549  1.483894
H    -1.101845  -0.912345  4.003828
C    -0.979257  1.255085  4.228660
C    -0.095673  1.014554  5.466314
C    1.276063  0.355814  5.228997
C    2.259736  1.248273  4.456471
N    3.118084  0.427086  3.517604
H    -1.781250  1.943720  4.525454
H    -0.421496  1.780946  3.442722
H    -0.645457  0.406987  6.202567
H    0.047444  1.986929  5.960944
H    1.139647  -0.586885  4.681470
H    1.712322  0.097136  6.202928
H    2.931383  1.801100  5.122658
H    1.749737  1.975734  3.814343
H    3.651510  -0.296369  4.017498
H    2.483467  -0.034616  2.823029
H    3.798484  1.012419  3.014603
N    -3.980994  0.687989  3.482712
C    -3.830030  1.931554  2.711331
H    -4.939502  0.486919  3.771424
H    -4.508797  1.895493  1.850261
H    -2.804352  2.060241  2.363138
H    -4.111527  2.782517  3.344782
Sr    -4.248990  -2.942945  5.716442
