35
Energy: -105405.823999 eV PBE+vdW (tier 2 basis)
C    -0.099816  0.613414  -0.010634
C    -0.188871  0.479630  1.471471
O    0.809774  0.720267  2.214187
H    0.161558  1.653691  -0.254720
H    -1.025124  0.347241  -0.531890
H    0.720208  -0.013172  -0.387282
N    -1.360647  0.102595  2.018600
C    -1.629573  0.056433  3.464994
C    -0.826108  -1.100918  4.120357
O    0.269497  -0.792469  4.690697
H    -2.136030  -0.069460  1.382901
H    -1.166186  0.953148  3.903141
C    -3.149657  0.137641  3.730079
C    -3.515826  0.137144  5.225085
C    -5.029575  0.135196  5.541983
C    -5.731530  1.473783  5.307296
N    -7.169444  1.434861  5.811060
H    -3.674182  -0.680795  3.217217
H    -3.485849  1.070146  3.250924
H    -3.037718  0.991179  5.730248
H    -3.099841  -0.761424  5.704418
H    -5.136489  -0.137861  6.603267
H    -5.531384  -0.657185  4.963608
H    -5.794849  1.751140  4.248126
H    -5.246409  2.292993  5.853011
H    -7.213535  1.234580  6.821843
H    -7.727186  0.711292  5.333282
H    -7.646617  2.336634  5.659234
N    -1.207163  -2.369706  4.079769
C    -2.358461  -3.000947  3.426494
H    -0.573958  -3.002041  4.572036
H    -2.111602  -4.053724  3.257751
H    -2.561001  -2.544769  2.453045
H    -3.251053  -2.957240  4.063088
Sr    2.168772  0.361706  4.018302
