35
Energy: -105404.324914 eV PBE+vdW (tier 2 basis)
C    -1.032036  -3.290554  0.233555
C    -0.874622  -2.665713  1.583793
O    0.138387  -2.827624  2.287017
H    -2.001862  -3.094341  -0.236357
H    -0.874404  -4.373402  0.315401
H    -0.234641  -2.909099  -0.419684
N    -1.903666  -1.877979  2.047618
C    -1.730465  -1.039369  3.234664
C    -1.877532  -1.933258  4.492018
O    -2.897744  -1.902597  5.288375
H    -2.739269  -1.763183  1.481870
H    -0.669990  -0.734958  3.234232
C    -2.626537  0.206005  3.200312
C    -2.092057  1.395423  4.026402
C    -0.985878  2.255276  3.367896
C    -1.537774  3.264383  2.359783
N    -0.449568  4.203311  1.852638
H    -3.637625  -0.052021  3.544789
H    -2.738658  0.497094  2.145479
H    -1.698939  1.030888  4.987042
H    -2.936307  2.048168  4.291762
H    -0.228624  1.615760  2.885532
H    -0.464746  2.803288  4.167968
H    -2.301552  3.911058  2.809819
H    -1.967864  2.794589  1.466819
H    -0.827207  4.886111  1.178078
H    0.311683  3.695174  1.378991
H    -0.023931  4.741081  2.622658
N    -0.895029  -2.783067  4.680835
C    -0.875328  -3.771700  5.742661
H    -0.212815  -2.830748  3.854605
H    -1.703365  -4.496893  5.633189
H    -0.897513  -3.286141  6.733367
H    0.055570  -4.345575  5.689064
Sr    -4.078130  -2.806384  6.922189
