35
Energy: -105403.787328 eV PBE+vdW (tier 2 basis)
C    1.260856  -1.156636  2.007408
C    0.757330  -1.106104  3.420344
O    1.418032  -1.536476  4.369186
H    0.706336  -0.516888  1.312972
H    1.258905  -2.193811  1.641180
H    2.312275  -0.840849  2.018313
N    -0.480796  -0.522755  3.675789
C    -1.671159  -0.803241  2.880447
C    -2.328607  0.443543  2.270944
O    -2.810363  0.362780  1.065104
H    -0.643589  -0.493609  4.681106
H    -1.357999  -1.398069  2.013250
C    -2.731960  -1.629997  3.695798
C    -2.141415  -2.626599  4.716757
C    -1.242566  -3.737198  4.146937
C    -0.436600  -4.530771  5.177878
N    0.595585  -3.689286  5.924332
H    -3.374779  -2.159703  2.978547
H    -3.389767  -0.941653  4.246216
H    -2.994698  -3.083791  5.239010
H    -1.612581  -2.059140  5.499600
H    -0.545981  -3.351828  3.388250
H    -1.864335  -4.476562  3.620517
H    0.122692  -5.328707  4.677225
H    -1.076007  -4.996362  5.937592
H    1.396130  -4.268825  6.210329
H    0.208806  -3.288758  6.787321
H    0.965601  -2.883660  5.346111
N    -2.441307  1.583187  2.920847
C    -2.044928  1.938444  4.293965
H    -2.874974  2.339616  2.392016
H    -2.348502  1.161296  5.002269
H    -2.569455  2.861223  4.558852
H    -0.964342  2.111472  4.351089
Sr    -3.709090  0.406394  -0.955719
