35
Energy: -105403.848600 eV PBE+vdW (tier 2 basis)
C    0.233533  0.036706  -0.233698
C    0.349424  0.233390  1.251085
O    1.227574  -0.303335  1.929427
H    1.220484  -0.223189  -0.629665
H    -0.156714  0.911024  -0.767579
H    -0.434756  -0.811991  -0.449100
N    -0.568483  1.061006  1.895528
C    -1.981762  1.175763  1.520332
C    -2.486338  2.534324  2.034597
O    -1.956859  3.622561  1.586476
H    -0.401550  1.044277  2.902412
H    -2.025512  1.279694  0.425023
C    -2.834221  -0.068353  1.912341
C    -2.459966  -0.773796  3.240117
C    -1.440505  -1.927288  3.047071
C    -0.412715  -2.062984  4.178659
N    0.911677  -2.567519  3.639410
H    -2.730938  -0.789373  1.089315
H    -3.903519  0.192492  1.883945
H    -3.373338  -1.174801  3.696433
H    -2.069321  -0.047526  3.973066
H    -0.897173  -1.771076  2.106395
H    -1.981726  -2.874264  2.919043
H    -0.181737  -1.096117  4.642426
H    -0.733224  -2.750472  4.969549
H    1.606801  -2.685960  4.389692
H    0.816906  -3.478021  3.168612
H    1.279375  -1.868198  2.954468
N    -3.457993  2.583123  2.919176
C    -4.060732  3.797855  3.475350
H    -3.852033  1.692674  3.216646
H    -4.818847  3.505434  4.206939
H    -4.549531  4.379564  2.683174
H    -3.301236  4.404875  3.983409
Sr    -1.104177  5.490950  0.783534
