35
Energy: -105403.920477 eV PBE+vdW (tier 2 basis)
C    0.355941  0.918017  2.412272
C    -0.363091  -0.117562  3.224640
O    0.180778  -1.059386  3.770700
H    -0.292693  1.692142  1.986995
H    0.922582  0.439506  1.601105
H    1.120228  1.388203  3.050542
N    -1.797604  0.049270  3.393958
C    -2.578537  -0.084304  2.109782
C    -3.433619  1.169778  1.886953
O    -3.651148  1.938066  2.888120
H    -2.067866  -0.740952  3.991819
H    -1.864916  -0.171619  1.277180
C    -3.472891  -1.351665  2.167015
C    -2.808586  -2.707924  2.500245
C    -2.000770  -3.432752  1.398175
C    -0.486442  -3.247606  1.304188
N    0.263313  -3.765773  2.525990
H    -4.004577  -1.441598  1.209455
H    -4.259229  -1.168480  2.917441
H    -3.648794  -3.367526  2.756421
H    -2.231977  -2.649992  3.439754
H    -2.398893  -3.173266  0.405187
H    -2.197609  -4.512493  1.487830
H    -0.100418  -3.815052  0.448835
H    -0.164967  -2.206453  1.183590
H    1.268100  -3.873404  2.322720
H    -0.083217  -4.690083  2.822687
H    0.187812  -3.105845  3.319717
N    -3.959685  1.455131  0.713878
C    -3.845063  0.750684  -0.567340
H    -4.555246  2.287296  0.710350
H    -3.721769  1.494664  -1.362198
H    -4.758640  0.174792  -0.764875
H    -2.977872  0.084580  -0.575431
Sr    -2.752656  2.308594  4.893577
