35
Energy: -105405.558811 eV PBE+vdW (tier 2 basis)
C    -1.420367  0.135980  -0.496147
C    -1.028231  0.522419  0.894605
O    -0.332017  1.561352  1.095763
H    -1.897130  -0.847243  -0.567765
H    -0.547640  0.167532  -1.159947
H    -2.125979  0.894201  -0.870560
N    -1.443047  -0.272872  1.899854
C    -1.539916  -0.039129  3.352477
C    -0.298631  0.577929  4.015855
O    0.846785  0.587998  3.465398
H    -2.012722  -1.055886  1.589045
H    -2.360661  0.681102  3.510642
C    -1.971830  -1.366723  4.044619
C    -0.938177  -2.506725  4.030183
C    -1.294605  -3.723159  4.917421
C    -2.438606  -4.590658  4.390087
N    -2.620477  -5.838138  5.246494
H    -2.917677  -1.671362  3.568274
H    -2.239769  -1.125868  5.082034
H    0.026060  -2.128754  4.400528
H    -0.744838  -2.849675  3.001899
H    -1.528275  -3.378778  5.937834
H    -0.387904  -4.342825  4.997075
H    -2.245279  -4.953337  3.372455
H    -3.409703  -4.080849  4.399682
H    -3.387235  -6.430499  4.892528
H    -2.843946  -5.604578  6.225561
H    -1.768558  -6.419355  5.259499
N    -0.447244  1.114440  5.225987
C    -1.643028  1.308185  6.054388
H    0.429780  1.425832  5.644471
H    -1.763852  0.485062  6.770238
H    -2.543844  1.400558  5.440070
H    -1.519840  2.238595  6.618721
Sr    1.770762  1.997175  1.859871
