35
Energy: -105404.213536 eV PBE+vdW (tier 2 basis)
C    -0.382231  1.176357  -0.045378
C    -0.434214  0.636848  1.351005
O    0.441815  -0.087562  1.839509
H    -1.266690  1.755334  -0.332850
H    -0.255349  0.337566  -0.743345
H    0.508573  1.809977  -0.159863
N    -1.544733  0.982071  2.109568
C    -1.634525  0.568958  3.499993
C    -2.931200  -0.216140  3.741764
O    -3.377886  -0.426323  4.935794
H    -2.125200  1.747580  1.773339
H    -0.828511  -0.186569  3.583023
C    -1.389334  1.661776  4.578231
C    -0.365770  2.787823  4.289246
C    1.015902  2.481325  3.676494
C    1.835581  1.350772  4.308113
N    2.735137  0.727961  3.257841
H    -1.102035  1.132465  5.499186
H    -2.338693  2.171155  4.802593
H    -0.228701  3.313452  5.245154
H    -0.832596  3.529733  3.626713
H    1.599096  3.412192  3.716250
H    0.890730  2.265515  2.608831
H    1.217416  0.524569  4.677371
H    2.472382  1.695298  5.130912
H    3.332808  -0.014216  3.646502
H    3.358997  1.425289  2.828158
H    2.125903  0.314528  2.513204
N    -3.563156  -0.708368  2.698225
C    -4.765781  -1.538314  2.729102
H    -3.140605  -0.493814  1.793341
H    -4.582978  -2.463726  3.291694
H    -5.029506  -1.809965  1.703066
H    -5.609307  -0.981768  3.159657
Sr    -4.450322  -0.878832  6.808724
