35
Energy: -105404.627081 eV PBE+vdW (tier 2 basis)
C    -0.303255  0.207169  -1.114290
C    0.099954  0.157088  0.321330
O    1.359520  0.017281  0.608523
H    -1.380957  0.285161  -1.273904
H    0.052680  -0.701798  -1.619426
H    0.183826  1.064460  -1.600913
N    -0.774868  0.250992  1.304721
C    -2.229931  0.501407  1.223556
C    -2.595271  1.207393  2.539936
O    -2.068177  0.788098  3.597181
H    -0.433255  0.201619  2.271938
H    -2.415839  1.159688  0.368065
C    -3.074539  -0.791454  1.062026
C    -2.885892  -1.895421  2.134546
C    -4.140447  -2.277678  2.943262
C    -4.733554  -1.252152  3.904812
N    -3.782126  -0.875367  5.029674
H    -2.855293  -1.202255  0.067066
H    -4.125903  -0.470206  1.007463
H    -2.063538  -1.638334  2.817902
H    -2.558307  -2.812383  1.628855
H    -3.928327  -3.203332  3.501662
H    -4.953986  -2.548807  2.253145
H    -5.636476  -1.657989  4.375890
H    -5.007891  -0.307892  3.417158
H    -3.014625  -0.257088  4.660083
H    -3.369166  -1.710536  5.465631
H    -4.273986  -0.361700  5.772703
N    -3.497143  2.192148  2.510393
C    -4.155849  2.798466  1.345305
H    -3.674142  2.625594  3.415988
H    -4.640668  2.042041  0.717330
H    -3.450590  3.389945  0.747070
H    -4.934950  3.473251  1.711335
Sr    3.559074  -0.105975  0.567860
