35
Energy: -105405.108149 eV PBE+vdW (tier 2 basis)
C    0.771137  0.115132  1.289643
C    0.183149  -0.590998  2.468783
O    0.306396  -1.847616  2.569077
H    0.016874  0.235750  0.495820
H    1.577140  -0.506249  0.883778
H    1.164739  1.104378  1.538516
N    -0.459685  0.074318  3.473262
C    -1.565423  1.029679  3.288639
C    -2.754337  0.239606  2.648420
O    -2.542123  -0.908510  2.133816
H    -0.618753  -0.546895  4.268135
H    -1.879785  1.294563  4.309926
C    -1.220221  2.336365  2.534819
C    -0.110431  3.200851  3.176912
C    -0.564993  4.036990  4.387774
C    0.517804  4.880577  5.065419
N    0.908332  6.130917  4.281025
H    -2.141213  2.929792  2.457051
H    -0.947590  2.104091  1.499071
H    0.262750  3.860704  2.378038
H    0.739090  2.565120  3.470689
H    -0.938729  3.378099  5.186800
H    -1.418944  4.679787  4.116657
H    1.448402  4.320738  5.222843
H    0.172617  5.248357  6.038806
H    1.620493  6.673509  4.794109
H    0.102219  6.756672  4.135337
H    1.305488  5.914041  3.356516
N    -3.980171  0.736180  2.666706
C    -4.492695  1.968957  3.272918
H    -4.676692  0.153633  2.198853
H    -3.845836  2.304937  4.088485
H    -5.484281  1.758918  3.688275
H    -4.591894  2.760170  2.518686
Sr    -1.584789  -3.039511  1.940705
