35
Energy: -105404.661370 eV PBE+vdW (tier 2 basis)
C    -0.171465  -0.889125  0.949352
C    -0.183494  0.090441  2.073905
O    0.920455  0.288358  2.739978
H    0.505633  -0.531632  0.160037
H    -1.157553  -1.059710  0.510220
H    0.225007  -1.848949  1.306870
N    -1.253404  0.765489  2.419725
C    -2.580817  0.869205  1.786718
C    -2.984060  2.328789  2.163521
O    -2.565913  2.749450  3.250958
H    -1.217880  1.463987  3.191769
H    -2.483928  0.723553  0.704686
C    -3.562186  -0.163869  2.399944
C    -4.984913  -0.134314  1.812473
C    -5.868391  -1.306604  2.293726
C    -6.547342  -1.160582  3.656073
N    -7.862802  -0.388858  3.569341
H    -3.580524  -0.000628  3.488605
H    -3.132501  -1.164794  2.238262
H    -4.926268  -0.196872  0.716590
H    -5.463940  0.834820  2.028955
H    -5.262066  -2.222812  2.345651
H    -6.633513  -1.530345  1.533364
H    -5.933724  -0.629792  4.394563
H    -6.816968  -2.137303  4.074282
H    -8.306699  -0.299283  4.495608
H    -8.535787  -0.872084  2.955644
H    -7.735932  0.562180  3.197112
N    -3.759555  3.053180  1.341279
C    -4.232394  2.771900  -0.012011
H    -3.963846  3.982406  1.709595
H    -5.314838  2.589273  -0.027012
H    -3.724131  1.901941  -0.437328
H    -4.019246  3.632786  -0.656204
Sr    2.888105  0.600422  3.623835
