35
Energy: -105403.772182 eV PBE+vdW (tier 2 basis)
C    0.060247  -0.250145  0.548904
C    0.049763  0.555695  1.812610
O    1.018849  0.591876  2.577611
H    -0.707562  0.047376  -0.172815
H    -0.045410  -1.319573  0.784440
H    1.049392  -0.135873  0.087391
N    -1.070295  1.323796  2.123486
C    -2.438320  0.821408  2.036733
C    -3.418039  1.749798  1.303499
O    -4.315805  1.201438  0.538831
H    -0.887178  1.861139  2.970675
H    -2.425028  -0.090053  1.423985
C    -2.933989  0.449269  3.463731
C    -2.114148  -0.724920  4.065975
C    -1.635944  -0.550548  5.520742
C    -0.510335  0.440955  5.820417
N    0.841169  0.040384  5.256172
H    -4.001790  0.190967  3.439297
H    -2.863863  1.350203  4.093990
H    -1.253916  -0.956479  3.420565
H    -2.735005  -1.629544  4.037547
H    -1.343777  -1.539148  5.908893
H    -2.482796  -0.245968  6.154420
H    -0.383997  0.524544  6.906316
H    -0.706618  1.452899  5.440981
H    1.594754  0.567067  5.719204
H    0.923337  0.246017  4.216189
H    1.038240  -0.956461  5.417457
N    -3.407177  3.061089  1.419967
C    -2.545674  3.941571  2.226916
H    -4.104411  3.547188  0.856164
H    -2.471504  3.578229  3.256573
H    -3.016649  4.928541  2.252542
H    -1.552552  4.032238  1.772408
Sr    -5.872178  0.405195  -0.820008
