35
Energy: -105405.718781 eV PBE+vdW (tier 2 basis)
C    0.220393  1.864323  2.103599
C    -0.117114  0.411963  2.228649
O    0.797334  -0.440783  2.435768
H    -0.646619  2.509853  1.928997
H    0.932803  1.988509  1.275411
H    0.737187  2.201781  3.012367
N    -1.413390  0.067585  2.116095
C    -2.077613  -1.252477  2.046129
C    -1.916196  -2.109561  3.315738
O    -0.775164  -2.425619  3.777747
H    -2.043008  0.854228  1.981062
H    -3.141026  -0.990792  1.986982
C    -1.760809  -2.063544  0.759440
C    -2.256913  -1.334081  -0.507596
C    -2.524445  -2.202568  -1.757912
C    -1.279643  -2.658233  -2.517282
N    -1.663458  -3.317829  -3.837418
H    -2.279785  -3.029918  0.861532
H    -0.685428  -2.286126  0.711125
H    -1.571938  -0.513344  -0.768376
H    -3.219071  -0.853217  -0.274807
H    -3.143466  -1.594359  -2.436367
H    -3.135668  -3.076197  -1.480142
H    -0.685771  -3.401585  -1.971609
H    -0.628288  -1.816075  -2.783466
H    -0.832941  -3.630296  -4.362823
H    -2.182085  -2.667859  -4.447995
H    -2.264191  -4.143701  -3.695691
N    -3.011056  -2.565875  3.906737
C    -4.424372  -2.331252  3.575463
H    -2.830227  -3.169204  4.710509
H    -5.031706  -2.841077  4.328602
H    -4.679306  -2.749491  2.594162
H    -4.669341  -1.262855  3.613063
Sr    1.465546  -2.011453  3.953906
