35
Energy: -105405.636846 eV PBE+vdW (tier 2 basis)
C    0.613790  2.426122  1.773076
C    0.048697  1.308364  2.589497
O    0.556565  1.015259  3.710864
H    1.676533  2.220764  1.580836
H    0.576112  3.356704  2.356364
H    0.099903  2.585638  0.819431
N    -1.008206  0.638618  2.086266
C    -1.725885  -0.542842  2.618403
C    -2.401456  -0.250694  3.976609
O    -1.710700  -0.144862  5.037847
H    -1.353679  0.994478  1.199606
H    -2.528769  -0.715207  1.892260
C    -0.855667  -1.820346  2.703626
C    -0.455236  -2.479159  1.364335
C    -1.595875  -3.231016  0.641518
C    -1.184313  -4.443089  -0.196589
N    -0.431258  -4.103350  -1.480759
H    -1.401963  -2.556905  3.313043
H    0.060245  -1.583869  3.261359
H    0.341874  -3.196912  1.612544
H    0.009871  -1.730523  0.703259
H    -2.215504  -2.553049  0.032904
H    -2.280946  -3.656526  1.392108
H    -2.066297  -5.008815  -0.519898
H    -0.528802  -5.123370  0.361993
H    -0.994129  -3.513806  -2.111125
H    -0.200568  -4.963764  -2.002042
H    0.456787  -3.614965  -1.301188
N    -3.720890  -0.148018  4.036444
C    -4.719644  -0.217999  2.960302
H    -4.085352  -0.008477  4.980463
H    -4.828953  -1.243552  2.585756
H    -4.472657  0.468282  2.142551
H    -5.681453  0.093776  3.377851
Sr    0.255922  0.615984  5.942703
