35
Energy: -105406.018555 eV PBE+vdW (tier 2 basis)
C    -0.384802  0.734150  -0.517394
C    -0.321239  0.013041  0.787056
O    0.709319  -0.645318  1.120297
H    -0.174683  0.034585  -1.337460
H    0.414335  1.490144  -0.536366
H    -1.344842  1.227372  -0.701493
N    -1.381746  0.086314  1.613041
C    -1.441716  -0.431397  2.992847
C    -1.574760  -1.977716  2.962126
O    -0.518498  -2.673924  2.865901
H    -2.186062  0.611519  1.277443
H    -0.455875  -0.248896  3.447393
C    -2.505095  0.355848  3.789542
C    -2.481037  0.080753  5.304730
C    -3.578660  0.787801  6.133982
C    -3.352003  2.286328  6.341687
N    -4.372087  2.867243  7.313473
H    -3.513085  0.162387  3.381829
H    -2.307515  1.420743  3.592660
H    -1.491616  0.343467  5.710909
H    -2.600243  -0.996913  5.487255
H    -3.604975  0.295299  7.118381
H    -4.565450  0.617717  5.674054
H    -3.451958  2.872776  5.420308
H    -2.368532  2.495036  6.781619
H    -5.338970  2.751350  6.974888
H    -4.219802  3.876840  7.460206
H    -4.317478  2.414593  8.238643
N    -2.774825  -2.530028  3.009439
C    -3.048795  -3.970162  2.943538
H    -3.579609  -1.911040  3.062183
H    -2.182970  -4.523084  3.316378
H    -3.263033  -4.270303  1.909454
H    -3.921107  -4.192699  3.565881
Sr    1.585414  -2.604824  1.894570
