35
Energy: -105404.551602 eV PBE+vdW (tier 2 basis)
C    0.147465  0.775615  0.337933
C    0.013420  0.137888  1.676772
O    1.068626  -0.009078  2.416561
H    0.192107  1.867838  0.469601
H    -0.688960  0.550149  -0.329992
H    1.079118  0.447932  -0.137518
N    -1.148924  -0.295663  2.132011
C    -2.493331  0.063815  1.625519
C    -2.561404  1.624834  1.602841
O    -1.900559  2.248607  2.430400
H    -1.128829  -0.668314  3.081640
H    -2.620490  -0.382163  0.629783
C    -3.506354  -0.529172  2.635993
C    -5.011515  -0.325075  2.383172
C    -5.671179  -1.302049  1.388195
C    -7.189811  -1.125866  1.414571
N    -7.914449  -2.161725  0.563625
H    -3.277640  -0.066478  3.608873
H    -3.297235  -1.606408  2.735727
H    -5.216170  0.716047  2.094673
H    -5.501319  -0.454229  3.359475
H    -5.416167  -2.335190  1.675667
H    -5.292322  -1.147862  0.365444
H    -7.504954  -0.146906  1.032209
H    -7.592759  -1.241303  2.428696
H    -8.936029  -2.024977  0.602736
H    -7.724236  -3.121199  0.888129
H    -7.638342  -2.111882  -0.427475
N    -3.345349  2.228807  0.680281
C    -4.104896  1.669669  -0.430188
H    -3.372982  3.241859  0.791048
H    -4.070413  2.369388  -1.272566
H    -5.161361  1.509194  -0.169231
H    -3.672823  0.723202  -0.773707
Sr    2.960725  0.275948  3.478519
