35
Energy: -105404.680420 eV PBE+vdW (tier 2 basis)
C    -1.036136  -1.268917  0.728687
C    -0.234501  -0.711881  1.856580
O    0.942159  -1.213495  2.077155
H    -2.021246  -0.811563  0.615280
H    -1.173519  -2.346113  0.907856
H    -0.492141  -1.139408  -0.214109
N    -0.737826  0.138478  2.752919
C    -1.726898  1.165123  2.415729
C    -1.057416  2.012106  1.259456
O    -0.116027  1.511554  0.639596
H    -0.090457  0.388249  3.501521
H    -2.598085  0.665268  1.967061
C    -2.181010  1.918169  3.690463
C    -3.675514  2.302628  3.732050
C    -4.052198  2.925041  5.090839
C    -5.540898  3.049590  5.409192
N    -6.238776  4.200832  4.687172
H    -1.549411  2.805888  3.847613
H    -1.997281  1.254980  4.548951
H    -4.278341  1.395256  3.567194
H    -3.926674  2.989065  2.904851
H    -3.552491  3.897374  5.233067
H    -3.653531  2.283395  5.892114
H    -5.692180  3.248941  6.476657
H    -6.103966  2.144762  5.147433
H    -7.229503  4.260743  4.967933
H    -6.221754  4.093987  3.664099
H    -5.805212  5.107349  4.915963
N    -1.594171  3.209273  0.988506
C    -1.114817  4.077230  -0.091222
H    -2.341182  3.558506  1.576081
H    -0.376331  4.798132  0.282257
H    -1.963461  4.618304  -0.521682
H    -0.650400  3.458059  -0.863457
Sr    2.928835  -2.037232  1.717761
