35
Energy: -105403.869849 eV PBE+vdW (tier 2 basis)
C    0.432126  0.066921  0.325288
C    0.185073  0.240040  1.794227
O    1.096626  0.412997  2.625788
H    -0.469402  0.156010  -0.290863
H    0.861802  -0.931010  0.150152
H    1.176241  0.800072  -0.008677
N    -1.118124  0.227150  2.201113
C    -1.597339  0.169218  3.578276
C    -1.372178  1.406352  4.462200
O    -1.770439  1.305445  5.701143
H    -1.821071  0.080720  1.482340
H    -2.696953  0.208502  3.473241
C    -1.340999  -1.207661  4.283820
C    0.039749  -1.876148  4.214593
C    1.149893  -1.301492  5.111894
C    2.545885  -1.822429  4.751941
N    3.184522  -1.019216  3.622749
H    -2.055955  -1.899431  3.818041
H    -1.662682  -1.118051  5.333201
H    0.362625  -1.920497  3.165928
H    -0.117503  -2.927782  4.498296
H    0.964302  -1.597106  6.155053
H    1.158227  -0.201367  5.092893
H    2.507121  -2.866426  4.418621
H    3.235511  -1.772063  5.601002
H    2.454822  -0.529273  3.033139
H    3.774507  -1.609780  3.023454
H    3.793603  -0.281909  3.998327
N    -0.951179  2.589840  4.065994
C    -0.553726  3.142072  2.757299
H    -0.932138  3.274724  4.821601
H    -0.562765  4.231229  2.856400
H    -1.264703  2.853908  1.980235
H    0.458586  2.816614  2.497574
Sr    -2.854171  1.259699  7.620303
