35
Energy: -105404.423727 eV PBE+vdW (tier 2 basis)
C    0.033843  -0.547899  0.431753
C    -0.392561  -0.592472  1.856302
O    0.522553  -0.625953  2.783481
H    0.829116  -1.287434  0.270728
H    0.459663  0.445429  0.220765
H    -0.781995  -0.757315  -0.268171
N    -1.659779  -0.588838  2.245390
C    -2.937702  -0.522015  1.466079
C    -3.069761  -1.775588  0.549453
O    -2.643993  -1.726993  -0.604210
H    -1.782542  -0.612960  3.257431
H    -3.706138  -0.554074  2.249048
C    -3.078091  0.799930  0.690053
C    -4.496873  1.151596  0.184807
C    -4.996764  0.366517  -1.047024
C    -5.963245  1.118092  -1.956252
N    -7.330787  1.379518  -1.324550
H    -2.390388  0.795728  -0.165946
H    -2.758406  1.607226  1.364373
H    -4.452116  2.221358  -0.074339
H    -5.212315  1.075163  1.020507
H    -5.429745  -0.606044  -0.765182
H    -4.143227  0.113455  -1.693118
H    -6.169068  0.548633  -2.870363
H    -5.577508  2.104370  -2.244584
H    -7.803699  0.500529  -1.070785
H    -7.949340  1.878771  -1.981140
H    -7.262188  1.955685  -0.474654
N    -3.661533  -2.869896  1.076852
C    -4.185437  -3.073930  2.425889
H    -3.703659  -3.658047  0.433012
H    -4.584688  -4.090670  2.485688
H    -5.008383  -2.385508  2.660841
H    -3.403065  -2.985974  3.192935
Sr    2.419691  -0.700180  3.882695
