35
Energy: -105404.213996 eV PBE+vdW (tier 2 basis)
C    -0.513392  -0.807910  0.063707
C    -0.340330  -0.344574  1.481041
O    0.750657  -0.375690  2.067454
H    0.286898  -0.381860  -0.553714
H    -1.484746  -0.558155  -0.377074
H    -0.391391  -1.900541  0.034229
N    -1.470247  0.139314  2.096877
C    -1.702391  0.443529  3.511783
C    -1.922281  1.938727  3.800179
O    -2.843633  2.244561  4.669409
H    -2.313990  0.091430  1.532844
H    -2.693751  0.015357  3.723590
C    -0.753721  -0.233676  4.550369
C    0.586217  0.436148  4.895859
C    1.592067  -0.503194  5.593017
C    2.098066  -1.721387  4.819113
N    2.844330  -1.363856  3.547209
H    -0.609134  -1.254447  4.173231
H    -1.338279  -0.349764  5.475317
H    0.414175  1.282263  5.578164
H    1.046772  0.857026  3.995820
H    1.153377  -0.906590  6.518738
H    2.455207  0.094337  5.924681
H    1.293902  -2.399371  4.508416
H    2.791430  -2.295602  5.444733
H    3.295044  -2.196054  3.143596
H    3.588710  -0.676366  3.723729
H    2.179630  -0.977391  2.833025
N    -1.260151  2.915782  3.220769
C    -0.172765  2.891176  2.231717
H    -1.562277  3.852074  3.493071
H    -0.586697  2.983087  1.219593
H    0.416009  1.976487  2.314139
H    0.472271  3.753689  2.429373
Sr    -4.512177  2.793867  6.007149
