35
Energy: -105404.413971 eV PBE+vdW (tier 2 basis)
C    0.088078  -0.792045  0.192620
C    0.036859  -0.268916  1.593823
O    1.084173  0.000532  2.241028
H    0.571196  -1.780098  0.195668
H    0.719976  -0.131344  -0.415014
H    -0.893855  -0.893448  -0.281241
N    -1.188538  -0.077999  2.140990
C    -1.541294  0.247038  3.534389
C    -1.052032  1.615136  4.029091
O    -1.861935  2.323293  4.756097
H    -1.979184  -0.291370  1.539346
H    -2.629681  0.383624  3.500039
C    -1.316320  -0.921157  4.560620
C    -0.060970  -1.803306  4.465327
C    1.228152  -1.284286  5.127601
C    2.465867  -2.099064  4.746646
N    3.063610  -1.643055  3.414440
H    -2.183226  -1.582809  4.431034
H    -1.414134  -0.502587  5.575120
H    0.110022  -2.072704  3.413249
H    -0.321586  -2.754730  4.952204
H    1.125813  -1.354289  6.219968
H    1.411956  -0.221272  4.913364
H    2.226919  -3.163882  4.638495
H    3.264889  -2.011036  5.490273
H    3.482402  -2.427258  2.897838
H    2.351183  -1.168310  2.806737
H    3.815928  -0.959848  3.567994
N    0.145624  2.040965  3.723485
C    0.715221  3.332354  4.101647
H    0.709046  1.360355  3.156313
H    0.086853  4.155095  3.736293
H    0.832452  3.405630  5.190963
H    1.700364  3.426446  3.636857
Sr    -3.253183  3.638313  5.845115
