35
Energy: -105403.666604 eV PBE+vdW (tier 2 basis)
C    -2.631044  -1.210288  0.497273
C    -1.444506  -1.154046  1.417776
O    -0.864337  -2.166670  1.819884
H    -2.568028  -2.137014  -0.083119
H    -2.699628  -0.360625  -0.192540
H    -3.567877  -1.255505  1.074029
N    -0.959550  0.085701  1.817417
C    -1.812328  1.231599  2.108201
C    -1.030706  2.546763  1.951217
O    -1.195949  3.519864  2.795390
H    -0.140194  -0.014291  2.414303
H    -2.570007  1.286517  1.304258
C    -2.596120  1.066188  3.436034
C    -1.836953  0.684808  4.728447
C    -1.219258  -0.727993  4.881232
C    -2.190318  -1.907326  4.733797
N    -1.440627  -3.156692  4.325221
H    -3.376650  0.320116  3.227949
H    -3.161971  1.991060  3.624460
H    -2.546350  0.831874  5.556601
H    -1.020402  1.401976  4.911488
H    -0.759310  -0.772255  5.878953
H    -0.390887  -0.867855  4.174550
H    -2.725107  -2.123999  5.665660
H    -2.937735  -1.751498  3.946865
H    -1.042801  -2.999080  3.363156
H    -2.059673  -3.978446  4.289421
H    -0.674682  -3.382087  4.974644
N    -0.215282  2.729434  0.930746
C    0.047492  1.886465  -0.250061
H    0.275321  3.623567  0.930611
H    0.406345  2.547628  -1.045256
H    -0.867092  1.392558  -0.587033
H    0.816636  1.137420  -0.031820
Sr    -1.581111  5.380311  3.928871
