35
Energy: -105404.011480 eV PBE+vdW (tier 2 basis)
C    0.146955  0.568076  0.123020
C    0.019151  0.293044  1.594943
O    0.985527  0.286623  2.366352
H    0.705883  -0.259978  -0.336644
H    0.746326  1.473910  -0.031458
H    -0.808912  0.680787  -0.400543
N    -1.264009  0.061818  2.050073
C    -1.612511  -0.519473  3.351598
C    -3.126088  -0.519621  3.577835
O    -3.640114  -1.582939  4.123780
H    -1.939150  -0.093047  1.305424
H    -1.357869  -1.593547  3.333336
C    -0.885995  0.022928  4.630344
C    -0.926617  1.515641  5.010384
C    0.099157  2.455553  4.346204
C    1.555409  2.157300  4.753389
N    2.490768  2.206427  3.565466
H    0.148148  -0.330691  4.553132
H    -1.328454  -0.549705  5.460486
H    -0.771518  1.562159  6.099101
H    -1.930653  1.937443  4.864486
H    -0.147514  3.486103  4.633099
H    0.001536  2.415021  3.253601
H    1.672138  1.149034  5.166977
H    1.929244  2.869269  5.497358
H    3.456863  1.975341  3.834144
H    2.512300  3.137893  3.130363
H    2.152966  1.500783  2.861275
N    -3.935300  0.478421  3.283403
C    -3.682894  1.814906  2.722702
H    -4.917432  0.298236  3.499829
H    -4.207201  1.904953  1.762706
H    -2.615989  1.980307  2.579934
H    -4.089887  2.562897  3.413933
Sr    -4.475284  -3.447177  4.967882
