35
Energy: -105404.754581 eV PBE+vdW (tier 2 basis)
C    -0.906094  1.124449  0.612805
C    -0.459485  -0.219782  1.080531
O    0.771182  -0.485612  1.212904
H    -1.942596  1.143067  0.263984
H    -0.241402  1.436845  -0.204135
H    -0.784022  1.871874  1.411951
N    -1.370804  -1.188358  1.371075
C    -2.536758  -0.937976  2.218503
C    -1.996713  -0.585657  3.649329
O    -0.749444  -0.647061  3.892322
H    -0.933764  -2.096051  1.542794
H    -3.068152  -0.053232  1.835801
C    -3.469928  -2.171055  2.230139
C    -4.088201  -2.574072  0.871714
C    -5.464175  -1.950208  0.554950
C    -6.042002  -2.566811  -0.721371
N    -7.458357  -2.088820  -1.013841
H    -4.266481  -2.010384  2.970778
H    -2.889339  -3.022463  2.618487
H    -4.202712  -3.667290  0.885693
H    -3.379252  -2.359956  0.057283
H    -5.387930  -0.856672  0.441807
H    -6.148990  -2.143785  1.396577
H    -6.107169  -3.659815  -0.648013
H    -5.449353  -2.318360  -1.610545
H    -7.824057  -2.523502  -1.875261
H    -7.506004  -1.068062  -1.146354
H    -8.110527  -2.331805  -0.253261
N    -2.862388  -0.219365  4.575731
C    -2.511725  0.136517  5.958083
H    -3.845190  -0.165143  4.321189
H    -1.928830  1.065441  5.977477
H    -1.935609  -0.671989  6.421340
H    -3.436767  0.285403  6.520940
Sr    1.540589  -0.716060  3.396690
