35
Energy: -105404.352177 eV PBE+vdW (tier 2 basis)
C    -0.964651  0.213968  -0.643596
C    -0.175999  0.208371  0.623538
O    1.109329  0.019301  0.592960
H    -1.607836  -0.678842  -0.697008
H    -0.299844  0.210734  -1.511229
H    -1.631746  1.084440  -0.708033
N    -0.774531  0.385356  1.791267
C    -2.229380  0.575380  1.996604
C    -2.774019  1.976397  1.589582
O    -3.831414  1.987689  0.966365
H    -0.172358  0.381681  2.615125
H    -2.735728  -0.095467  1.291814
C    -2.641228  0.149860  3.423949
C    -4.174907  0.049361  3.626302
C    -4.865234  1.350024  4.077864
C    -6.387811  1.349986  3.982249
N    -7.066108  0.433316  4.999629
H    -2.204636  0.826265  4.175076
H    -2.206579  -0.843954  3.604791
H    -4.340359  -0.741338  4.373764
H    -4.636205  -0.305269  2.691561
H    -4.559475  2.186929  3.435533
H    -4.550003  1.623487  5.098082
H    -6.739033  1.020699  2.996117
H    -6.794964  2.349185  4.175873
H    -8.092105  0.487555  4.915415
H    -6.825926  0.698583  5.965732
H    -6.803605  -0.553498  4.873022
N    -2.119994  3.107245  1.956192
C    -0.921468  3.285803  2.766547
H    -2.575435  3.951242  1.613128
H    -0.908042  4.315305  3.138480
H    0.003254  3.130967  2.190798
H    -0.919769  2.632035  3.647913
Sr    3.174503  -0.436804  -0.009535
