35
Energy: -105405.447478 eV PBE+vdW (tier 2 basis)
C    1.325660  -1.123222  0.911481
C    0.817191  -0.705704  2.256723
O    1.610751  -0.226750  3.119000
H    2.197172  -1.780821  1.021744
H    1.680243  -0.222448  0.387604
H    0.577486  -1.622386  0.286730
N    -0.499159  -0.866125  2.494626
C    -1.365764  -0.374414  3.579062
C    -0.813475  -0.598931  5.001054
O    0.166668  -1.365966  5.244369
H    -1.004100  -1.322171  1.740824
H    -1.464002  0.718713  3.460681
C    -2.777040  -1.035417  3.436082
C    -3.862910  -0.241631  2.677056
C    -3.706563  -0.145614  1.149330
C    -4.798231  0.646706  0.422959
N    -6.138335  -0.078688  0.337954
H    -2.640370  -2.034978  2.994238
H    -3.167177  -1.236660  4.440894
H    -3.938292  0.772438  3.100364
H    -4.814187  -0.738540  2.926878
H    -3.620765  -1.150353  0.701571
H    -2.772811  0.379501  0.892691
H    -5.007095  1.607903  0.909574
H    -4.511181  0.846329  -0.616056
H    -6.826031  0.491067  -0.179291
H    -6.057347  -0.976807  -0.161496
H    -6.546620  -0.272420  1.263017
N    -1.407405  0.047302  6.002423
C    -2.514699  1.007481  5.984443
H    -1.059718  -0.212318  6.925686
H    -2.464664  1.649436  5.098574
H    -2.425787  1.645387  6.869383
H    -3.486247  0.497755  6.022492
Sr    2.463555  -1.128112  5.053972
