35
Energy: -105405.135642 eV PBE+vdW (tier 2 basis)
C    -0.618132  0.026299  0.285125
C    -0.328430  0.024508  1.751001
O    0.836856  0.284056  2.170994
H    0.184524  0.558306  -0.235514
H    -1.579354  0.496090  0.052398
H    -0.646051  -1.004088  -0.105176
N    -1.301416  -0.245634  2.669404
C    -2.202375  -1.409834  2.600597
C    -1.304788  -2.693516  2.495941
O    -0.040488  -2.594027  2.605355
H    -0.968718  -0.062625  3.616206
H    -2.661690  -1.460257  3.600771
C    -3.342753  -1.330537  1.560035
C    -4.289603  -0.114193  1.660261
C    -5.229821  -0.112394  2.886096
C    -6.605294  0.524215  2.679406
N    -6.581754  2.040854  2.506734
H    -3.957660  -2.238037  1.662914
H    -2.928490  -1.376589  0.545480
H    -4.894604  -0.139093  0.740652
H    -3.701694  0.815738  1.618129
H    -4.744239  0.327736  3.771378
H    -5.466326  -1.150505  3.169669
H    -7.252723  0.340659  3.545197
H    -7.108482  0.130752  1.786946
H    -7.540198  2.405976  2.391996
H    -6.047796  2.335645  1.677575
H    -6.176771  2.514044  3.327546
N    -1.886395  -3.867192  2.339452
C    -1.176724  -5.153893  2.297856
H    -2.899010  -3.897457  2.259999
H    -0.653021  -5.330209  3.244884
H    -0.458882  -5.165139  1.469675
H    -1.912432  -5.947139  2.142940
Sr    2.058422  -1.586347  2.831048
