35
Energy: -105404.598844 eV PBE+vdW (tier 2 basis)
C    0.015166  1.009468  -0.356765
C    -0.007768  0.535931  1.057718
O    1.121290  0.324704  1.664674
H    0.700993  0.379814  -0.938541
H    0.405740  2.037781  -0.390024
H    -0.961401  0.995622  -0.846200
N    -1.134477  0.332649  1.716892
C    -2.532516  0.505060  1.249880
C    -3.319957  0.939854  2.503226
O    -3.356088  0.141373  3.464476
H    -1.061032  -0.025552  2.674125
H    -2.544713  1.284114  0.481224
C    -3.077467  -0.828068  0.692563
C    -4.529013  -0.814064  0.175845
C    -5.690985  -0.827699  1.191551
C    -5.719055  -2.028963  2.155625
N    -5.513436  -1.604828  3.598687
H    -2.937978  -1.599177  1.465714
H    -2.423935  -1.117320  -0.143396
H    -4.637406  -1.697743  -0.469590
H    -4.677054  0.043928  -0.497479
H    -6.621425  -0.836218  0.609561
H    -5.734262  0.111637  1.763394
H    -4.931024  -2.759833  1.937830
H    -6.676411  -2.559794  2.121679
H    -6.327041  -1.080206  3.945865
H    -4.666874  -0.982272  3.685776
H    -5.399070  -2.418150  4.217852
N    -3.930706  2.127929  2.512631
C    -3.971241  3.154648  1.463192
H    -4.408787  2.344038  3.386987
H    -4.610627  3.969340  1.814591
H    -4.406739  2.765395  0.535089
H    -2.975432  3.572045  1.267688
Sr    3.235573  0.146944  2.263675
