35
Energy: -105405.824810 eV PBE+vdW (tier 2 basis)
C    0.888345  2.728770  0.856791
C    0.593951  1.825038  2.010549
O    1.475087  1.020935  2.435931
H    1.168779  2.112754  -0.009755
H    1.762561  3.350747  1.093751
H    0.054166  3.380969  0.578035
N    -0.629827  1.902198  2.569069
C    -1.242719  1.083213  3.640707
C    -0.515299  1.231766  4.997539
O    0.641491  0.747301  5.185322
H    -1.233332  2.616881  2.171969
H    -2.239219  1.527193  3.769782
C    -1.418412  -0.407826  3.260265
C    -2.445082  -0.695120  2.141088
C    -3.917526  -0.626536  2.588911
C    -4.965094  -0.874725  1.500610
N    -5.113130  -2.343380  1.111587
H    -1.702161  -0.954760  4.172627
H    -0.443128  -0.808438  2.954436
H    -2.212086  -1.701146  1.758757
H    -2.279112  -0.011635  1.293229
H    -4.154769  0.377156  2.974357
H    -4.095348  -1.308023  3.437292
H    -4.740528  -0.338040  0.570147
H    -5.960727  -0.566085  1.840225
H    -5.388933  -2.924025  1.917481
H    -4.247746  -2.741402  0.721728
H    -5.846320  -2.457615  0.394461
N    -1.175709  1.846801  5.966503
C    -0.687373  2.039592  7.336168
H    -2.086959  2.242739  5.749131
H    -0.217012  3.026582  7.436002
H    0.036323  1.257869  7.580011
H    -1.537364  1.980166  8.023472
Sr    2.670210  0.259092  4.224820
