35
Energy: -105404.491810 eV PBE+vdW (tier 2 basis)
C    0.227326  -2.133370  1.935486
C    -0.446603  -0.915520  2.484728
O    -0.109993  -0.390518  3.560809
H    0.194186  -2.933887  2.685538
H    1.289628  -1.899488  1.778479
H    -0.202882  -2.494033  0.994862
N    -1.477076  -0.370406  1.755146
C    -2.042628  0.938948  2.084206
C    -2.997832  0.807326  3.295829
O    -4.274109  1.013467  3.244321
H    -1.803632  -0.850866  0.922422
H    -1.203492  1.542925  2.471518
C    -2.628407  1.641855  0.853609
C    -1.548005  2.025162  -0.181084
C    -2.138539  2.740067  -1.409699
C    -1.198818  2.932923  -2.598831
N    -0.136751  4.008663  -2.380574
H    -3.150599  2.549366  1.190889
H    -3.392882  1.004576  0.380520
H    -1.015497  1.120471  -0.512766
H    -0.796637  2.658766  0.319358
H    -2.586712  3.706596  -1.126046
H    -2.972456  2.143182  -1.810785
H    -0.649971  2.016755  -2.851175
H    -1.755037  3.253290  -3.487666
H    0.452351  4.115764  -3.220462
H    0.492370  3.788158  -1.596670
H    -0.562374  4.927754  -2.191262
N    -2.413124  0.457168  4.417963
C    -3.126444  0.238203  5.660772
H    -1.372581  0.204600  4.302645
H    -2.418516  -0.056084  6.442748
H    -3.856186  -0.588335  5.567095
H    -3.611841  1.168457  6.008643
Sr    -6.219179  0.992824  4.298527
