35
Energy: -105404.265075 eV PBE+vdW (tier 2 basis)
C    0.130917  0.302133  1.101531
C    -0.545298  1.021737  2.215729
O    -0.078085  2.193105  2.544509
H    1.171598  0.101066  1.397189
H    -0.338274  -0.638815  0.821171
H    0.164112  0.954114  0.217916
N    -1.572782  0.561600  2.914925
C    -2.488366  -0.623227  2.873203
C    -2.498748  -1.425320  4.205414
O    -3.614067  -1.712989  4.669736
H    -1.860897  1.215441  3.646004
H    -3.479809  -0.150587  2.882359
C    -2.435885  -1.568347  1.657597
C    -3.491768  -2.691758  1.728636
C    -4.972410  -2.259420  1.639806
C    -5.924526  -3.230795  2.336432
N    -5.964388  -2.984209  3.840577
H    -1.457624  -2.061747  1.589265
H    -2.581549  -0.979038  0.739746
H    -3.313655  -3.283134  2.638965
H    -3.279382  -3.379983  0.899591
H    -5.276751  -2.201563  0.586263
H    -5.140252  -1.248481  2.043994
H    -5.616315  -4.273318  2.191837
H    -6.953464  -3.131795  1.974114
H    -6.662190  -2.266103  4.072459
H    -5.043424  -2.627919  4.201912
H    -6.226667  -3.832206  4.359016
N    -1.360642  -1.829105  4.792058
C    0.025109  -1.698413  4.350896
H    -1.519814  -2.347997  5.655514
H    0.614072  -2.479611  4.841578
H    0.455898  -0.726946  4.631456
H    0.119339  -1.853432  3.270629
Sr    0.956433  4.141815  2.637490
