35
Energy: -105403.696109 eV PBE+vdW (tier 2 basis)
C    0.213759  0.243417  1.022592
C    -0.342880  -0.716486  2.037802
O    0.388081  -1.383187  2.770951
H    0.710641  1.084217  1.526087
H    -0.520021  0.631389  0.309881
H    1.001412  -0.280924  0.465161
N    -1.722722  -0.913900  2.113620
C    -2.730904  0.164995  2.106081
C    -3.186377  0.452708  0.657495
O    -3.734572  -0.540415  0.023642
H    -1.922784  -1.635602  2.804646
H    -3.640608  -0.311249  2.510729
C    -2.405698  1.342140  3.053592
C    -2.482295  1.011718  4.564612
C    -1.426802  0.088467  5.208800
C    -0.003179  0.655564  5.230798
N    1.011337  -0.460511  5.375019
H    -3.145996  2.136657  2.885594
H    -1.429139  1.777327  2.801973
H    -3.472565  0.584474  4.784781
H    -2.470029  1.976232  5.093389
H    -1.413340  -0.895273  4.719051
H    -1.747026  -0.101580  6.243344
H    0.149264  1.354170  6.061744
H    0.267678  1.173089  4.302690
H    0.971345  -1.056897  4.517593
H    0.822443  -1.047598  6.199440
H    1.969751  -0.097557  5.473578
N    -3.118234  1.609643  0.029087
C    -2.535703  2.915765  0.384340
H    -3.559892  1.595289  -0.891349
H    -1.595207  2.797168  0.923722
H    -3.244517  3.506446  0.977315
H    -2.337728  3.446377  -0.552136
Sr    -4.607359  -2.263577  -1.037636
