35
Energy: -105405.723733 eV PBE+vdW (tier 2 basis)
C    -1.058828  -1.470171  0.742654
C    -0.678258  -0.375150  1.681571
O    0.537768  -0.114335  1.919822
H    -0.658833  -1.228986  -0.253552
H    -2.139620  -1.626252  0.662871
H    -0.579979  -2.407861  1.054455
N    -1.658123  0.343197  2.265256
C    -1.454147  1.551577  3.080834
C    -0.970331  1.167557  4.502598
O    0.264031  0.925931  4.666277
H    -2.612340  0.073696  2.043612
H    -0.575344  2.057242  2.653048
C    -2.612810  2.566178  2.913809
C    -4.084232  2.192823  3.218139
C    -5.026067  3.195048  2.509738
C    -6.534533  2.942326  2.604917
N    -7.205253  3.596831  3.810552
H    -2.559130  2.874174  1.858240
H    -2.336907  3.461490  3.489988
H    -4.278655  2.194740  4.304271
H    -4.330764  1.178556  2.863776
H    -4.795971  3.172808  1.434217
H    -4.794511  4.226627  2.822312
H    -6.788004  1.876034  2.657224
H    -7.048534  3.367502  1.734971
H    -8.221145  3.413991  3.805047
H    -7.086255  4.621100  3.797739
H    -6.843091  3.253207  4.710080
N    -1.828411  1.094585  5.506106
C    -1.480485  0.734113  6.885721
H    -2.805457  1.279930  5.303379
H    -2.152871  1.261589  7.569198
H    -0.448798  1.032011  7.090189
H    -1.588081  -0.347811  7.037993
Sr    2.154971  0.272700  3.488950
