35
Energy: -105405.761638 eV PBE+vdW (tier 2 basis)
C    0.296717  -0.364885  -0.329371
C    0.416979  -0.228974  1.153941
O    1.538893  -0.381486  1.722819
H    -0.713277  -0.185243  -0.712012
H    0.611745  -1.379330  -0.614430
H    0.993923  0.329169  -0.818134
N    -0.699718  0.059507  1.847256
C    -0.940717  0.126472  3.307375
C    -0.076618  1.203343  3.998695
O    1.164686  1.020076  4.205217
H    -1.535289  0.169274  1.278166
H    -1.982139  0.462366  3.377623
C    -0.869144  -1.255251  4.003247
C    -1.460564  -1.223961  5.425403
C    -1.587782  -2.590365  6.139986
C    -2.793531  -3.417303  5.689033
N    -2.983322  -4.647463  6.568436
H    0.168969  -1.616705  4.025994
H    -1.427916  -1.948862  3.357999
H    -2.450998  -0.740510  5.404237
H    -0.833173  -0.587745  6.066450
H    -1.684456  -2.386253  7.217591
H    -0.661373  -3.172965  6.014062
H    -2.702952  -3.794656  4.663284
H    -3.729496  -2.849930  5.768525
H    -3.800750  -5.201055  6.269263
H    -3.136985  -4.389407  7.555167
H    -2.165186  -5.273862  6.541576
N    -0.655578  2.323050  4.407742
C    -2.050447  2.767185  4.261902
H    -0.027207  2.966587  4.891408
H    -2.103729  3.808953  4.590870
H    -2.724501  2.176157  4.893997
H    -2.373223  2.728571  3.215442
Sr    3.116853  0.361378  3.175248
