35
Energy: -105405.763986 eV PBE+vdW (tier 2 basis)
C    0.220413  0.717940  0.213357
C    -0.116062  0.160796  1.557736
O    0.698834  -0.599146  2.161894
H    1.177777  1.253734  0.266971
H    -0.543361  1.388633  -0.193493
H    0.367872  -0.119815  -0.484206
N    -1.303953  0.492230  2.095576
C    -1.964556  -0.004837  3.326644
C    -1.169717  0.379646  4.598740
O    -0.099500  -0.219975  4.917008
H    -1.869243  1.121212  1.530925
H    -2.906368  0.560041  3.353733
C    -2.304666  -1.514815  3.263222
C    -3.491654  -1.965900  4.146894
C    -4.876058  -1.647670  3.548329
C    -6.089551  -2.063993  4.384012
N    -6.403952  -3.556154  4.313455
H    -1.413068  -2.093488  3.537615
H    -2.514130  -1.760286  2.212287
H    -3.410645  -1.527753  5.155094
H    -3.381259  -3.052089  4.288590
H    -4.961619  -2.072043  2.534253
H    -4.993390  -0.561677  3.410897
H    -6.997504  -1.563709  4.027276
H    -5.968538  -1.831655  5.449648
H    -7.239551  -3.778700  4.876625
H    -5.637011  -4.143099  4.669141
H    -6.604848  -3.856181  3.347811
N    -1.671629  1.349325  5.349529
C    -1.074054  1.853285  6.590463
H    -2.511581  1.820594  5.022824
H    -0.399262  2.692574  6.376163
H    -0.519825  1.050072  7.083256
H    -1.874969  2.203723  7.248734
Sr    1.854628  -1.101819  4.046993
