35
Energy: -105404.417531 eV PBE+vdW (tier 2 basis)
C    0.447654  0.742851  1.101225
C    -0.453947  1.301886  2.145344
O    -0.079086  2.358070  2.802744
H    1.451005  0.605058  1.526690
H    0.537938  1.472259  0.282330
H    0.106675  -0.211671  0.692117
N    -1.633411  0.771589  2.437351
C    -2.385999  -0.358288  1.808879
C    -1.602267  -1.701239  1.895084
O    -1.097728  -2.195380  0.869373
H    -2.148753  1.267802  3.164529
H    -3.272080  -0.451357  2.452665
C    -2.857356  -0.041822  0.376942
C    -4.182592  -0.728462  -0.023934
C    -4.289080  -2.267174  -0.034987
C    -3.800199  -3.028895  -1.264238
N    -2.293346  -2.948676  -1.496612
H    -2.041410  -0.265001  -0.324170
H    -3.031946  1.041524  0.314040
H    -4.467337  -0.338826  -1.013259
H    -4.963057  -0.356202  0.656661
H    -5.360364  -2.513072  0.016344
H    -3.862599  -2.719850  0.873353
H    -4.281615  -2.674743  -2.183756
H    -4.034734  -4.093550  -1.153753
H    -1.937245  -3.819499  -1.910445
H    -1.777884  -2.759963  -0.596966
H    -2.055350  -2.194208  -2.149849
N    -1.509750  -2.298644  3.090223
C    -2.078498  -1.882132  4.372426
H    -0.992195  -3.177190  3.074042
H    -1.924076  -2.691258  5.091963
H    -3.160102  -1.709162  4.299516
H    -1.582709  -0.985059  4.766813
Sr    0.910798  4.154925  3.624163
