35
Energy: -105404.569445 eV PBE+vdW (tier 2 basis)
C    -0.059269  -1.187391  2.714687
C    0.140695  -0.240040  1.580885
O    1.330539  -0.088204  1.088620
H    0.851257  -1.244286  3.319986
H    -0.273694  -2.188111  2.308395
H    -0.893797  -0.907189  3.365543
N    -0.861605  0.462000  1.075812
C    -2.287152  0.148212  1.275616
C    -2.532376  -1.257092  0.620697
O    -1.671505  -1.720246  -0.129343
H    -0.627227  1.017549  0.253965
H    -2.463336  0.091182  2.358512
C    -3.207449  1.258293  0.718625
C    -3.287566  1.370886  -0.816478
C    -4.570565  2.046771  -1.348769
C    -4.696169  3.531557  -1.013636
N    -5.937706  4.132542  -1.663183
H    -2.907454  2.212061  1.178998
H    -4.209525  1.041900  1.114837
H    -3.262994  0.366395  -1.262368
H    -2.410185  1.899893  -1.222562
H    -5.448655  1.504108  -0.962024
H    -4.582117  1.923504  -2.443096
H    -3.847427  4.115197  -1.392217
H    -4.799539  3.724276  0.061187
H    -6.032826  5.135970  -1.446274
H    -6.799696  3.667332  -1.342017
H    -5.909460  4.042407  -2.689899
N    -3.683642  -1.895388  0.911656
C    -4.745539  -1.543495  1.850985
H    -3.784507  -2.778786  0.413549
H    -5.566463  -1.001569  1.360653
H    -4.362435  -0.943263  2.683928
H    -5.156853  -2.464784  2.277053
Sr    3.382710  -0.543660  0.476834
