35
Energy: -105404.725123 eV PBE+vdW (tier 2 basis)
C    0.085623  0.754489  0.269448
C    0.136455  0.321814  1.697299
O    1.306858  0.111482  2.219501
H    0.489405  1.778425  0.216231
H    -0.919101  0.759206  -0.154090
H    0.713626  0.101682  -0.345143
N    -0.910695  0.417396  2.538494
C    -2.253293  -0.083347  2.204078
C    -2.010571  -1.457183  1.474020
O    -0.861116  -1.739058  1.103882
H    -0.645071  0.246884  3.507164
H    -2.721715  -0.293173  3.177410
C    -3.190280  0.889972  1.450399
C    -3.449250  2.192189  2.226291
C    -4.367902  3.219916  1.528631
C    -5.850821  2.851933  1.557113
N    -6.708931  3.986623  1.009441
H    -4.131581  0.346382  1.278478
H    -2.795525  1.116011  0.450225
H    -2.488198  2.694238  2.405508
H    -3.854034  1.959776  3.224640
H    -4.038748  3.372863  0.488121
H    -4.233817  4.183276  2.045211
H    -6.209443  2.673321  2.578811
H    -6.092092  1.974723  0.944683
H    -6.469743  4.211559  0.032504
H    -6.587864  4.850600  1.559014
H    -7.711893  3.748561  1.032425
N    -3.073628  -2.247008  1.302639
C    -3.007684  -3.562902  0.658993
H    -3.959096  -1.976150  1.717527
H    -2.791819  -4.347822  1.395247
H    -2.219085  -3.552793  -0.098447
H    -3.969424  -3.773394  0.181501
Sr    3.291874  -0.743656  2.495199
