35
Energy: -105405.691303 eV PBE+vdW (tier 2 basis)
C    -1.138877  0.111083  0.038590
C    -0.926930  -0.094407  1.504435
O    0.127796  -0.653097  1.927413
H    -2.093356  0.586057  -0.211123
H    -1.074608  -0.862030  -0.468665
H    -0.322179  0.726456  -0.364110
N    -1.892874  0.330883  2.342193
C    -1.986962  0.210262  3.815889
C    -0.867490  0.993744  4.541984
O    0.337579  0.598192  4.516601
H    -2.665094  0.815355  1.893215
H    -2.933459  0.710964  4.062392
C    -2.069639  -1.250619  4.334216
C    -3.473566  -1.891519  4.399499
C    -4.157172  -2.209708  3.055287
C    -5.203093  -3.326722  3.097493
N    -6.462559  -2.985809  3.890189
H    -1.670094  -1.258535  5.358554
H    -1.398906  -1.885836  3.738357
H    -4.121614  -1.257551  5.027177
H    -3.341868  -2.830957  4.959411
H    -3.406971  -2.575030  2.336515
H    -4.592875  -1.308472  2.594581
H    -4.802780  -4.239715  3.556422
H    -5.552366  -3.576550  2.088661
H    -6.265065  -2.793605  4.882236
H    -7.128950  -3.773552  3.865291
H    -6.953281  -2.166907  3.502506
N    -1.232682  2.064484  5.229209
C    -0.337527  2.905180  6.031557
H    -2.209371  2.346322  5.194304
H    -0.029882  3.787678  5.455610
H    0.542808  2.327263  6.322813
H    -0.873876  3.234312  6.927544
Sr    1.944782  -0.508615  3.311754
