35
Energy: -105404.575354 eV PBE+vdW (tier 2 basis)
C    0.381550  -0.766611  -0.025182
C    0.356081  -0.051420  1.284037
O    1.464877  0.451739  1.738476
H    -0.595664  -1.120437  -0.361245
H    1.047823  -1.637918  0.057324
H    0.798472  -0.106396  -0.798154
N    -0.748948  0.079911  1.993279
C    -2.126820  -0.308159  1.630573
C    -3.053576  0.665366  2.395973
O    -2.763654  0.997617  3.564808
H    -0.699218  0.573778  2.892613
H    -2.249629  -0.134610  0.553580
C    -2.481288  -1.797799  1.918422
C    -1.985829  -2.484767  3.205265
C    -2.343042  -1.889714  4.579234
C    -3.843097  -1.696499  4.843110
N    -4.069748  -0.423758  5.635473
H    -3.575536  -1.872574  1.826269
H    -2.095234  -2.392816  1.078228
H    -0.889869  -2.574961  3.169754
H    -2.352221  -3.520530  3.150903
H    -1.839639  -0.919900  4.694076
H    -1.923593  -2.548357  5.351711
H    -4.285600  -2.523920  5.408561
H    -4.426174  -1.571793  3.923019
H    -5.066883  -0.262238  5.831501
H    -3.693372  0.373651  5.069388
H    -3.582855  -0.447905  6.541614
N    -4.145653  1.063782  1.739357
C    -5.166849  1.955431  2.292922
H    -4.280730  0.746679  0.782958
H    -5.463661  2.679885  1.527133
H    -4.749009  2.491194  3.149851
H    -6.056416  1.389052  2.599020
Sr    3.520317  1.221878  1.941682
