35
Energy: -105404.240994 eV PBE+vdW (tier 2 basis)
C    -0.582613  1.091786  -1.303183
C    -0.175920  0.523459  0.011855
O    1.088586  0.456477  0.305724
H    -0.298375  0.386872  -2.099777
H    -0.035179  2.025722  -1.482345
H    -1.654243  1.284941  -1.384870
N    -1.046304  0.052003  0.890651
C    -2.537123  0.017201  0.901773
C    -3.193547  -0.383661  -0.442595
O    -4.025946  0.362717  -0.982518
H    -0.621375  -0.311197  1.744934
H    -2.754511  -0.825320  1.577837
C    -3.153927  1.257587  1.589931
C    -2.855226  2.688795  1.102396
C    -3.658013  3.317592  -0.054716
C    -5.183863  3.358244  0.143978
N    -5.889880  2.348315  -0.742000
H    -2.827827  1.201461  2.639190
H    -4.236241  1.065703  1.635574
H    -1.783381  2.795255  0.870097
H    -3.000057  3.335078  1.980962
H    -3.428713  2.835395  -1.015343
H    -3.310573  4.354179  -0.155969
H    -5.603399  4.339154  -0.102282
H    -5.476152  3.127860  1.175723
H    -5.959507  2.691607  -1.708791
H    -5.332840  1.458165  -0.772399
H    -6.848159  2.157891  -0.422036
N    -2.883261  -1.580855  -0.968064
C    -2.049497  -2.647893  -0.419350
H    -3.399777  -1.792188  -1.821603
H    -2.352933  -3.592484  -0.881029
H    -2.191264  -2.753844  0.663479
H    -0.983936  -2.491565  -0.638250
Sr    3.291260  0.512283  0.485781
