35
Energy: -105404.239650 eV PBE+vdW (tier 2 basis)
C    0.292664  0.239849  0.777125
C    -0.204528  0.050346  2.169433
O    0.651532  -0.206417  3.112044
H    0.881465  1.168264  0.727180
H    -0.497902  0.290628  0.024886
H    0.964707  -0.587419  0.514158
N    -1.485797  0.148097  2.487058
C    -2.677157  0.312732  1.610443
C    -3.672009  1.286270  2.303930
O    -4.804675  0.900882  2.623323
H    -1.703762  -0.029593  3.470107
H    -2.339371  0.798592  0.685110
C    -3.225752  -1.102105  1.305829
C    -4.621438  -1.341981  0.690451
C    -5.063538  -0.600728  -0.584693
C    -5.648641  0.806477  -0.446115
N    -6.726379  0.874488  0.619453
H    -3.211844  -1.670654  2.247993
H    -2.469413  -1.573600  0.658253
H    -5.374530  -1.243036  1.481577
H    -4.624881  -2.412413  0.440955
H    -5.821450  -1.226718  -1.080026
H    -4.241857  -0.532860  -1.313972
H    -6.104768  1.123681  -1.391168
H    -4.911358  1.567218  -0.162012
H    -6.264840  0.826009  1.558584
H    -7.257074  1.753578  0.564270
H    -7.403057  0.104092  0.530241
N    -3.265348  2.555338  2.516044
C    -2.019515  3.216080  2.136293
H    -3.954726  3.122588  3.008915
H    -2.209995  4.290417  2.048144
H    -1.663659  2.866679  1.159606
H    -1.231597  3.072728  2.889082
Sr    2.399298  -0.735362  4.359098
