35
Energy: -105406.021755 eV PBE+vdW (tier 2 basis)
C    -0.026584  -0.768888  0.145403
C    -0.198327  -0.218447  1.522035
O    0.794493  0.210285  2.182253
H    0.712420  -1.581128  0.160718
H    0.389434  0.021566  -0.496702
H    -0.956162  -1.137626  -0.300606
N    -1.438774  -0.177353  2.044441
C    -1.822371  0.439167  3.327367
C    -1.391683  -0.482566  4.499316
O    -0.183118  -0.440431  4.884915
H    -2.183335  -0.583306  1.482414
H    -1.200645  1.340005  3.446163
C    -3.307371  0.862916  3.301781
C    -3.580895  2.026777  2.326418
C    -5.064829  2.396863  2.101276
C    -5.712143  3.170047  3.251026
N    -7.102603  3.660775  2.865539
H    -3.587355  1.148760  4.326315
H    -3.938960  -0.001356  3.029332
H    -3.173215  1.775889  1.336828
H    -3.025577  2.918666  2.656628
H    -5.649802  1.489446  1.880950
H    -5.104239  3.019390  1.193783
H    -5.140705  4.069530  3.513211
H    -5.848836  2.568611  4.157957
H    -7.543034  4.189758  3.633680
H    -7.735834  2.882335  2.629015
H    -7.070791  4.285960  2.045747
N    -2.276374  -1.292387  5.053930
C    -2.002859  -2.229861  6.149371
H    -3.224154  -1.284260  4.686124
H    -2.863117  -2.243341  6.826406
H    -1.113625  -1.903718  6.693721
H    -1.844671  -3.240710  5.751559
Sr    1.952740  0.054171  4.149087
