35
Energy: -105404.471257 eV PBE+vdW (tier 2 basis)
C    -1.287950  -1.313527  -0.154475
C    -1.204294  -1.051383  1.316613
O    -0.606752  -1.811226  2.098902
H    -1.715583  -2.310790  -0.319335
H    -0.266715  -1.343832  -0.559254
H    -1.871900  -0.569308  -0.706854
N    -1.819973  0.078440  1.800981
C    -1.614973  0.545694  3.172946
C    -2.444108  -0.312026  4.161308
O    -3.401498  0.147659  4.900103
H    -2.385916  0.642220  1.174361
H    -0.568898  0.297712  3.425725
C    -1.801625  2.063392  3.293252
C    -0.639643  2.854016  2.653048
C    -0.818473  4.377076  2.792267
C    0.415734  5.234859  2.517670
N    0.789417  5.332835  1.040146
H    -1.858630  2.322778  4.360442
H    -2.766721  2.362970  2.853585
H    -0.540761  2.566669  1.593624
H    0.298834  2.551779  3.145066
H    -1.088976  4.615321  3.832832
H    -1.667489  4.733664  2.186348
H    1.309796  4.854631  3.027946
H    0.250923  6.269189  2.841797
H    1.029134  4.418597  0.633530
H    1.609347  5.945302  0.911324
H    0.022187  5.733969  0.481360
N    -2.097128  -1.576987  4.213097
C    -2.756932  -2.557212  5.052549
H    -1.352300  -1.853581  3.484913
H    -3.824616  -2.665869  4.783476
H    -2.632282  -2.311163  6.123366
H    -2.294566  -3.538601  4.902798
Sr    -4.967301  -0.273527  6.406719
