35
Energy: -105404.653069 eV PBE+vdW (tier 2 basis)
C    0.844140  0.406128  0.181107
C    0.141496  1.170073  1.258252
O    -0.006407  2.453655  1.136835
H    1.866981  0.791567  0.061108
H    0.316333  0.539526  -0.774026
H    0.909434  -0.666823  0.389014
N    -0.304689  0.510973  2.308275
C    -0.985655  0.999801  3.516053
C    -0.560463  0.003820  4.620001
O    -0.459775  -1.202904  4.309825
H    -0.119067  -0.497836  2.358744
H    -0.625962  2.014885  3.728905
C    -2.531426  1.022445  3.344449
C    -3.226122  -0.349526  3.232297
C    -3.697399  -0.956630  4.575313
C    -3.796778  -2.481672  4.568431
N    -2.449552  -3.131170  4.879567
H    -2.740884  1.617124  2.444015
H    -2.950456  1.594810  4.185477
H    -2.571008  -1.054756  2.698317
H    -4.106864  -0.235377  2.587002
H    -4.695745  -0.566012  4.814295
H    -3.063143  -0.637976  5.417823
H    -4.117230  -2.864359  3.592089
H    -4.501166  -2.853549  5.320192
H    -2.361047  -4.057871  4.443226
H    -2.343062  -3.271586  5.892153
H    -1.646952  -2.524888  4.575766
N    -0.364505  0.496343  5.843128
C    0.005006  -0.310814  7.008108
H    -0.465776  1.497414  5.984716
H    0.738038  0.238822  7.607529
H    0.452786  -1.248189  6.666132
H    -0.873124  -0.518535  7.634138
Sr    0.234480  4.437553  0.186662
