35
Energy: -105404.756750 eV PBE+vdW (tier 2 basis)
C    -0.414678  0.068157  -0.454986
C    -0.092808  0.700365  0.858120
O    1.133529  1.090071  1.074773
H    -0.330974  0.821347  -1.252936
H    -1.416098  -0.367184  -0.496967
H    0.319662  -0.718469  -0.672292
N    -0.993160  0.887952  1.794108
C    -2.460716  0.799598  1.710036
C    -2.903595  1.917329  2.706606
O    -2.094474  2.259184  3.580657
H    -0.760462  1.406867  2.671156
H    -2.769011  1.056831  0.688351
C    -3.063250  -0.583337  2.073342
C    -3.226650  -0.921001  3.567837
C    -3.973121  -2.260404  3.738145
C    -4.646521  -2.510948  5.083825
N    -3.668509  -2.812128  6.217735
H    -2.474750  -1.364224  1.567583
H    -4.058441  -0.613871  1.604430
H    -3.804048  -0.120105  4.055681
H    -2.243359  -0.943485  4.064418
H    -3.326852  -3.113251  3.473979
H    -4.801397  -2.300448  3.013065
H    -5.307424  -3.384539  5.033046
H    -5.239439  -1.651223  5.420931
H    -4.172713  -2.995663  7.098245
H    -3.023788  -2.029815  6.392615
H    -3.102395  -3.647930  6.012316
N    -4.144870  2.393442  2.561292
C    -4.720896  3.435595  3.415519
H    -4.694222  2.085135  1.764192
H    -5.705957  3.118972  3.776301
H    -4.830963  4.370702  2.852836
H    -4.051784  3.601844  4.263552
Sr    3.158705  1.895079  1.031543
