35
Energy: -105404.774194 eV PBE+vdW (tier 2 basis)
C    -0.165295  -0.193613  -0.202930
C    -0.105065  0.007870  1.273599
O    1.065641  0.035739  1.849895
H    -1.184280  -0.254602  -0.593062
H    0.367340  -1.118025  -0.465478
H    0.354660  0.633429  -0.707413
N    -1.173528  0.160084  2.018286
C    -2.576521  0.404411  1.644413
C    -3.058684  1.296074  2.833406
O    -2.416040  1.223056  3.891484
H    -1.091234  0.375118  3.040336
H    -2.609175  0.960692  0.699365
C    -3.430350  -0.885179  1.506968
C    -3.647574  -1.676940  2.806481
C    -4.507323  -2.952449  2.658894
C    -6.003726  -2.673810  2.522249
N    -6.809003  -3.967869  2.548068
H    -2.956847  -1.528262  0.748659
H    -4.392450  -0.571207  1.076243
H    -4.088597  -1.030246  3.580158
H    -2.674797  -1.992375  3.209200
H    -4.344557  -3.566708  3.558291
H    -4.156568  -3.549199  1.801315
H    -6.268871  -2.177892  1.580731
H    -6.384553  -2.068360  3.354495
H    -6.546028  -4.598472  1.776516
H    -7.820598  -3.786965  2.464735
H    -6.662957  -4.485514  3.427647
N    -4.155593  2.050997  2.680828
C    -4.864220  2.399954  1.448069
H    -4.385266  2.597382  3.510567
H    -5.872989  2.733139  1.710969
H    -4.964868  1.537105  0.781392
H    -4.362069  3.215705  0.910187
Sr    3.092834  0.304508  2.598732
