35
Energy: -105403.724821 eV PBE+vdW (tier 2 basis)
C    0.768239  -0.446347  0.369762
C    0.408157  -0.168275  1.796650
O    1.155856  -0.421151  2.750979
H    -0.016311  -0.183245  -0.347798
H    1.001570  -1.515286  0.269908
H    1.687048  0.100516  0.118763
N    -0.829074  0.389987  2.036674
C    -1.236702  0.694927  3.413996
C    -2.756104  0.876441  3.433783
O    -3.298255  2.054565  3.449795
H    -1.399130  0.671686  1.246071
H    -1.030283  -0.215359  3.998044
C    -0.413816  1.845122  4.025411
C    -0.190249  1.849031  5.551479
C    0.174242  0.560580  6.337193
C    1.205262  -0.471479  5.849678
N    2.418353  0.086413  5.130549
H    -0.848044  2.812732  3.728329
H    0.554134  1.812504  3.514216
H    -1.084319  2.240609  6.060717
H    0.580955  2.610995  5.740244
H    -0.733981  -0.033517  6.520645
H    0.479457  0.905204  7.335289
H    0.781193  -1.182678  5.133868
H    1.572619  -1.039465  6.711732
H    2.166560  0.175588  4.119637
H    3.207481  -0.572434  5.185067
H    2.745623  0.981866  5.512751
N    -3.529898  -0.190464  3.420407
C    -3.128939  -1.606567  3.392046
H    -4.535550  -0.017417  3.436505
H    -3.948658  -2.179924  2.947861
H    -2.959115  -1.974423  4.412483
H    -2.233827  -1.742893  2.779120
Sr    -4.304401  4.026877  3.446105
