35
Energy: -105404.496166 eV PBE+vdW (tier 2 basis)
C    -0.108456  0.459006  -0.011843
C    -0.184742  -0.150359  1.346438
O    0.937285  -0.536694  1.880612
H    -1.072007  0.732345  -0.436268
H    0.510136  1.367464  0.062970
H    0.380421  -0.239786  -0.700288
N    -1.266165  -0.155617  2.133745
C    -2.662264  -0.381824  1.711466
C    -2.619971  -1.741226  0.924823
O    -1.591185  -1.997007  0.291231
H    -1.065174  -0.506158  3.069742
H    -3.217154  -0.476016  2.653275
C    -3.278668  0.763848  0.863566
C    -4.814597  0.899193  0.853708
C    -5.454179  1.549440  2.097789
C    -6.933088  1.833762  1.831629
N    -7.598881  2.594320  2.971869
H    -2.977645  0.630270  -0.182503
H    -2.832764  1.710169  1.204169
H    -5.288766  -0.069479  0.644420
H    -5.052006  1.528482  -0.016839
H    -4.931360  2.493927  2.320593
H    -5.351617  0.906002  2.986792
H    -7.518282  0.915225  1.699258
H    -7.070173  2.457604  0.939392
H    -8.592695  2.777719  2.765176
H    -7.149492  3.507438  3.134171
H    -7.564141  2.071877  3.858974
N    -3.686856  -2.559088  0.936860
C    -4.904296  -2.532046  1.739560
H    -3.563572  -3.375645  0.338132
H    -5.028065  -3.495555  2.249177
H    -5.788170  -2.360802  1.110555
H    -4.851925  -1.752964  2.505897
Sr    2.952287  -1.359196  2.045623
