28
Energy: -103703.913508 eV PBE+vdW (tier 2 basis)
N    1.099540  -0.762967  0.306210
C    0.317792  0.406692  0.894937
C    1.360294  1.335476  1.560965
O    2.597872  1.117441  1.313291
H    0.755228  -1.054209  -0.618338
H    1.087591  -1.586631  0.923585
H    -0.061761  0.975030  0.029744
C    -0.862911  -0.022714  1.777612
C    -2.009167  -0.684119  0.983915
C    -3.369476  -0.766353  1.697159
N    -3.431032  -1.810383  2.730130
C    -4.447038  -1.927024  3.621402
N    -4.410671  -2.908667  4.527820
N    -5.455776  -1.051592  3.626058
H    -1.224155  0.901775  2.251198
H    -0.505086  -0.663726  2.599407
H    -1.727003  -1.690269  0.629916
H    -2.196791  -0.093839  0.073559
H    -4.136454  -0.948745  0.926762
H    -3.592311  0.200251  2.172170
H    -2.944438  -2.678725  2.523850
H    -5.225013  -3.142730  5.086426
H    -3.576049  -3.460497  4.687064
H    -6.142048  -1.053963  4.374330
H    -5.678325  -0.485566  2.816175
O    0.968941  2.311957  2.260070
H    2.090381  -0.449152  0.225955
Sr    3.203869  3.183245  2.477625
