28
Energy: -103702.679091 eV PBE+vdW (tier 2 basis)
N    1.292098  -1.835193  0.670907
C    0.339943  -0.947612  1.418372
C    1.067167  0.361724  1.755761
O    2.301942  0.457054  1.635407
H    1.271342  -2.767358  1.097062
H    0.931228  -1.984888  -0.276520
H    -0.500304  -0.684903  0.754218
C    -0.207950  -1.614995  2.712263
C    -1.283303  -2.710895  2.515967
C    -2.729388  -2.172075  2.506699
N    -3.739884  -3.219841  2.345772
C    -4.647748  -3.618931  3.266039
N    -5.764550  -4.225981  2.858424
N    -4.442698  -3.410367  4.572192
H    -0.600976  -0.833727  3.381328
H    0.652037  -2.036539  3.256004
H    -1.179037  -3.434556  3.336265
H    -1.100528  -3.286332  1.594455
H    -2.876495  -1.447820  1.690106
H    -2.944086  -1.630594  3.438137
H    -3.885367  -3.578565  1.406668
H    -6.095877  -4.157333  1.901978
H    -5.192927  -3.551795  5.241479
H    -3.514683  -3.284601  4.955493
H    -6.348348  -4.747572  3.505238
O    0.418124  1.408879  2.185362
H    -0.553434  1.304777  2.231434
Sr    3.853701  -0.841962  0.557491
