28
Energy: -103703.220983 eV PBE+vdW (tier 2 basis)
N    2.464553  -0.762184  2.061715
C    1.005005  -0.689828  1.727410
C    0.793219  0.515360  0.792496
O    1.766223  1.161681  0.362562
H    2.592975  -0.390315  3.010462
H    2.732362  -1.747954  2.139340
H    0.771391  -1.569646  1.101149
C    0.060538  -0.690666  2.957177
C    -0.017017  -2.033118  3.710476
C    -1.029819  -1.968185  4.870130
N    -1.139210  -3.260152  5.550969
C    -2.215733  -3.691714  6.246591
N    -2.271844  -4.968979  6.634684
N    -3.229155  -2.863046  6.520816
H    -0.956590  -0.428389  2.623799
H    0.361853  0.124873  3.635676
H    0.972903  -2.304507  4.111909
H    -0.316587  -2.833488  3.016682
H    -2.023773  -1.712714  4.474647
H    -0.735689  -1.177792  5.581326
H    -0.292633  -3.811057  5.657490
H    -2.940322  -5.279303  7.332705
H    -4.102525  -3.221807  6.894481
H    -3.101321  -1.859192  6.564434
H    -1.673374  -5.679420  6.228490
O    -0.392123  0.865148  0.380097
H    -1.127599  0.321759  0.727513
Sr    4.026294  0.779635  0.420777
