28
Energy: -103703.163338 eV PBE+vdW (tier 2 basis)
N    1.478330  -0.781827  -0.687852
C    0.282186  -0.139846  -0.039894
C    0.756702  0.550032  1.241971
O    1.854429  0.266317  1.754148
H    1.245741  -1.759984  -0.892670
H    1.602063  -0.363382  -1.616230
H    -0.106946  0.641157  -0.713381
C    -0.849540  -1.181402  0.211389
C    -2.199448  -0.635776  0.720197
C    -3.296227  -1.720141  0.663370
N    -4.561442  -1.220654  1.204441
C    -5.795507  -1.639281  0.839135
N    -6.864382  -0.961752  1.266402
N    -5.950990  -2.698437  0.037328
H    -0.474872  -1.956091  0.899659
H    -1.012116  -1.668393  -0.763220
H    -2.525363  0.219048  0.106118
H    -2.103360  -0.290372  1.761946
H    -2.965939  -2.615889  1.215671
H    -3.467287  -2.010223  -0.382802
H    -4.519905  -0.662984  2.052772
H    -6.789817  -0.023792  1.644252
H    -6.857755  -2.908885  -0.368517
H    -5.251691  -3.428460  -0.024306
H    -7.797742  -1.356237  1.204912
O    0.022509  1.454060  1.835947
H    -0.793907  1.689769  1.351628
Sr    3.747276  -0.635571  0.792588
