28
Energy: -103703.143523 eV PBE+vdW (tier 2 basis)
N    2.074135  0.940205  2.373925
C    1.350375  -0.374572  2.288472
C    0.894484  -0.564914  0.836469
O    1.063826  0.328474  -0.012295
H    1.494731  1.583722  2.926536
H    2.909990  0.808073  2.952963
H    2.086272  -1.173427  2.482220
C    0.214456  -0.472604  3.350832
C    -0.483889  -1.836153  3.536654
C    -1.411181  -1.817603  4.776128
N    -2.251293  -3.013048  4.885340
C    -2.326268  -3.860556  5.938706
N    -3.450184  -4.552588  6.137296
N    -1.292125  -4.019850  6.772335
H    -0.539696  0.300871  3.131971
H    0.687959  -0.190236  4.304239
H    0.256980  -2.643915  3.650014
H    -1.111593  -2.074727  2.662921
H    -2.074303  -0.940101  4.728177
H    -0.827577  -1.711487  5.699185
H    -3.026510  -3.076206  4.230927
H    -3.471417  -5.361848  6.750387
H    -1.405081  -4.520596  7.648007
H    -0.345322  -3.788090  6.502278
H    -4.333176  -4.275121  5.721730
O    0.345924  -1.682486  0.439653
H    0.273276  -2.361357  1.140146
Sr    2.485207  2.144141  -0.019215
