28
Energy: -103703.166483 eV PBE+vdW (tier 2 basis)
N    1.497529  -1.728435  0.188212
C    0.268199  -0.880787  0.023147
C    0.655549  0.570960  0.331094
O    1.801296  0.862170  0.717662
H    1.373623  -2.304059  1.030070
H    1.517471  -2.413838  -0.574306
H    -0.006596  -0.898982  -1.045425
C    -0.928433  -1.435993  0.853218
C    -2.318295  -0.809129  0.612042
C    -3.430933  -1.663629  1.258392
N    -4.742947  -1.033805  1.103692
C    -5.926074  -1.686085  1.016792
N    -7.020458  -1.001771  0.673563
N    -6.001511  -3.002791  1.239469
H    -0.674552  -1.378688  1.923967
H    -0.981671  -2.505305  0.596092
H    -2.527035  -0.724902  -0.466636
H    -2.366951  0.199870  1.054796
H    -3.202876  -1.827622  2.324814
H    -3.466223  -2.644184  0.763649
H    -4.805684  -0.034261  1.275884
H    -6.967372  -0.083068  0.247576
H    -5.330772  -3.483318  1.827177
H    -6.847947  -3.515805  1.011899
H    -7.949140  -1.387872  0.812127
O    -0.194472  1.548875  0.161533
H    -1.064453  1.264154  -0.183003
Sr    3.778728  -0.315698  0.570505
