28
Energy: -103704.146832 eV PBE+vdW (tier 2 basis)
N    2.627449  -0.348419  1.195920
C    2.211394  -0.584959  2.644035
C    2.756525  -1.981934  3.026530
O    3.569510  -2.549233  2.215537
H    2.981293  0.601751  1.024883
H    1.854802  -0.523394  0.537956
H    2.788103  0.134157  3.247819
C    0.709571  -0.386880  2.886787
C    0.229582  1.074172  2.780312
C    -1.260729  1.211290  3.143057
N    -1.699413  2.605114  3.039327
C    -2.737538  3.155599  3.706750
N    -2.901020  4.481711  3.680099
N    -3.579213  2.391470  4.411845
H    0.521316  -0.768488  3.900878
H    0.138874  -1.041203  2.206438
H    0.381216  1.458280  1.756925
H    0.821552  1.711417  3.454941
H    -1.414743  0.883539  4.181289
H    -1.868654  0.564223  2.488279
H    -1.307297  3.167186  2.289635
H    -2.158787  5.107378  3.387657
H    -3.771631  4.911997  3.975058
H    -3.709825  1.409147  4.203157
H    -4.256211  2.813117  5.039998
O    2.436384  -2.492668  4.136368
H    3.379015  -1.041843  0.988307
Sr    3.920476  -4.361528  3.826215
