28
Energy: -103703.457501 eV PBE+vdW (tier 2 basis)
N    1.580515  0.436947  1.925607
C    1.176991  -0.950232  1.515858
C    0.990042  -0.956152  -0.002205
O    1.393390  -0.019360  -0.722670
H    0.744188  0.913306  2.286649
H    2.194557  0.364982  2.742948
H    2.053686  -1.603820  1.678161
C    -0.023672  -1.545338  2.292216
C    0.268855  -1.840554  3.774109
C    -0.950668  -2.334963  4.581441
N    -1.404375  -3.699271  4.283106
C    -1.336404  -4.756164  5.125734
N    -2.184823  -5.776235  4.966419
N    -0.425285  -4.799311  6.102945
H    -0.315205  -2.471096  1.777052
H    -0.880229  -0.855769  2.198673
H    0.612819  -0.928747  4.287718
H    1.087501  -2.573160  3.852380
H    -1.805828  -1.660158  4.428215
H    -0.719357  -2.279579  5.652561
H    -2.052889  -3.810189  3.510186
H    -2.033590  -6.665681  5.431744
H    -0.485742  -5.492225  6.841983
H    0.385795  -4.195032  6.111540
H    -3.052876  -5.676499  4.451615
O    0.427828  -2.029597  -0.479752
H    0.381638  -2.016292  -1.462959
Sr    2.536139  1.913190  -0.105270
