28
Energy: -103703.252555 eV PBE+vdW (tier 2 basis)
N    0.872798  -0.867035  -0.258033
C    0.236229  -0.070683  0.840797
C    1.310737  0.198836  1.911145
O    2.499179  -0.108394  1.704137
H    0.598556  -1.849765  -0.138851
H    0.444375  -0.593349  -1.147558
H    0.007095  0.927467  0.425564
C    -1.069210  -0.681299  1.410796
C    -2.270983  -0.652444  0.446154
C    -3.556603  -1.146788  1.137204
N    -4.709483  -1.044752  0.240444
C    -5.859427  -1.747756  0.359110
N    -6.767948  -1.678822  -0.618007
N    -6.077422  -2.529381  1.422026
H    -1.352431  -0.126170  2.320046
H    -0.862724  -1.709900  1.750333
H    -2.082235  -1.274774  -0.441541
H    -2.423794  0.380551  0.092629
H    -3.729588  -0.560293  2.056019
H    -3.441521  -2.201564  1.426473
H    -4.745864  -0.242933  -0.382499
H    -6.543102  -1.307182  -1.534048
H    -6.862992  -3.172581  1.437562
H    -5.610498  -2.371250  2.306739
H    -7.717357  -2.010503  -0.480429
O    1.030137  0.799160  3.032525
H    0.088186  1.035478  3.150444
Sr    3.609891  -0.822873  -0.170181
