28
Energy: -103703.218718 eV PBE+vdW (tier 2 basis)
N    0.684174  1.082370  1.039703
C    0.530017  0.138315  2.193830
C    1.894650  -0.530591  2.442715
O    2.902305  -0.168226  1.808180
H    0.278328  0.637470  0.207661
H    0.087666  1.898723  1.204814
H    0.355027  0.753110  3.095076
C    -0.635822  -0.873582  2.048499
C    -2.044228  -0.256768  2.156225
C    -3.137579  -1.339631  2.074071
N    -4.472911  -0.757822  2.225406
C    -5.568152  -1.414158  2.671246
N    -5.545437  -2.739599  2.848710
N    -6.671226  -0.718806  2.962513
H    -0.539706  -1.640706  2.833847
H    -0.516108  -1.417328  1.096514
H    -2.203386  0.477484  1.349822
H    -2.143772  0.282457  3.110687
H    -2.994722  -2.066494  2.887029
H    -3.056481  -1.882552  1.117117
H    -4.640970  0.153379  1.809458
H    -4.900108  -3.335237  2.344071
H    -7.566976  -1.179303  3.088855
H    -6.651354  0.285594  3.099144
H    -6.303746  -3.208361  3.334867
O    2.053523  -1.450635  3.351426
H    1.241320  -1.694887  3.838837
Sr    3.299674  1.612782  0.419675
