28
Energy: -103703.091025 eV PBE+vdW (tier 2 basis)
N    2.224130  0.605468  2.146002
C    1.544673  -0.726017  2.021825
C    0.899615  -0.785995  0.628798
O    1.148017  0.086542  -0.222909
H    1.594079  1.238667  2.654369
H    3.025030  0.496754  2.777393
H    2.343723  -1.488668  1.989207
C    0.616831  -1.056404  3.229573
C    0.192973  -2.538290  3.366498
C    -0.208860  -2.994669  4.787558
N    -1.566171  -2.613382  5.184234
C    -2.376103  -3.355207  5.980133
N    -3.660956  -3.008164  6.100429
N    -1.912630  -4.432130  6.619594
H    -0.258243  -0.387801  3.205001
H    1.197285  -0.786301  4.125064
H    1.041632  -3.182948  3.087600
H    -0.648917  -2.793192  2.699120
H    0.531744  -2.627940  5.517707
H    -0.165261  -4.091267  4.796629
H    -1.859268  -1.651819  5.043880
H    -4.244598  -3.396290  6.834940
H    -2.551721  -5.088132  7.058878
H    -0.930036  -4.548482  6.837873
H    -4.116105  -2.397946  5.431201
O    0.121643  -1.772975  0.280543
H    -0.019835  -2.432586  0.991234
Sr    2.703327  1.790169  -0.247374
