28
Energy: -103703.623768 eV PBE+vdW (tier 2 basis)
N    0.872478  -1.657869  0.399252
C    0.620383  -0.313918  1.070017
C    1.998684  0.358127  1.261941
O    2.980833  -0.096142  0.576591
H    1.777221  -1.586215  -0.108061
H    0.127068  -1.913679  -0.263130
H    0.133551  0.304232  0.297475
C    -0.336990  -0.378334  2.268003
C    0.014102  -1.309816  3.442655
C    -1.023988  -1.139144  4.573437
N    -0.772217  -2.014928  5.722858
C    -1.694009  -2.726640  6.414721
N    -1.458851  -3.022131  7.696033
N    -2.820982  -3.153372  5.835837
H    -1.335669  -0.628415  1.877697
H    -0.415146  0.659333  2.625270
H    1.017755  -1.077399  3.832515
H    0.023486  -2.369814  3.138519
H    -2.034506  -1.336144  4.195357
H    -1.024969  -0.092604  4.917322
H    0.100037  -1.857341  6.219958
H    -1.991058  -3.739665  8.178603
H    -0.783872  -2.508026  8.251374
H    -3.575431  -3.541735  6.392640
H    -2.918676  -3.221515  4.831416
O    2.096673  1.388579  1.987514
H    0.962552  -2.421385  1.083891
Sr    4.306543  1.869960  1.150291
