28
Energy: -103703.157873 eV PBE+vdW (tier 2 basis)
N    1.446854  -1.229314  -0.781008
C    0.286372  -0.503739  -0.164043
C    0.818745  0.271966  1.049071
O    2.040163  0.344488  1.273835
H    1.409034  -2.207854  -0.468529
H    1.283716  -1.289416  -1.791725
H    -0.024020  0.276028  -0.882362
C    -0.927910  -1.440986  0.101414
C    -2.291538  -0.774711  0.393110
C    -3.454268  -1.780742  0.217835
N    -4.769286  -1.158861  0.390697
C    -5.793762  -1.616647  1.150338
N    -7.044408  -1.292536  0.815487
N    -5.571710  -2.372537  2.231145
H    -0.669649  -2.148682  0.905156
H    -1.037587  -2.039164  -0.816573
H    -2.454268  0.069820  -0.295959
H    -2.349724  -0.380898  1.422626
H    -3.359086  -2.615184  0.923254
H    -3.405112  -2.220972  -0.790722
H    -5.036948  -0.481371  -0.318573
H    -7.285769  -0.966316  -0.114362
H    -4.678260  -2.382668  2.705627
H    -6.339553  -2.841642  2.700956
H    -7.812017  -1.400660  1.471568
O    0.012763  0.917030  1.847029
H    -0.932178  0.822525  1.607369
Sr    3.860406  -0.290959  0.006344
