28
Energy: -103703.564395 eV PBE+vdW (tier 2 basis)
N    1.239537  -0.263782  0.170278
C    0.393920  0.019336  1.405303
C    1.369822  0.465730  2.519257
O    0.957955  0.560516  3.710248
H    2.120774  0.280095  0.270676
H    1.498767  -1.257597  0.097335
H    -0.174726  0.932340  1.164412
C    -0.616966  -1.088524  1.742688
C    -0.049463  -2.499077  1.979171
C    -1.047789  -3.505378  2.590948
N    -2.094284  -3.953216  1.666767
C    -2.639752  -5.194128  1.650904
N    -3.453882  -5.531299  0.646102
N    -2.354581  -6.085414  2.604613
H    -1.375728  -1.091099  0.944928
H    -1.133979  -0.735786  2.647532
H    0.787558  -2.445392  2.692650
H    0.350302  -2.940920  1.051329
H    -1.495675  -3.076338  3.502480
H    -0.473514  -4.392021  2.887667
H    -2.628268  -3.245861  1.171478
H    -3.483403  -5.005331  -0.219804
H    -2.616686  -7.060538  2.496051
H    -2.044792  -5.803293  3.526897
H    -4.047298  -6.353129  0.701620
O    2.547690  0.824349  2.167350
H    0.767873  0.005642  -0.704015
Sr    2.955586  1.727116  4.400136
