28
Energy: -103703.465178 eV PBE+vdW (tier 2 basis)
N    0.387526  2.447201  1.672221
C    0.866597  1.191061  1.002437
C    0.148454  1.075321  -0.343071
O    -0.471295  2.035439  -0.846421
H    -0.335913  2.183927  2.353466
H    1.149903  2.813090  2.251471
H    1.923850  1.358522  0.725506
C    0.787084  -0.092739  1.863701
C    1.724236  -0.079780  3.084487
C    1.669053  -1.341148  3.964415
N    2.343016  -2.493699  3.351518
C    2.213363  -3.771272  3.785098
N    2.851324  -4.748994  3.134377
N    1.427638  -4.064396  4.825375
H    1.028728  -0.942958  1.211493
H    -0.257762  -0.242292  2.184031
H    1.474236  0.755892  3.755285
H    2.764845  0.097181  2.764740
H    0.621408  -1.617725  4.153926
H    2.134316  -1.098521  4.933393
H    3.203357  -2.296723  2.846721
H    2.936119  -5.679513  3.530471
H    1.217836  -5.029393  5.061175
H    1.171403  -3.368629  5.515324
H    3.283047  -4.598165  2.230168
O    0.278608  -0.077197  -0.935698
H    -0.149812  -0.087167  -1.821924
Sr    -0.711163  4.205676  -0.032681
