28
Energy: -103703.179282 eV PBE+vdW (tier 2 basis)
N    -0.021717  0.594067  -0.765775
C    0.047378  -0.062159  0.583896
C    1.527547  -0.255396  0.935923
O    2.424522  0.038224  0.125836
H    -0.383187  -0.096476  -1.434941
H    -0.754902  1.310361  -0.735339
H    -0.347476  0.655605  1.323148
C    -0.818247  -1.357158  0.638490
C    -1.025943  -2.019563  2.017190
C    -2.144865  -3.082877  1.959441
N    -2.288956  -3.772182  3.242428
C    -3.436303  -4.298131  3.732116
N    -4.535071  -4.374266  2.973317
N    -3.468960  -4.715252  5.000481
H    -0.402562  -2.092283  -0.069374
H    -1.802518  -1.058699  0.245359
H    -1.300541  -1.267520  2.774387
H    -0.099989  -2.520643  2.345613
H    -1.932108  -3.804695  1.153293
H    -3.100060  -2.590069  1.730931
H    -1.437771  -4.061701  3.716102
H    -5.431674  -4.610383  3.387811
H    -4.217045  -5.311291  5.340836
H    -2.762022  -4.441134  5.673827
H    -4.482964  -4.419595  1.962632
O    1.891441  -0.700084  2.109583
H    1.145333  -0.873339  2.717823
Sr    2.377661  1.402639  -1.733033
