28
Energy: -103703.115353 eV PBE+vdW (tier 2 basis)
N    0.738678  -2.975939  2.126660
C    0.331994  -2.055939  1.014048
C    1.576200  -1.798667  0.150510
O    2.616923  -2.457930  0.325929
H    0.924435  -2.404793  2.960694
H    -0.078288  -3.537231  2.390154
H    -0.346022  -2.631086  0.357790
C    -0.438098  -0.795198  1.510440
C    -1.221496  -0.015824  0.427154
C    -2.407283  0.834416  0.936439
N    -2.021291  2.115996  1.530957
C    -2.757363  3.253063  1.460785
N    -2.208785  4.405438  1.856977
N    -4.004153  3.236216  0.982654
H    0.259056  -0.138205  2.054354
H    -1.163428  -1.168936  2.249377
H    -1.666359  -0.732390  -0.281475
H    -0.568655  0.659930  -0.152781
H    -3.012517  0.240108  1.641270
H    -3.038829  1.058092  0.067068
H    -1.273074  2.125913  2.216720
H    -1.205355  4.518371  1.945908
H    -4.483525  4.102479  0.755628
H    -4.571759  2.396836  0.985682
H    -2.777359  5.230711  2.019772
O    1.563474  -0.926919  -0.819211
H    0.710080  -0.454769  -0.913781
Sr    3.036798  -4.323743  1.616275
