28
Energy: -103703.191860 eV PBE+vdW (tier 2 basis)
N    1.264289  -0.134261  -0.117574
C    0.322459  0.352395  0.944995
C    1.174876  0.809866  2.138181
O    2.407788  0.934303  2.028091
H    1.309629  -1.159278  -0.054612
H    0.829761  0.036136  -1.030758
H    -0.140717  1.279280  0.561559
C    -0.806967  -0.670647  1.263505
C    -2.061192  -0.133898  1.988919
C    -3.210511  -1.165059  1.956660
N    -4.404632  -0.648231  2.625259
C    -5.342028  -1.394655  3.256616
N    -5.322243  -2.729566  3.179884
N    -6.274613  -0.779989  3.988347
H    -0.380903  -1.522584  1.816800
H    -1.131313  -1.063387  0.287561
H    -2.397806  0.799983  1.510687
H    -1.870377  0.089797  3.053681
H    -2.897233  -2.080328  2.478105
H    -3.434623  -1.429520  0.909680
H    -4.671011  0.312211  2.425894
H    -4.896597  -3.212753  2.397897
H    -7.112735  -1.265936  4.291898
H    -6.177636  0.186680  4.278930
H    -5.919209  -3.288913  3.781701
O    0.629399  1.126552  3.279498
H    -0.342390  1.002434  3.293335
Sr    3.806535  0.748369  0.204263
