28
Energy: -103703.610505 eV PBE+vdW (tier 2 basis)
N    -0.184749  0.882828  0.572861
C    0.051953  0.142957  1.885205
C    1.564639  0.262647  2.182651
O    2.088400  -0.419869  3.108265
H    -0.169502  0.246054  -0.237166
H    -1.083314  1.385114  0.557887
H    -0.445568  0.749600  2.659684
C    -0.588308  -1.259811  1.853187
C    -0.763864  -1.900400  3.249455
C    -1.913770  -2.915749  3.372414
N    -1.631791  -4.230983  2.786124
C    -2.231857  -5.382302  3.165561
N    -1.778455  -6.546375  2.686603
N    -3.252779  -5.369726  4.026961
H    -0.009508  -1.909432  1.177934
H    -1.585818  -1.134933  1.400055
H    -1.004558  -1.107542  3.973331
H    0.176430  -2.348715  3.594713
H    -2.835286  -2.489759  2.939231
H    -2.094493  -3.070833  4.444781
H    -1.104483  -4.275364  1.920852
H    -0.861233  -6.630631  2.264824
H    -3.590309  -6.230996  4.445224
H    -3.813750  -4.541600  4.186241
H    -2.314425  -7.402005  2.788605
O    2.230763  1.125933  1.508608
H    0.596117  1.559437  0.450461
Sr    4.190515  0.772458  2.899447
