28
Energy: -103704.102485 eV PBE+vdW (tier 2 basis)
N    1.440866  -1.219043  -0.533602
C    0.841490  -0.893926  0.830601
C    1.753475  0.189337  1.454925
O    1.566448  0.546644  2.651696
H    2.093129  -0.437564  -0.762794
H    1.993464  -2.087846  -0.516183
H    -0.119736  -0.394020  0.629650
C    0.614940  -2.132673  1.706760
C    -0.496273  -3.077106  1.207403
C    -0.739898  -4.238290  2.188898
N    -1.800932  -5.122582  1.700779
C    -2.572374  -5.924413  2.467729
N    -3.635311  -6.523166  1.922168
N    -2.298243  -6.098841  3.765332
H    0.356619  -1.746447  2.703496
H    1.568085  -2.674019  1.829455
H    -0.233262  -3.497582  0.221502
H    -1.434004  -2.515198  1.078607
H    -1.055497  -3.833535  3.161373
H    0.195120  -4.803258  2.342595
H    -1.859390  -5.278776  0.698852
H    -4.107538  -7.289510  2.391044
H    -2.961526  -6.567216  4.374775
H    -1.366687  -5.959066  4.137178
H    -4.024628  -6.221107  1.036121
O    2.639456  0.730089  0.704461
H    0.735645  -1.306019  -1.276805
Sr    3.214560  2.294133  2.499981
