28
Energy: -103703.442772 eV PBE+vdW (tier 2 basis)
N    0.054554  1.472244  2.438638
C    0.252773  0.016379  2.118096
C    0.960625  -0.049052  0.762526
O    1.564227  0.936066  0.289371
H    -0.890709  1.733511  2.129066
H    0.009541  1.565068  3.458996
H    1.004542  -0.366081  2.832940
C    -1.034661  -0.845095  2.253650
C    -0.780156  -2.347135  2.498643
C    -2.034794  -3.234845  2.529373
N    -2.799054  -3.117960  3.780348
C    -4.039917  -3.633585  3.958468
N    -4.650195  -3.476865  5.137655
N    -4.670636  -4.257890  2.959873
H    -1.659317  -0.705459  1.357529
H    -1.603252  -0.428426  3.099018
H    -0.207097  -2.486038  3.430271
H    -0.148886  -2.755295  1.700148
H    -1.708364  -4.277088  2.382214
H    -2.700201  -2.970039  1.694415
H    -2.251195  -3.018373  4.631099
H    -4.291185  -2.849597  5.847535
H    -5.646826  -4.522757  3.046627
H    -4.169993  -4.642640  2.168103
H    -5.490782  -3.995345  5.370695
O    0.921463  -1.205949  0.163800
H    1.436905  -1.201446  -0.675142
Sr    1.785595  3.080692  1.183044
