28
Energy: -103703.154985 eV PBE+vdW (tier 2 basis)
N    1.594952  -1.293672  -0.703680
C    0.375965  -0.526316  -0.280168
C    0.826960  0.532869  0.735535
O    2.035080  0.733573  0.953957
H    1.607497  -2.178937  -0.181384
H    1.463830  -1.587088  -1.677610
H    0.038733  0.052006  -1.158879
C    -0.785859  -1.458127  0.172719
C    -2.195933  -0.835354  0.282801
C    -3.288432  -1.929989  0.330232
N    -4.643434  -1.372581  0.329539
C    -5.669053  -1.723792  1.142946
N    -6.921945  -1.568949  0.709787
N    -5.446570  -2.206700  2.370084
H    -0.509343  -1.946720  1.120509
H    -0.830875  -2.254440  -0.586470
H    -2.389831  -0.185411  -0.585771
H    -2.308905  -0.219016  1.191527
H    -3.165007  -2.566552  1.214738
H    -3.179931  -2.590619  -0.544609
H    -4.923113  -0.887399  -0.519054
H    -7.143021  -1.472211  -0.275609
H    -4.574971  -2.050310  2.859288
H    -6.202954  -2.613806  2.910944
H    -7.708663  -1.582986  1.351864
O    -0.038217  1.284752  1.359057
H    -0.968812  1.077541  1.134691
Sr    3.924850  -0.048767  -0.113984
