28
Energy: -103704.147309 eV PBE+vdW (tier 2 basis)
N    -0.608174  0.587936  1.335885
C    0.480571  0.261545  2.352703
C    1.829347  0.534458  1.644982
O    1.801383  1.136873  0.515171
H    -0.986878  -0.259749  0.890398
H    -0.154334  1.158575  0.589691
H    0.400121  1.027209  3.141126
C    0.340002  -1.137624  2.965505
C    -0.867043  -1.304395  3.909470
C    -0.874737  -2.687607  4.586576
N    -1.994978  -2.805332  5.522741
C    -2.578516  -3.960924  5.911568
N    -3.709734  -3.913599  6.621352
N    -2.053731  -5.142291  5.566937
H    1.273805  -1.314735  3.518866
H    0.318643  -1.890120  2.159243
H    -1.819841  -1.173806  3.371768
H    -0.824704  -0.522573  4.685487
H    0.083880  -2.848733  5.107927
H    -0.983450  -3.474050  3.825836
H    -2.232008  -1.983896  6.071798
H    -4.058364  -4.729769  7.113734
H    -4.267455  -3.069340  6.685257
H    -2.572755  -6.001499  5.719038
H    -1.070896  -5.244221  5.344946
O    2.908187  0.213808  2.218116
H    -1.395360  1.113002  1.738304
Sr    4.250019  1.246855  0.509575
