28
Energy: -103702.929947 eV PBE+vdW (tier 2 basis)
N    1.913480  -0.923134  1.010194
C    0.510702  -0.532871  1.364592
C    0.483362  0.997588  1.535884
O    1.445894  1.688749  1.153760
H    2.394302  -1.210120  1.871533
H    1.877405  -1.777564  0.445463
H    -0.104080  -0.711993  0.463221
C    -0.123784  -1.322339  2.538468
C    -0.309294  -2.828843  2.257310
C    -1.327219  -3.542277  3.173639
N    -0.880364  -3.817788  4.545797
C    -0.832504  -5.042344  5.126721
N    -0.950003  -5.140305  6.453814
N    -0.646852  -6.145246  4.395749
H    -1.123862  -0.898019  2.732109
H    0.464671  -1.150842  3.454305
H    0.655104  -3.356853  2.300729
H    -0.694785  -2.954154  1.232652
H    -1.609527  -4.495613  2.711429
H    -2.258088  -2.956422  3.227713
H    -0.913151  -3.043450  5.201921
H    -0.706285  -5.996005  6.943254
H    -0.796571  -7.066682  4.794423
H    -0.301365  -6.112346  3.445552
H    -1.373559  -4.406197  7.010960
O    -0.551174  1.620839  2.022989
H    -1.286497  1.038565  2.300795
Sr    3.350044  1.167670  -0.017978
