28
Energy: -103703.290459 eV PBE+vdW (tier 2 basis)
N    0.432769  0.483158  0.192860
C    -0.092688  0.377055  1.598867
C    1.103281  0.501321  2.544106
O    2.237807  0.831011  2.141983
H    0.456243  -0.468241  -0.197303
H    -0.278470  0.955941  -0.374974
H    -0.704730  1.274916  1.790482
C    -0.955179  -0.902903  1.815078
C    -1.936929  -0.944485  3.010312
C    -3.315499  -0.317790  2.719664
N    -4.228186  -0.382677  3.864094
C    -5.313990  -1.174869  3.993368
N    -6.256139  -0.850917  4.883396
N    -5.462352  -2.271148  3.239218
H    -0.273558  -1.763480  1.886940
H    -1.525847  -1.045370  0.883508
H    -1.497456  -0.477102  3.900977
H    -2.076284  -2.001518  3.277444
H    -3.800767  -0.811536  1.866382
H    -3.221533  0.743721  2.443702
H    -4.098720  0.307966  4.597257
H    -6.330809  0.083786  5.269900
H    -6.349229  -2.763918  3.212595
H    -4.673305  -2.736709  2.810294
H    -6.956163  -1.523680  5.179709
O    0.841378  0.264433  3.799701
H    1.636771  0.381110  4.367930
Sr    2.916585  1.446925  -0.004488
