28
Energy: -103703.291688 eV PBE+vdW (tier 2 basis)
N    0.479367  -0.047617  0.077996
C    -0.163604  -0.059512  1.439742
C    0.900419  0.313837  2.466399
O    2.105180  0.445843  2.169761
H    0.328991  -0.970866  -0.345535
H    -0.059704  0.583237  -0.524347
H    -0.924669  0.735129  1.480887
C    -0.834766  -1.439421  1.725803
C    -1.791892  -1.588979  2.926149
C    -3.218356  -1.057842  2.702284
N    -4.070232  -1.473182  3.821096
C    -5.287813  -0.974786  4.122797
N    -5.863944  -1.310263  5.280491
N    -5.901580  -0.124896  3.289880
H    -0.035066  -2.188956  1.829987
H    -1.382756  -1.700591  0.806206
H    -1.368095  -1.148088  3.837639
H    -1.857035  -2.672049  3.113058
H    -3.613012  -1.454048  1.750596
H    -3.234746  0.041549  2.649065
H    -3.796756  -2.314462  4.320944
H    -5.342583  -1.749440  6.031099
H    -6.750529  0.352745  3.575661
H    -5.692455  -0.112439  2.299213
H    -6.850844  -1.142897  5.447953
O    0.446107  0.494105  3.677325
H    1.164962  0.735205  4.304995
Sr    3.095410  0.517684  0.059856
