28
Energy: -103703.144592 eV PBE+vdW (tier 2 basis)
N    1.469320  -0.725308  -0.835601
C    0.275422  -0.134120  -0.136800
C    0.773249  0.575638  1.126239
O    1.923415  0.383149  1.559640
H    1.301856  -1.730234  -0.959426
H    1.490383  -0.363411  -1.794959
H    -0.163581  0.636751  -0.791209
C    -0.807911  -1.217451  0.149095
C    -2.168518  -0.730231  0.687703
C    -3.199498  -1.882923  0.718796
N    -4.454571  -1.510297  1.377181
C    -5.702751  -1.607188  0.861771
N    -6.739610  -1.745940  1.690940
N    -5.911479  -1.556435  -0.458765
H    -0.384821  -1.969684  0.834593
H    -0.971494  -1.722960  -0.815946
H    -2.561892  0.088684  0.064118
H    -2.063217  -0.346323  1.714388
H    -2.775929  -2.745900  1.255691
H    -3.425679  -2.233738  -0.295850
H    -4.416513  -1.406015  2.387574
H    -6.624492  -2.062545  2.647898
H    -6.817215  -1.795861  -0.849429
H    -5.241483  -1.140075  -1.091985
H    -7.691554  -1.579326  1.379077
O    0.007853  1.407938  1.782014
H    -0.862217  1.568207  1.364911
Sr    3.815924  -0.364402  0.475341
