28
Energy: -103702.828118 eV PBE+vdW (tier 2 basis)
N    1.042500  0.208259  -0.509822
C    0.028100  0.320096  0.594886
C    0.790358  0.347004  1.923754
O    1.957117  -0.079705  1.998187
H    0.724026  -0.510620  -1.168314
H    1.013127  1.073256  -1.060500
H    -0.506234  1.278906  0.494595
C    -1.018176  -0.834552  0.522947
C    -2.173845  -0.778889  1.541121
C    -3.205791  -1.923978  1.403155
N    -4.163906  -1.797831  0.299082
C    -5.498512  -1.601398  0.433344
N    -6.317796  -1.988742  -0.547863
N    -6.001340  -1.013549  1.522791
H    -0.489463  -1.796964  0.620348
H    -1.428201  -0.788706  -0.498623
H    -2.696369  0.188858  1.471207
H    -1.778741  -0.869594  2.564425
H    -3.773394  -2.002957  2.338620
H    -2.688221  -2.888143  1.291909
H    -3.877171  -2.158973  -0.605044
H    -6.039834  -2.675625  -1.240402
H    -5.427842  -0.484761  2.166635
H    -6.999400  -1.025703  1.708140
H    -7.284008  -1.678298  -0.581789
O    0.242107  0.812971  3.014010
H    -0.649887  1.193720  2.886103
Sr    3.573798  -0.280083  0.371100
