28
Energy: -103704.096866 eV PBE+vdW (tier 2 basis)
N    1.902981  -0.788802  0.256975
C    1.068964  -0.567493  1.514503
C    1.942585  0.282795  2.467525
O    1.548074  0.497839  3.647940
H    1.364757  -0.677466  -0.612062
H    2.670272  -0.082297  0.283543
H    0.233553  0.085508  1.214603
C    0.526122  -1.867220  2.122379
C    -0.557285  -2.567762  1.278926
C    -1.128302  -3.802565  2.000197
N    -2.161058  -4.452190  1.189722
C    -3.158082  -5.231722  1.663473
N    -4.149089  -5.594037  0.843477
N    -3.174822  -5.615963  2.944704
H    0.112027  -1.584654  3.101210
H    1.365276  -2.550890  2.334679
H    -0.145485  -2.886048  0.305765
H    -1.378198  -1.865487  1.067785
H    -1.587744  -3.490295  2.949204
H    -0.315339  -4.511243  2.232677
H    -2.031929  -4.462200  0.182295
H    -4.312787  -5.124257  -0.039935
H    -3.996583  -6.063082  3.338983
H    -2.328198  -5.662444  3.498477
H    -4.790645  -6.341135  1.089109
O    3.020718  0.790154  1.997871
H    2.341340  -1.720567  0.242463
Sr    3.372877  2.000521  4.098513
