28
Energy: -103703.526071 eV PBE+vdW (tier 2 basis)
N    0.360454  -0.701050  0.227297
C    0.618974  0.033456  1.538183
C    2.144674  0.263611  1.625217
O    2.826700  0.116541  0.550415
H    -0.513362  -0.399683  -0.226150
H    0.311812  -1.721611  0.355479
H    0.198870  1.041574  1.389568
C    -0.103942  -0.601121  2.737581
C    0.387682  -1.984086  3.200477
C    -0.592364  -2.743724  4.113692
N    -0.794550  -2.095916  5.415422
C    -1.833210  -2.361551  6.245819
N    -1.962561  -1.655218  7.373100
N    -2.740694  -3.290365  5.931811
H    -1.175751  -0.640093  2.484131
H    -0.027862  0.127714  3.555617
H    1.367435  -1.894064  3.694424
H    0.553418  -2.662580  2.346680
H    -0.208467  -3.768021  4.247856
H    -1.571816  -2.814251  3.618218
H    0.026311  -1.698387  5.863880
H    -2.602328  -1.943487  8.106598
H    -1.449486  -0.795212  7.528075
H    -3.597373  -3.381041  6.469794
H    -2.536074  -4.043840  5.286310
O    2.659466  0.675677  2.703480
H    1.164280  -0.505593  -0.403112
Sr    4.774472  1.118047  1.605696
