28
Energy: -103703.913344 eV PBE+vdW (tier 2 basis)
N    0.350407  0.441267  0.199647
C    0.477631  0.204297  1.698823
C    1.984043  0.052817  2.006623
O    2.350578  -0.355508  3.145425
H    0.183387  -0.432825  -0.317998
H    -0.410963  1.094369  -0.032616
H    0.210329  1.167382  2.164442
C    -0.495047  -0.847616  2.249278
C    -0.433396  -2.276380  1.679213
C    -1.491883  -3.157941  2.372924
N    -1.534628  -4.508991  1.810961
C    -2.610277  -5.329730  1.835547
N    -2.580419  -6.463526  1.128582
N    -3.704393  -5.004022  2.531435
H    -1.512785  -0.443770  2.132302
H    -0.311025  -0.870255  3.333459
H    0.568570  -2.707398  1.833319
H    -0.636217  -2.294366  0.595097
H    -2.484623  -2.706139  2.233729
H    -1.285833  -3.192563  3.455841
H    -0.650461  -4.947566  1.570981
H    -1.900469  -6.618457  0.392879
H    -4.565773  -5.529406  2.416542
H    -3.668808  -4.366725  3.318001
H    -3.263811  -7.198354  1.281385
O    2.815212  0.459879  1.121166
H    1.255585  0.831795  -0.131086
Sr    4.631074  0.318730  2.746103
