28
Energy: -103703.011777 eV PBE+vdW (tier 2 basis)
N    0.921531  1.068480  2.079185
C    0.761530  -0.312684  2.637812
C    1.894873  -1.181786  2.061307
O    2.853805  -0.651013  1.470496
H    0.303764  1.158306  1.263313
H    0.541867  1.736388  2.757406
H    0.997275  -0.246582  3.716059
C    -0.654736  -0.927358  2.496616
C    -1.749057  -0.174283  3.282971
C    -3.036028  -0.985151  3.548622
N    -3.936814  -1.162600  2.401669
C    -5.241455  -0.794060  2.361510
N    -5.691106  0.230895  3.091179
N    -6.081861  -1.454711  1.560311
H    -0.618764  -1.958778  2.887283
H    -0.910413  -1.013397  1.428059
H    -2.008687  0.771607  2.784408
H    -1.354240  0.088325  4.277637
H    -3.601140  -0.495830  4.350669
H    -2.777336  -1.981902  3.938936
H    -3.682760  -1.877901  1.727080
H    -5.069779  0.915126  3.502640
H    -6.999617  -1.082180  1.336355
H    -5.879378  -2.389787  1.223526
H    -6.686686  0.390867  3.208131
O    1.922945  -2.474222  2.217936
H    1.154432  -2.845064  2.696347
Sr    3.462837  1.543290  1.180538
