28
Energy: -103703.431635 eV PBE+vdW (tier 2 basis)
N    0.396978  1.512293  2.536881
C    0.357943  0.062971  2.139444
C    1.027002  -0.041210  0.766863
O    1.776783  0.857715  0.332995
H    -0.497447  1.937031  2.259102
H    0.380096  1.557400  3.561335
H    1.047758  -0.470647  2.818852
C    -1.047498  -0.595782  2.253788
C    -1.016764  -2.125448  2.466101
C    -2.375123  -2.843479  2.357141
N    -3.202876  -2.756820  3.565732
C    -4.084607  -3.700189  3.965775
N    -4.610603  -3.626406  5.193852
N    -4.419367  -4.710438  3.157841
H    -1.639129  -0.344393  1.359761
H    -1.545511  -0.107494  3.105987
H    -0.553637  -2.365744  3.435387
H    -0.381157  -2.585539  1.699277
H    -2.166819  -3.908098  2.187989
H    -2.931025  -2.471845  1.479901
H    -3.240844  -1.877655  4.070063
H    -4.179497  -3.076479  5.927627
H    -4.928876  -5.513119  3.513842
H    -4.311514  -4.653021  2.152383
H    -5.418348  -4.182833  5.454230
O    0.788688  -1.140205  0.108166
H    1.284242  -1.171730  -0.742108
Sr    2.347152  2.891165  1.328794
