28
Energy: -103703.216269 eV PBE+vdW (tier 2 basis)
N    1.295494  -1.059977  0.090653
C    0.376090  -0.301559  1.003182
C    1.236483  0.294350  2.127599
O    2.477957  0.291341  2.047415
H    1.243793  -2.054515  0.345487
H    0.901593  -1.028694  -0.855747
H    0.013418  0.574259  0.435602
C    -0.853096  -1.142926  1.455759
C    -2.075322  -0.370015  1.999718
C    -3.310289  -1.289630  2.118459
N    -4.476426  -0.550548  2.602155
C    -5.500229  -1.071715  3.319504
N    -5.599639  -2.390939  3.514714
N    -6.398638  -0.245431  3.860866
H    -0.526321  -1.903084  2.182999
H    -1.181052  -1.690429  0.558777
H    -2.311934  0.471928  1.329483
H    -1.898183  0.050245  3.005837
H    -3.099074  -2.098152  2.832272
H    -3.519655  -1.747992  1.137371
H    -4.646622  0.366687  2.198580
H    -5.192005  -3.057733  2.870177
H    -7.288743  -0.587982  4.208896
H    -6.224096  0.749020  3.955431
H    -6.266034  -2.763808  4.184273
O    0.693790  0.860596  3.169317
H    -0.285333  0.824474  3.165189
Sr    3.899074  -0.354771  0.350031
