28
Energy: -103704.096346 eV PBE+vdW (tier 2 basis)
N    3.118252  0.030322  2.193444
C    2.117873  -0.690098  3.091684
C    2.498897  -2.189376  3.045338
O    3.602065  -2.509811  2.479139
H    3.470692  0.906318  2.600412
H    2.721346  0.246681  1.268389
H    2.336304  -0.356712  4.118776
C    0.656089  -0.385404  2.738549
C    0.216321  1.069209  3.000337
C    -1.285067  1.272169  2.700909
N    -1.705286  2.674265  2.779706
C    -2.640343  3.201117  3.601084
N    -3.253605  4.334052  3.248469
N    -2.954303  2.610868  4.760343
H    0.054134  -1.078115  3.344863
H    0.468556  -0.666537  1.688367
H    0.789551  1.769718  2.370701
H    0.426747  1.346237  4.044815
H    -1.905147  0.680690  3.386645
H    -1.519324  0.909327  1.688438
H    -1.425749  3.271850  2.006881
H    -3.261689  4.664139  2.289361
H    -3.772759  4.886195  3.923891
H    -2.330019  1.957536  5.214382
H    -3.767945  2.907349  5.289219
O    1.750171  -3.039499  3.604114
H    3.912370  -0.630001  2.046795
Sr    3.281867  -4.841488  3.158949
