28
Energy: -103703.984251 eV PBE+vdW (tier 2 basis)
N    -0.290322  0.190375  0.018276
C    0.038268  0.077526  1.503281
C    1.543952  0.398920  1.637339
O    2.132265  0.914025  0.621573
H    -1.230541  0.574129  -0.150688
H    -0.235820  -0.722442  -0.457185
H    -0.493648  0.911068  1.989658
C    -0.455995  -1.267492  2.074028
C    -0.721017  -1.261963  3.592094
C    -1.392811  -2.572547  4.040152
N    -1.734369  -2.523732  5.463813
C    -1.988102  -3.596532  6.244705
N    -2.145362  -3.424759  7.560997
N    -2.049618  -4.825158  5.719665
H    0.255939  -2.063687  1.807095
H    -1.402965  -1.505745  1.561972
H    -1.385057  -0.416302  3.835190
H    0.214235  -1.113174  4.147599
H    -0.707333  -3.417869  3.880905
H    -2.298608  -2.750176  3.434845
H    -2.006738  -1.622753  5.845863
H    -2.537671  -4.155302  8.145835
H    -1.879639  -2.563316  8.024036
H    -2.093924  -5.642388  6.320050
H    -2.250841  -4.976993  4.738946
O    2.140537  0.203046  2.734302
H    0.423679  0.807844  -0.417809
Sr    4.176504  1.216400  1.888463
