28
Energy: -103703.263415 eV PBE+vdW (tier 2 basis)
N    -0.108176  1.606632  2.385515
C    0.328930  0.175878  2.526927
C    1.785058  0.068932  2.071546
O    2.462375  1.067436  1.750611
H    -0.784466  1.649508  1.613389
H    -0.660153  1.862692  3.209571
H    0.360125  -0.062937  3.603991
C    -0.593121  -0.837336  1.799797
C    -1.956316  -1.131276  2.466157
C    -1.914027  -2.304561  3.468979
N    -3.224047  -2.632535  4.035274
C    -4.126723  -3.519221  3.562037
N    -5.366955  -3.513091  4.058644
N    -3.805215  -4.383910  2.591095
H    -0.035809  -1.776089  1.674688
H    -0.758425  -0.461705  0.777184
H    -2.670262  -1.383980  1.670254
H    -2.368357  -0.237239  2.960112
H    -1.253316  -2.089706  4.320187
H    -1.482831  -3.191348  2.984681
H    -3.474996  -2.170549  4.903318
H    -5.708978  -2.758001  4.642370
H    -4.516430  -4.985210  2.187437
H    -2.845590  -4.662555  2.428076
H    -6.000529  -4.291671  3.907714
O    2.263284  -1.142689  2.083539
H    3.211599  -1.172324  1.821582
Sr    1.896349  3.318854  1.828325
