28
Energy: -103703.316610 eV PBE+vdW (tier 2 basis)
N    -0.037773  1.196429  0.316778
C    -0.286405  0.631230  1.687199
C    1.076868  0.461727  2.356590
O    2.084535  1.081023  1.957010
H    0.014927  0.409434  -0.343229
H    -0.884412  1.698311  0.027207
H    -0.771133  1.433000  2.275034
C    -1.231218  -0.602288  1.704240
C    -1.943783  -0.850350  3.052982
C    -3.210086  -1.724650  2.985313
N    -2.945585  -3.166891  2.938986
C    -3.773047  -4.117671  3.428143
N    -3.339939  -5.380555  3.516361
N    -5.005170  -3.806825  3.840968
H    -0.675056  -1.489439  1.362602
H    -1.999244  -0.399797  0.941169
H    -2.280457  0.119608  3.450176
H    -1.255101  -1.263723  3.800734
H    -3.837974  -1.419245  2.131107
H    -3.784221  -1.532568  3.901483
H    -2.180349  -3.503016  2.364221
H    -2.353463  -5.610430  3.492807
H    -5.558162  -4.472255  4.371981
H    -5.483363  -2.970932  3.527247
H    -3.983765  -6.146985  3.683128
O    1.097674  -0.331371  3.391227
H    1.984591  -0.348236  3.818348
Sr    2.253112  2.558465  0.149188
