28
Energy: -103704.013020 eV PBE+vdW (tier 2 basis)
N    -0.051176  0.681006  2.573683
C    0.941438  -0.475922  2.528518
C    2.138204  0.012826  1.678000
O    3.051829  -0.801953  1.366032
H    -0.461281  0.826305  3.505398
H    0.474779  1.534839  2.287374
H    1.329664  -0.582338  3.554252
C    0.318132  -1.798836  2.065904
C    -0.686411  -2.421187  3.056259
C    -1.086665  -3.851176  2.638883
N    -1.937584  -4.501486  3.641351
C    -3.055646  -5.229459  3.418395
N    -3.418325  -6.153481  4.312225
N    -3.809942  -5.031556  2.331336
H    1.165326  -2.484369  1.915766
H    -0.137083  -1.662438  1.070522
H    -1.596067  -1.807255  3.151762
H    -0.226966  -2.461603  4.057116
H    -0.181405  -4.462819  2.496064
H    -1.609674  -3.847267  1.674948
H    -1.517091  -4.637875  4.556797
H    -2.767923  -6.525059  4.995966
H    -4.554690  -5.678225  2.093131
H    -3.764336  -4.175562  1.794763
H    -4.354444  -6.546317  4.315786
O    2.186011  1.253943  1.366840
H    -0.822363  0.554337  1.903572
Sr    4.401690  0.919928  0.370360
