28
Energy: -103703.894321 eV PBE+vdW (tier 2 basis)
N    0.683517  -0.642144  0.244825
C    0.146459  0.564255  1.007013
C    1.382301  1.342594  1.516938
O    2.528774  1.016982  1.048495
H    0.166133  -0.834476  -0.622955
H    0.672137  -1.497648  0.817520
H    -0.312697  1.217811  0.247181
C    -0.902132  0.204905  2.069050
C    -2.250634  -0.263072  1.483127
C    -3.434624  -0.249888  2.474384
N    -3.491126  -1.364526  3.428814
C    -4.473518  -2.294415  3.496211
N    -4.698229  -2.925810  4.652586
N    -5.205075  -2.603612  2.421497
H    -1.053214  1.127350  2.649403
H    -0.479799  -0.533510  2.770826
H    -2.165891  -1.265954  1.034841
H    -2.534833  0.422380  0.668791
H    -4.373442  -0.242924  1.907300
H    -3.431774  0.688300  3.049211
H    -2.925174  -1.281763  4.267482
H    -5.270813  -3.763133  4.693867
H    -4.390813  -2.543696  5.540085
H    -6.053736  -3.153511  2.508412
H    -4.928127  -2.341605  1.484596
O    1.223415  2.309102  2.314697
H    1.678936  -0.431086  0.016978
Sr    3.541976  2.940093  2.180827
