28
Energy: -103702.644638 eV PBE+vdW (tier 2 basis)
N    0.332250  -0.156929  0.189640
C    0.004480  0.103901  1.630618
C    1.319507  -0.029877  2.419418
O    2.413543  0.012822  1.828466
H    0.148914  -1.149490  -0.004124
H    -0.352898  0.340191  -0.388877
H    -0.254874  1.175341  1.706122
C    -1.191608  -0.734473  2.176833
C    -1.974048  -0.078534  3.338681
C    -3.015156  -0.975899  4.043363
N    -4.290443  -1.086937  3.331092
C    -5.501403  -1.205473  3.928850
N    -6.606205  -1.071648  3.188696
N    -5.600482  -1.431003  5.241628
H    -0.835792  -1.737169  2.463922
H    -1.875351  -0.884569  1.327906
H    -2.459654  0.846729  2.993462
H    -1.298529  0.252817  4.147091
H    -3.231831  -0.516682  5.016380
H    -2.588156  -1.974369  4.236600
H    -4.276748  -1.283646  2.335656
H    -6.592202  -0.615974  2.283385
H    -6.492278  -1.332289  5.717738
H    -4.854314  -1.865673  5.771689
H    -7.513566  -1.360977  3.540528
O    1.336101  -0.154612  3.716633
H    0.444987  -0.175805  4.121948
Sr    2.958754  0.263232  -0.394345
