28
Energy: -103703.452987 eV PBE+vdW (tier 2 basis)
N    -0.611481  1.795871  1.360629
C    0.880023  1.818127  1.527025
C    1.496950  2.016786  0.144214
O    0.845496  2.524618  -0.793208
H    -0.905509  0.824541  1.200015
H    -1.030090  2.032686  2.267043
H    1.115340  2.773956  2.032670
C    1.505102  0.722772  2.420116
C    1.416492  -0.744035  1.961157
C    2.167473  -1.644853  2.962055
N    2.114543  -3.055922  2.574385
C    2.287615  -4.100298  3.416451
N    2.066128  -5.340887  2.971003
N    2.644389  -3.901469  4.689485
H    1.043052  0.831456  3.413538
H    2.560346  1.001647  2.558168
H    1.866113  -0.860309  0.962040
H    0.371636  -1.086914  1.896458
H    1.705234  -1.549845  3.955303
H    3.213912  -1.304756  3.041731
H    2.183811  -3.272040  1.584283
H    2.377730  -6.152866  3.494027
H    2.619354  -4.664388  5.358890
H    3.124063  -3.060022  4.985663
H    1.563257  -5.518763  2.109248
O    2.753987  1.688497  0.046460
H    3.130781  1.928944  -0.830810
Sr    -1.364747  3.294467  -0.722034
