28
Energy: -103703.316503 eV PBE+vdW (tier 2 basis)
N    0.245234  0.910819  0.248199
C    -0.308862  0.513823  1.588399
C    0.861600  0.492701  2.569429
O    1.931891  1.088369  2.328315
H    0.453539  0.048755  -0.272542
H    -0.515995  1.339648  -0.289602
H    -0.931792  1.359524  1.934416
C    -1.206623  -0.754185  1.553027
C    -2.245809  -0.851919  2.690478
C    -3.394142  -1.849223  2.428756
N    -3.074948  -3.269385  2.624868
C    -3.594141  -4.067350  3.585753
N    -3.626856  -5.389910  3.392594
N    -4.056638  -3.554997  4.730550
H    -0.571691  -1.652764  1.510153
H    -1.751767  -0.704905  0.596897
H    -2.724645  0.132274  2.814956
H    -1.760032  -1.086733  3.646607
H    -3.777026  -1.732185  1.403909
H    -4.237165  -1.600195  3.085282
H    -2.648049  -3.759656  1.845425
H    -3.569862  -5.797097  2.465664
H    -4.615071  -4.116029  5.365470
H    -3.841577  -2.611574  5.025267
H    -3.813914  -6.029855  4.157904
O    0.645301  -0.149340  3.683939
H    1.412061  -0.077022  4.297070
Sr    2.502980  2.320410  0.420819
