28
Energy: -103703.129097 eV PBE+vdW (tier 2 basis)
N    0.738046  0.346802  0.063379
C    0.102557  -0.097960  1.345635
C    1.133687  -0.962947  2.094327
O    2.333005  -0.934257  1.761284
H    0.471195  -0.314672  -0.675927
H    0.306806  1.231835  -0.221655
H    0.007262  0.805086  1.976829
C    -1.304563  -0.734681  1.213793
C    -2.359469  0.221621  0.616683
C    -3.829405  -0.129019  0.905504
N    -4.306196  -1.319922  0.189449
C    -5.468477  -1.959122  0.479711
N    -5.798246  -3.054870  -0.209970
N    -6.257639  -1.528476  1.467410
H    -1.647169  -1.017414  2.223748
H    -1.237597  -1.672171  0.640130
H    -2.217833  0.331603  -0.470338
H    -2.217759  1.228331  1.040302
H    -4.437141  0.750279  0.635847
H    -3.958426  -0.305670  1.983511
H    -3.987587  -1.430670  -0.769590
H    -5.133047  -3.534580  -0.805164
H    -6.222834  -0.573985  1.805298
H    -7.046590  -2.085786  1.781305
H    -6.730675  -3.452553  -0.155939
O    0.807358  -1.696504  3.119423
H    -0.145852  -1.685484  3.339135
Sr    3.470589  0.308190  0.197879
