28
Energy: -103703.502309 eV PBE+vdW (tier 2 basis)
N    1.764575  -1.067965  0.345070
C    0.815299  -0.467973  1.374212
C    1.684053  -0.004110  2.566332
O    1.126558  0.342716  3.646487
H    1.471605  -0.875511  -0.622783
H    2.703503  -0.653025  0.512817
H    0.454899  0.470462  0.921930
C    -0.411396  -1.339933  1.682794
C    -0.156898  -2.757115  2.224375
C    -1.425327  -3.446994  2.775427
N    -2.438500  -3.807436  1.774953
C    -2.889182  -5.059062  1.516263
N    -4.113553  -5.219791  1.007398
N    -2.122050  -6.129518  1.745075
H    -1.029979  -1.376459  0.772991
H    -0.989230  -0.760077  2.418265
H    0.553914  -2.717798  3.064896
H    0.291015  -3.408483  1.455206
H    -1.904106  -2.794138  3.520756
H    -1.136707  -4.356586  3.315639
H    -3.060867  -3.064675  1.471087
H    -4.822459  -4.497317  1.073267
H    -2.512921  -7.065869  1.718242
H    -1.121967  -6.058965  1.878586
H    -4.404950  -6.103603  0.601207
O    2.945314  0.107019  2.376061
H    1.856551  -2.087729  0.450892
Sr    3.174803  1.279934  4.508557
