28
Energy: -103703.888945 eV PBE+vdW (tier 2 basis)
N    1.321442  -1.771695  0.428995
C    0.794794  -0.498335  1.078334
C    2.024167  0.343998  1.484790
O    3.151803  0.041523  0.957633
H    0.727623  -2.091200  -0.349255
H    1.402039  -2.547112  1.101150
H    0.343144  0.076575  0.252905
C    -0.310717  -0.736829  2.115951
C    0.012529  -1.583202  3.360835
C    -1.257286  -1.740965  4.220451
N    -1.022619  -2.582821  5.395425
C    -1.813235  -2.616495  6.493128
N    -1.423244  -3.326090  7.556451
N    -2.956703  -1.925261  6.533296
H    -1.170006  -1.171437  1.581321
H    -0.636106  0.267146  2.425310
H    0.807376  -1.114289  3.959197
H    0.366341  -2.590789  3.078084
H    -2.065967  -2.162216  3.598629
H    -1.581450  -0.749786  4.569886
H    -0.374489  -3.358538  5.296078
H    -2.066592  -3.542792  8.310972
H    -0.470903  -3.657329  7.660184
H    -3.471086  -1.825665  7.403057
H    -3.441434  -1.640536  5.690822
O    1.870062  1.357778  2.223897
H    2.277448  -1.566693  0.074670
Sr    4.099072  2.146053  1.746805
