28
Energy: -103703.129047 eV PBE+vdW (tier 2 basis)
N    1.352363  0.726065  2.148623
C    1.426808  -0.770150  2.187133
C    1.591059  -1.260352  0.736337
O    1.927924  -0.462926  -0.158507
H    0.362512  0.999571  2.121634
H    1.690889  1.090227  3.044871
H    2.392804  -1.022989  2.662425
C    0.304492  -1.478920  2.987696
C    0.280163  -1.097618  4.483491
C    -0.440289  -2.083389  5.419706
N    -1.900875  -2.091006  5.261486
C    -2.711004  -3.047842  5.782886
N    -4.025897  -2.982079  5.555169
N    -2.204049  -4.067380  6.480979
H    0.476138  -2.567060  2.925886
H    -0.669197  -1.295579  2.507276
H    -0.139386  -0.088663  4.624089
H    1.313266  -1.047538  4.861877
H    -0.167451  -1.815688  6.453677
H    -0.072182  -3.102624  5.231020
H    -2.346240  -1.188588  5.117151
H    -4.681173  -3.560489  6.071462
H    -2.786983  -4.856373  6.744167
H    -1.298025  -4.012181  6.930996
H    -4.419130  -2.361046  4.857678
O    1.444184  -2.511841  0.408151
H    1.178577  -3.096391  1.146242
Sr    2.509701  1.759850  -0.104600
