28
Energy: -103703.162493 eV PBE+vdW (tier 2 basis)
N    2.354592  -0.695579  2.098153
C    0.897711  -0.550795  1.776314
C    0.740575  0.681801  0.864974
O    1.742735  1.238323  0.379614
H    2.514563  -0.303318  3.034074
H    2.565780  -1.692535  2.204071
H    0.625234  -1.404306  1.129315
C    -0.042716  -0.541776  3.007852
C    -0.112053  -1.870305  3.787352
C    -1.124386  -1.782590  4.950856
N    -1.136981  -2.977448  5.800324
C    -2.206876  -3.752068  6.094449
N    -2.217979  -4.440435  7.238478
N    -3.244704  -3.843989  5.254720
H    -1.063049  -0.293859  2.670513
H    0.252127  0.284819  3.675747
H    0.876209  -2.124827  4.201539
H    -0.391773  -2.693663  3.112162
H    -2.141471  -1.614228  4.574061
H    -0.888484  -0.916279  5.588421
H    -0.338918  -3.098075  6.417829
H    -2.867061  -5.207035  7.387346
H    -4.112009  -4.281451  5.549200
H    -3.156165  -3.631520  4.269691
H    -1.617978  -4.195386  8.018946
O    -0.428505  1.146822  0.528228
H    -1.187837  0.680920  0.931994
Sr    3.973415  0.708783  0.393776
