28
Energy: -103703.305691 eV PBE+vdW (tier 2 basis)
N    2.622861  -0.512553  1.929284
C    1.121529  -0.564756  1.965434
C    0.578690  0.738692  1.377516
O    1.320612  1.606026  0.871580
H    2.954112  -0.424973  2.897775
H    2.974798  -1.427319  1.631512
H    0.793634  -1.342942  1.254807
C    0.536384  -0.868936  3.369138
C    0.651043  -2.330244  3.860527
C    -0.557470  -3.205766  3.468099
N    -0.476711  -4.577077  3.976877
C    -1.235640  -5.124498  4.951593
N    -1.353064  -6.453461  5.018306
N    -1.870975  -4.356489  5.844708
H    -0.518811  -0.562480  3.371926
H    1.034270  -0.199289  4.088635
H    0.735688  -2.311908  4.956025
H    1.582148  -2.802160  3.508234
H    -0.664281  -3.269352  2.374524
H    -1.490905  -2.758001  3.835552
H    0.108130  -5.227610  3.461299
H    -1.710491  -6.910709  5.851210
H    -2.573478  -4.752429  6.461017
H    -1.577014  -3.409115  6.043143
H    -1.135834  -7.051988  4.228829
O    -0.718903  0.845390  1.417360
H    -1.038507  1.676433  0.997836
Sr    3.617188  1.559515  0.523250
