28
Energy: -103703.623253 eV PBE+vdW (tier 2 basis)
N    -0.610354  0.255909  0.285261
C    -0.233889  0.088908  1.751484
C    1.278548  0.386240  1.863577
O    1.890989  0.116745  2.936015
H    -1.552529  0.652202  0.162629
H    0.091739  0.891415  -0.144229
H    -0.706586  0.940861  2.267788
C    -0.778169  -1.192374  2.398188
C    -0.422514  -2.546566  1.757669
C    -0.970772  -3.699039  2.627665
N    -0.708599  -5.024478  2.057814
C    -1.580993  -6.056901  1.973166
N    -1.107937  -7.305771  1.940337
N    -2.900004  -5.849636  1.903676
H    -1.871943  -1.087545  2.467279
H    -0.415919  -1.163072  3.436685
H    0.669496  -2.653431  1.659965
H    -0.848523  -2.645883  0.745241
H    -2.052008  -3.585833  2.773030
H    -0.521014  -3.648657  3.631912
H    0.269203  -5.287878  1.972288
H    -1.689439  -8.082978  1.642322
H    -3.552403  -6.620606  2.004047
H    -3.292405  -4.957541  1.633085
H    -0.173521  -7.535250  2.260628
O    1.834858  1.007825  0.891521
H    -0.573642  -0.636290  -0.227053
Sr    3.805334  1.422628  2.270004
