28
Energy: -103703.137674 eV PBE+vdW (tier 2 basis)
N    1.137977  -1.389146  1.303925
C    0.141969  -0.468022  0.664855
C    0.736162  0.950757  0.677689
O    1.888964  1.154115  1.099223
H    0.805081  -1.613591  2.249300
H    1.115410  -2.286954  0.810940
H    0.085497  -0.740642  -0.404209
C    -1.284805  -0.548595  1.274482
C    -2.010428  -1.880054  1.001456
C    -3.360611  -2.048533  1.731734
N    -4.471407  -1.226028  1.232699
C    -5.578672  -1.697474  0.608037
N    -6.711941  -0.993164  0.664953
N    -5.543926  -2.845166  -0.075371
H    -1.892147  0.277566  0.870716
H    -1.212098  -0.361263  2.359379
H    -1.387590  -2.724374  1.336194
H    -2.152261  -2.008787  -0.082880
H    -3.242387  -1.830433  2.803378
H    -3.664587  -3.101589  1.676822
H    -4.578617  -0.304370  1.644544
H    -6.873558  -0.292506  1.380370
H    -4.675253  -3.278914  -0.358868
H    -6.399497  -3.289871  -0.392716
H    -7.492906  -1.198541  0.049307
O    0.076107  1.972904  0.208018
H    -0.814890  1.761742  -0.135026
Sr    3.614416  -0.272066  1.616047
