28
Energy: -103703.123211 eV PBE+vdW (tier 2 basis)
N    0.597920  0.508263  -0.145159
C    0.187086  0.043147  1.218441
C    1.407101  -0.645117  1.859203
O    2.540825  -0.490142  1.368683
H    0.329796  -0.212411  -0.826444
H    0.023040  1.318592  -0.397033
H    0.043486  0.952907  1.830350
C    -1.126640  -0.778268  1.278186
C    -2.367356  0.007629  0.798419
C    -3.730816  -0.512092  1.295369
N    -4.217323  -1.711576  0.606753
C    -5.525937  -2.027523  0.449120
N    -5.857300  -3.050377  -0.345326
N    -6.480871  -1.317697  1.055390
H    -1.300836  -1.066005  2.329115
H    -0.992984  -1.718119  0.718395
H    -2.389552  0.082452  -0.298932
H    -2.299198  1.038273  1.181096
H    -4.463363  0.285145  1.112159
H    -3.690288  -0.678308  2.385597
H    -3.564597  -2.468106  0.430387
H    -5.212195  -3.428315  -1.029330
H    -6.297785  -0.762500  1.882736
H    -7.456545  -1.436451  0.799763
H    -6.792556  -3.444823  -0.333508
O    1.310665  -1.352019  2.948441
H    0.401208  -1.442060  3.297436
Sr    3.309015  0.811501  -0.362305
