28
Energy: -103703.975066 eV PBE+vdW (tier 2 basis)
N    -0.432806  1.200944  2.010190
C    0.474519  0.009881  2.301966
C    1.822232  0.314498  1.606112
O    2.721252  -0.571859  1.567769
H    -1.092403  1.007952  1.243053
H    -0.978385  1.505198  2.827227
H    0.681147  0.045505  3.383795
C    -0.166027  -1.338337  1.935780
C    -1.411511  -1.680932  2.779220
C    -2.142607  -2.983792  2.394140
N    -1.548031  -4.191250  2.975767
C    -2.240838  -5.295303  3.338179
N    -1.636853  -6.231777  4.077957
N    -3.519569  -5.448792  2.982518
H    0.628025  -2.087647  2.066940
H    -0.413441  -1.344402  0.860928
H    -2.166064  -0.885836  2.669776
H    -1.156282  -1.711500  3.849719
H    -2.209416  -3.073025  1.296892
H    -3.167153  -2.912999  2.781538
H    -0.537695  -4.283664  2.982173
H    -0.799564  -6.032344  4.612912
H    -4.092169  -6.172894  3.405381
H    -3.919154  -4.964764  2.187491
H    -2.042409  -7.155365  4.190614
O    1.997604  1.493392  1.136289
H    0.189773  1.977339  1.698384
Sr    4.311826  0.949771  0.575290
