28
Energy: -103703.142782 eV PBE+vdW (tier 2 basis)
N    0.208786  -0.325084  0.141529
C    0.007910  0.059961  1.574889
C    1.366882  0.502233  2.134483
O    2.315430  0.747992  1.366448
H    0.406342  -1.331862  0.096562
H    -0.690608  -0.225108  -0.341715
H    -0.578901  0.997003  1.559563
C    -0.807686  -0.930394  2.446418
C    -0.188279  -2.302269  2.776601
C    -1.174564  -3.142758  3.613750
N    -0.605154  -4.438605  3.987300
C    -1.003474  -5.189472  5.041035
N    -0.283381  -6.260376  5.386460
N    -2.084757  -4.851689  5.751204
H    -1.774349  -1.066031  1.936909
H    -1.076218  -0.408056  3.381241
H    0.753993  -2.190087  3.334923
H    0.049163  -2.852934  1.850832
H    -2.112697  -3.277320  3.048880
H    -1.416343  -2.603094  4.541182
H    -0.018724  -4.911071  3.305821
H    -0.651720  -6.961554  6.021492
H    -2.289034  -5.314215  6.631999
H    -2.830330  -4.290209  5.357292
H    0.664580  -6.398648  5.054720
O    1.546696  0.696350  3.411629
H    0.753991  0.521540  3.958050
Sr    2.341443  0.957757  -0.936496
