28
Energy: -103703.886728 eV PBE+vdW (tier 2 basis)
N    -0.528678  0.409881  -0.081190
C    -0.197099  0.182185  1.388134
C    1.333938  0.328014  1.534022
O    1.893107  -0.009617  2.616189
H    -1.421973  0.905421  -0.210787
H    0.243559  0.974037  -0.489629
H    -0.596482  1.067143  1.910797
C    -0.882209  -1.047191  2.000682
C    -0.572398  -2.436685  1.414035
C    -1.417400  -3.502745  2.139214
N    -1.203793  -4.841399  1.584811
C    -1.518459  -5.998097  2.212593
N    -1.152893  -7.159686  1.661814
N    -2.159558  -5.986696  3.385430
H    -1.967617  -0.862610  1.971360
H    -0.610682  -1.026305  3.066237
H    0.495484  -2.678213  1.518786
H    -0.813678  -2.478157  0.336823
H    -2.483514  -3.224439  2.076621
H    -1.135846  -3.524420  3.202160
H    -1.032972  -4.914849  0.586343
H    -1.537090  -8.041403  1.985970
H    -2.259651  -6.838257  3.929270
H    -2.715921  -5.195348  3.685213
H    -0.466613  -7.207642  0.917481
O    1.969854  0.898003  0.579322
H    -0.579131  -0.471638  -0.610215
Sr    3.943713  1.099713  1.998515
