28
Energy: -103702.618254 eV PBE+vdW (tier 2 basis)
N    -0.119626  0.607778  -0.095148
C    -0.013198  -0.132137  1.209881
C    1.464832  -0.150966  1.613222
O    2.358908  0.036118  0.767837
H    -0.733410  0.073252  -0.719222
H    -0.638142  1.477307  0.070559
H    -0.566226  0.423819  1.984422
C    -0.624991  -1.562286  1.099851
C    -0.646780  -2.403369  2.390418
C    -1.322246  -3.787938  2.231761
N    -2.787827  -3.789097  2.229505
C    -3.586067  -3.991226  3.305956
N    -3.068535  -4.136260  4.530862
N    -4.911111  -4.000869  3.140678
H    -0.086611  -2.114928  0.312369
H    -1.657267  -1.411959  0.745717
H    -1.148064  -1.852891  3.202651
H    0.381252  -2.615006  2.721179
H    -0.948739  -4.455799  3.019762
H    -1.003742  -4.263502  1.294552
H    -3.237795  -3.919265  1.329487
H    -3.675926  -4.264999  5.334214
H    -5.536586  -4.280494  3.889619
H    -5.344913  -3.794759  2.248058
H    -2.096073  -4.379550  4.671233
O    1.830921  -0.366726  2.848479
H    1.089321  -0.443851  3.481854
Sr    2.289642  1.141601  -1.250755
