28
Energy: -103703.566470 eV PBE+vdW (tier 2 basis)
N    0.986062  -0.003696  0.137359
C    0.387569  -0.079903  1.537068
C    1.540308  0.211500  2.526599
O    1.372452  0.006676  3.762273
H    1.290466  -0.924667  -0.207276
H    0.332022  0.392585  -0.551590
H    -0.267324  0.803123  1.617998
C    -0.477271  -1.325578  1.785997
C    0.212532  -2.694958  1.669986
C    -0.652359  -3.883827  2.133728
N    -1.758901  -4.188857  1.217074
C    -2.856726  -4.911760  1.553707
N    -3.826912  -5.078502  0.650173
N    -2.992606  -5.422097  2.781044
H    -1.352356  -1.268277  1.121302
H    -0.872589  -1.197518  2.804452
H    1.113793  -2.718002  2.300859
H    0.558732  -2.897472  0.640972
H    -1.081636  -3.653552  3.119269
H    0.004154  -4.761349  2.246592
H    -1.538850  -4.188859  0.224375
H    -3.870888  -4.525686  -0.198176
H    -3.874896  -5.827960  3.078267
H    -2.193888  -5.601090  3.377662
H    -4.564695  -5.762322  0.786893
O    2.602971  0.750644  2.056525
H    1.833140  0.597452  0.198019
Sr    3.410697  1.177950  4.318850
