28
Energy: -103703.316082 eV PBE+vdW (tier 2 basis)
N    0.388149  0.151588  0.015856
C    -0.122599  0.210295  1.430646
C    1.059811  0.567251  2.331061
O    2.180402  0.869840  1.872806
H    0.440393  -0.840651  -0.249101
H    -0.341921  0.524879  -0.599718
H    -0.812551  1.067821  1.502203
C    -0.866689  -1.098978  1.834328
C    -1.797681  -1.091459  3.068993
C    -3.241065  -0.637951  2.785072
N    -4.055208  -0.756653  3.997576
C    -5.347813  -1.139496  4.065510
N    -5.864967  -1.487029  5.247804
N    -6.105769  -1.194877  2.963547
H    -0.110770  -1.886223  1.975291
H    -1.452973  -1.398209  0.951281
H    -1.366091  -0.488490  3.879412
H    -1.835418  -2.122525  3.446390
H    -3.684735  -1.287608  2.017528
H    -3.272736  0.398989  2.409170
H    -3.629227  -0.472023  4.874767
H    -5.278693  -1.720563  6.041427
H    -7.018525  -1.638398  2.988012
H    -5.900091  -0.630919  2.148267
H    -6.868299  -1.553079  5.385962
O    0.802418  0.558178  3.610219
H    1.590333  0.815299  4.141307
Sr    2.834320  1.164987  -0.346617
