28
Energy: -103703.439669 eV PBE+vdW (tier 2 basis)
N    0.109001  0.775165  0.356195
C    -0.106392  0.367837  1.787057
C    1.275307  0.202033  2.418676
O    2.292857  0.722747  1.916838
H    0.094617  -0.077844  -0.218347
H    -0.725227  1.287146  0.048574
H    -0.527918  1.249920  2.304527
C    -1.103796  -0.810018  1.968976
C    -1.780936  -0.869706  3.355070
C    -3.045389  -1.739665  3.439244
N    -2.759781  -3.181707  3.453928
C    -3.708710  -4.140579  3.325723
N    -3.344996  -5.427218  3.343326
N    -4.991092  -3.812898  3.144123
H    -0.607232  -1.759763  1.718867
H    -1.887451  -0.657909  1.210282
H    -2.103871  0.143849  3.638029
H    -1.068141  -1.178964  4.132387
H    -3.703241  -1.529255  2.582920
H    -3.583969  -1.450760  4.356676
H    -1.920895  -3.470645  3.949843
H    -2.374857  -5.710095  3.271408
H    -5.680608  -4.520833  2.911374
H    -5.352620  -2.901420  3.397535
H    -4.031399  -6.169721  3.428626
O    1.304162  -0.475607  3.532733
H    2.206789  -0.490203  3.925850
Sr    2.449784  1.995111  -0.041440
