28
Energy: -103703.138598 eV PBE+vdW (tier 2 basis)
N    2.089279  0.243331  1.969157
C    1.793859  -1.084508  1.342490
C    0.755394  -0.857691  0.235290
O    0.512677  0.291896  -0.176305
H    1.460612  0.375419  2.770433
H    3.023347  0.193358  2.390533
H    2.705185  -1.367944  0.784186
C    1.516700  -2.259378  2.316277
C    0.222427  -2.232153  3.152247
C    0.161954  -3.465986  4.076414
N    -1.078065  -3.505080  4.853504
C    -1.629572  -4.622006  5.383844
N    -2.855995  -4.555658  5.909371
N    -0.973982  -5.786928  5.357405
H    2.392986  -2.324124  2.979826
H    1.562387  -3.194356  1.731039
H    -0.669097  -2.221715  2.506297
H    0.181136  -1.321538  3.773286
H    1.040522  -3.467978  4.743710
H    0.203042  -4.379742  3.465615
H    -1.446313  -2.624293  5.200189
H    -3.218193  -5.298795  6.498575
H    -1.447295  -6.651563  5.602024
H    0.036262  -5.831509  5.296787
H    -3.481289  -3.781608  5.715410
O    0.151821  -1.856653  -0.347212
H    0.411660  -2.735761  -0.004981
Sr    1.620553  2.278961  0.239588
