28
Energy: -103703.987508 eV PBE+vdW (tier 2 basis)
N    -0.432637  0.116661  0.045414
C    -0.024293  0.055244  1.513413
C    1.437596  0.551940  1.575495
O    1.915250  1.120372  0.530628
H    -1.418069  0.386762  -0.079881
H    -0.293815  -0.787437  -0.429546
H    -0.628459  0.823150  2.022805
C    -0.326499  -1.335036  2.110384
C    -0.538904  -1.341531  3.636638
C    -0.969529  -2.734716  4.130625
N    -1.249540  -2.717673  5.568374
C    -2.076658  -3.564824  6.218028
N    -2.408902  -3.309476  7.487542
N    -2.584614  -4.635095  5.596802
H    0.470356  -2.038803  1.824441
H    -1.252806  -1.696172  1.633996
H    -1.319120  -0.612640  3.904002
H    0.386845  -1.032943  4.143599
H    -0.186921  -3.476410  3.898091
H    -1.890455  -3.041913  3.613640
H    -0.668128  -2.125359  6.153547
H    -2.845032  -4.015981  8.070982
H    -2.271341  -2.395301  7.903140
H    -3.327219  -5.177781  6.026259
H    -2.130221  -5.051057  4.792985
O    2.102874  0.437658  2.644313
H    0.183197  0.809507  -0.425687
Sr    3.971044  1.662852  1.694970
