28
Energy: -103703.470416 eV PBE+vdW (tier 2 basis)
N    1.850799  2.276385  1.088822
C    0.806369  1.240339  0.787463
C    -0.502525  1.968176  0.469870
O    -0.535880  3.194273  0.233774
H    1.930351  2.352035  2.110829
H    2.761535  1.907234  0.797955
H    1.085318  0.770667  -0.173741
C    0.647448  0.124848  1.845951
C    1.822788  -0.867473  1.919408
C    1.495970  -2.040581  2.862238
N    2.585076  -3.019938  2.885143
C    2.801839  -3.925480  3.864914
N    3.920677  -4.656291  3.842416
N    1.927708  -4.071805  4.866446
H    -0.270999  -0.425356  1.598244
H    0.466124  0.589636  2.829654
H    2.744966  -0.377022  2.266796
H    2.023290  -1.263348  0.909964
H    0.555046  -2.517635  2.539145
H    1.352158  -1.666541  3.886407
H    3.083399  -3.182485  2.014900
H    4.025258  -5.479857  4.426015
H    2.161216  -4.634477  5.678459
H    0.956316  -3.802042  4.770725
H    4.708625  -4.410895  3.253982
O    -1.553335  1.202629  0.414400
H    -2.362187  1.697242  0.149324
Sr    1.220648  4.713760  0.141500
