28
Energy: -103702.714031 eV PBE+vdW (tier 2 basis)
N    0.110529  0.356511  0.312326
C    -0.082417  0.177746  1.789857
C    1.289696  -0.196875  2.378199
O    2.330580  0.015116  1.730215
H    -0.126274  -0.531004  -0.148875
H    -0.604189  1.009436  -0.025861
H    -0.294852  1.180082  2.203498
C    -1.255972  -0.774294  2.170372
C    -1.915471  -0.500943  3.541006
C    -2.957231  -1.553067  3.987110
N    -4.252185  -1.500258  3.299514
C    -5.434975  -1.175781  3.878827
N    -6.569435  -1.648268  3.356261
N    -5.478657  -0.380270  4.951437
H    -0.913259  -1.820053  2.106440
H    -2.023025  -0.652292  1.390944
H    -2.370485  0.501410  3.536697
H    -1.173815  -0.470307  4.359656
H    -3.139261  -1.439241  5.063125
H    -2.550142  -2.567391  3.861036
H    -4.333119  -2.018129  2.430081
H    -6.584045  -2.463457  2.752708
H    -6.331539  -0.282554  5.493594
H    -4.700899  0.207757  5.221750
H    -7.472032  -1.266460  3.622576
O    1.411848  -0.707246  3.571114
H    0.557818  -0.848605  4.028991
Sr    2.689807  0.906439  -0.361599
