24
Energy: -568939.269442 eV PBE+vdW (tier 2 basis)
C    -0.930475  -0.107225  -0.178792
C    -0.309833  -0.147645  1.179278
O    0.963188  0.011032  1.207801
H    -1.862993  -0.686872  -0.208828
H    -0.229892  -0.474660  -0.934614
H    -1.172859  0.943859  -0.407815
N    -1.105974  -0.336269  2.249097
C    -0.920037  0.152280  3.635318
C    -0.422661  -0.929397  4.622105
O    0.841213  -1.165640  4.770512
H    -2.087073  -0.456980  1.995654
H    -0.142377  0.936640  3.618953
C    -2.210650  0.876592  4.072376
O    -2.441423  1.838040  3.072459
H    -2.040790  1.314944  5.070251
H    -3.054413  0.157489  4.147541
H    -3.134421  2.460124  3.353057
N    -1.275285  -1.596883  5.364670
C    -0.914708  -2.624375  6.352908
H    -2.260459  -1.343813  5.298417
H    -0.006421  -3.141528  6.030842
H    -1.747186  -3.329779  6.432502
H    -0.739434  -2.154360  7.329829
Hg    1.944967  -0.440574  3.065480
