24
Energy: -568939.575928 eV PBE+vdW (tier 2 basis)
C    0.869311  -1.285940  1.925522
C    -0.040576  -0.093728  1.866194
O    0.445719  0.986570  2.324562
H    0.969982  -1.590630  2.977895
H    1.867305  -0.997579  1.573752
H    0.500223  -2.134286  1.337893
N    -1.262819  -0.280209  1.329528
C    -2.463726  0.578019  1.170044
C    -2.249073  1.822251  0.274575
O    -1.885369  2.965378  0.720094
H    -1.411159  -1.236667  1.016962
H    -3.156976  -0.064817  0.608148
C    -3.241541  0.861239  2.470738
O    -2.389479  1.446485  3.480782
H    -3.631069  -0.090889  2.859717
H    -4.088890  1.523218  2.235416
H    -2.906318  1.618173  4.290407
N    -2.532897  1.698146  -1.011033
C    -2.403697  2.773073  -2.000896
H    -2.938272  0.822039  -1.335199
H    -2.166732  2.323256  -2.970042
H    -1.610128  3.460004  -1.693547
H    -3.349361  3.326391  -2.079284
Hg    -0.662459  2.875499  2.563774
