24
Energy: -568939.571474 eV PBE+vdW (tier 2 basis)
C    0.072911  1.297642  0.521163
C    -0.048257  0.180241  1.506101
O    1.027834  -0.094031  2.155457
H    0.933491  1.120518  -0.135924
H    0.275203  2.227497  1.075705
H    -0.840648  1.430150  -0.069727
N    -1.231150  -0.434092  1.649220
C    -1.753167  -1.243067  2.772360
C    -1.566586  -2.768622  2.562792
O    -0.520790  -3.383602  3.028223
H    -1.965698  -0.148767  0.997162
H    -1.208427  -0.980813  3.694046
C    -3.217056  -0.829243  3.009052
O    -3.897637  -1.064459  1.776643
H    -3.241743  0.233758  3.295729
H    -3.631479  -1.423759  3.839559
H    -4.808236  -0.722960  1.817838
N    -2.501412  -3.450500  1.949527
C    -2.479672  -4.894128  1.696734
H    -3.331644  -2.905118  1.671274
H    -3.045358  -5.414487  2.481682
H    -1.448485  -5.257596  1.694595
H    -2.956737  -5.080658  0.729152
Hg    1.125332  -2.002747  3.150887
