24
Energy: -568938.723011 eV PBE+vdW (tier 2 basis)
C    0.699616  0.118244  0.302208
C    -0.162664  -0.767555  1.149974
O    0.044019  -1.964393  1.320362
H    1.210110  -0.483812  -0.455954
H    1.468967  0.564111  0.952916
H    0.130811  0.927048  -0.173358
N    -1.263508  -0.186935  1.789445
C    -2.025184  -0.958916  2.739049
C    -3.340834  -1.538947  2.170363
O    -4.169613  -2.188351  2.896177
H    -1.408803  0.817850  1.702213
H    -1.395341  -1.851176  2.943764
C    -2.242703  -0.193679  4.061054
O    -2.104863  -1.160047  5.146503
H    -3.219962  0.306534  4.111464
H    -1.445807  0.554439  4.183946
H    -2.010052  -0.688994  6.000298
N    -3.616959  -1.349549  0.898191
C    -4.784605  -1.874829  0.184932
H    -2.973287  -0.737006  0.394053
H    -4.508809  -2.014087  -0.865119
H    -5.618847  -1.162976  0.246922
H    -5.088230  -2.828114  0.627756
Hg    -3.719903  -2.964757  4.961004
