24
Energy: -568938.578756 eV PBE+vdW (tier 2 basis)
C    -0.425485  1.890871  0.262999
C    -0.280561  1.187714  1.579515
O    0.887051  0.795005  1.885589
H    -0.389998  1.140486  -0.541570
H    0.418666  2.573569  0.114765
H    -1.371026  2.443452  0.193182
N    -1.371722  1.026983  2.349059
C    -1.482002  0.223869  3.561197
C    -2.962642  -0.134408  3.877405
O    -3.350433  -0.063707  5.044676
H    -2.212013  1.509368  2.032884
H    -0.955937  -0.736896  3.400458
C    -0.890543  0.876325  4.824304
O    0.230153  0.100500  5.278347
H    -1.693632  0.777393  5.599712
H    -0.631669  1.933335  4.677749
H    0.631480  0.523280  6.066087
N    -3.763776  -0.529978  2.861113
C    -5.166383  -0.876970  3.061602
H    -3.336282  -0.807209  1.978314
H    -5.268389  -1.941777  3.328484
H    -5.713183  -0.695253  2.129935
H    -5.571580  -0.278855  3.885084
Hg    1.882905  -0.401100  3.548109
