24
Energy: -568939.233183 eV PBE+vdW (tier 2 basis)
C    0.697678  -1.536981  2.403130
C    0.053394  -0.211042  2.138437
O    0.705228  0.804288  2.562713
H    0.072504  -2.384792  2.102158
H    0.916014  -1.612186  3.478182
H    1.663240  -1.575166  1.879493
N    -1.124961  -0.199472  1.488629
C    -2.199738  0.812133  1.308221
C    -2.011949  1.760433  0.096372
O    -1.162614  2.727479  0.066251
H    -1.418132  -1.130599  1.200554
H    -3.090628  0.210832  1.083442
C    -2.588172  1.590647  2.582889
O    -3.751626  2.274900  2.238944
H    -1.782978  2.306681  2.915044
H    -2.705553  0.880702  3.419569
H    -4.218986  2.599701  3.029526
N    -2.801086  1.587809  -0.940763
C    -2.793710  2.423665  -2.149254
H    -3.527226  0.876934  -0.872398
H    -3.417108  3.313342  -1.989408
H    -3.202467  1.835148  -2.975490
H    -1.769519  2.732474  -2.378030
Hg    0.224392  2.761066  1.740789
