24
Energy: -568939.088978 eV PBE+vdW (tier 2 basis)
C    0.178966  -0.638402  -0.007860
C    0.098033  -0.053265  1.363797
O    1.224835  0.183113  1.927139
H    1.126696  -0.374273  -0.485595
H    -0.662611  -0.310419  -0.634011
H    0.122815  -1.734999  0.090961
N    -1.122681  0.190659  1.887423
C    -1.644941  0.099066  3.284651
C    -1.768071  1.441535  4.033710
O    -0.750609  2.124338  4.452437
H    -1.860127  0.013107  1.208313
H    -2.663885  -0.276562  3.137984
C    -0.938781  -0.978765  4.144712
O    -0.796215  -2.101781  3.325846
H    -1.563422  -1.151572  5.038273
H    0.050788  -0.631994  4.536311
H    -0.599929  -2.892037  3.859114
N    -2.958456  1.914784  4.339119
C    -4.292208  1.348118  4.074883
H    -2.936940  2.786050  4.876270
H    -4.494186  0.496031  4.735901
H    -4.397488  1.057251  3.024008
H    -5.026459  2.131631  4.283632
Hg    1.119877  1.405388  3.682979
