24
Energy: -568939.283769 eV PBE+vdW (tier 2 basis)
C    -0.121575  -0.464803  -0.042181
C    -0.068946  -0.000627  1.375112
O    0.770127  0.936771  1.626159
H    0.882146  -0.765533  -0.370242
H    -0.418325  0.388486  -0.673078
H    -0.837743  -1.280393  -0.193234
N    -0.880289  -0.576854  2.284752
C    -1.442563  -0.026900  3.538587
C    -0.762456  -0.584317  4.817286
O    0.516191  -0.449093  5.015208
H    -1.400627  -1.375847  1.921436
H    -1.268250  1.064718  3.559685
C    -2.975464  -0.244353  3.437408
O    -3.552783  0.127893  4.672193
H    -3.175221  -1.307994  3.198175
H    -3.342984  0.368112  2.599842
H    -4.506763  0.288115  4.568814
N    -1.477315  -1.185206  5.732753
C    -0.966743  -1.715573  7.000205
H    -2.495927  -1.169365  5.587204
H    -0.823675  -2.801026  6.911266
H    -1.710003  -1.516173  7.778905
H    -0.012309  -1.243565  7.248563
Hg    1.437432  0.955635  3.684039
