24
Energy: -568938.786995 eV PBE+vdW (tier 2 basis)
C    0.669852  -0.645806  0.631144
C    0.015229  -0.619753  1.974986
O    0.416548  -1.273297  2.944894
H    1.072112  -1.645015  0.433163
H    1.519945  0.054603  0.663719
H    -0.005085  -0.338407  -0.176137
N    -1.092876  0.187990  2.152488
C    -1.701759  0.366526  3.455927
C    -2.496242  -0.891513  3.917791
O    -3.743922  -1.041135  3.730383
H    -1.567877  0.545804  1.324699
H    -0.889962  0.503041  4.191674
C    -2.563526  1.632122  3.392961
O    -3.201172  1.786304  4.685702
H    -3.324612  1.557640  2.600285
H    -1.926054  2.500679  3.181129
H    -3.270571  2.732510  4.919633
N    -1.770631  -1.869223  4.461111
C    -2.276549  -3.180625  4.821152
H    -0.750760  -1.736182  4.443948
H    -2.032142  -3.911161  4.031803
H    -3.364021  -3.144651  4.936509
H    -1.775603  -3.504370  5.742485
Hg    -5.264154  0.389739  4.712539
