24
Energy: -568938.582939 eV PBE+vdW (tier 2 basis)
C    0.645651  0.024621  0.151140
C    0.376282  0.302662  1.593444
O    1.299333  0.634882  2.395280
H    1.316872  0.797091  -0.245108
H    -0.258755  -0.032862  -0.464728
H    1.181057  -0.934691  0.067236
N    -0.912873  0.205211  2.025089
C    -1.485072  0.338073  3.337290
C    -2.263633  1.771298  3.473799
O    -3.358034  1.733332  3.996387
H    -1.590702  -0.039261  1.299968
H    -2.306203  -0.386336  3.403568
C    -0.567221  0.224826  4.558282
O    0.107674  -1.056412  4.503958
H    -1.186696  0.290388  5.461949
H    0.176947  1.026821  4.585569
H    -0.094781  -1.584097  5.301537
N    -1.620972  2.852652  3.007654
C    -2.131109  4.208805  3.230761
H    -0.669478  2.751785  2.663680
H    -1.743457  4.853099  2.433673
H    -1.801432  4.605621  4.201924
H    -3.226674  4.180378  3.213380
Hg    2.484874  -0.906380  3.684615
