24
Energy: -568939.081572 eV PBE+vdW (tier 2 basis)
C    1.002776  0.924634  0.090993
C    0.336447  -0.092098  0.962536
O    1.095966  -0.668288  1.814823
H    1.302928  1.777267  0.719869
H    0.342529  1.286800  -0.706026
H    1.918653  0.499940  -0.338059
N    -0.981922  -0.315500  0.799744
C    -1.917123  -0.969027  1.721300
C    -2.074422  -2.501649  1.494548
O    -1.449941  -3.315555  2.288035
H    -1.409679  0.223211  0.047513
H    -1.507765  -0.897138  2.743119
C    -3.253132  -0.191671  1.782439
O    -4.138142  -1.029986  2.483883
H    -3.615622  0.042845  0.764024
H    -3.062110  0.765502  2.293935
H    -4.823404  -0.508504  2.935020
N    -2.822982  -3.053221  0.564650
C    -3.773492  -2.455882  -0.380696
H    -2.802488  -4.077023  0.583695
H    -3.357062  -1.555316  -0.840945
H    -4.721473  -2.230743  0.123885
H    -3.953559  -3.192595  -1.169479
Hg    0.432021  -2.437003  2.913196
