24
Energy: -568938.398674 eV PBE+vdW (tier 2 basis)
C    -0.091194  0.524066  0.171079
C    -0.196127  -0.043085  1.552572
O    0.893106  -0.380994  2.121039
H    -1.070824  0.620170  -0.312207
H    0.551836  -0.129546  -0.433831
H    0.401269  1.505953  0.219436
N    -1.415842  -0.191140  2.103950
C    -1.695372  -0.845632  3.367521
C    -2.839864  -1.947090  3.322505
O    -2.578384  -2.938085  4.000066
H    -2.187675  0.202311  1.569223
H    -0.823519  -1.470879  3.594952
C    -1.960296  0.086627  4.551005
O    -0.798191  0.953354  4.683968
H    -2.109058  -0.525240  5.452510
H    -2.841421  0.732368  4.407372
H    -0.945643  1.593778  5.408946
N    -3.982887  -1.778025  2.644609
C    -4.497280  -0.611092  1.931541
H    -4.600694  -2.590144  2.698731
H    -4.190491  -0.613980  0.874631
H    -4.209806  0.327580  2.422331
H    -5.591635  -0.652794  1.955452
Hg    1.435990  -0.025483  4.270604
