24
Energy: -568939.229995 eV PBE+vdW (tier 2 basis)
C    -0.344072  -0.051165  -0.163515
C    -0.058528  -0.120239  1.303222
O    1.113879  0.281137  1.644360
H    0.457075  -0.554535  -0.719173
H    -0.336311  1.006138  -0.470227
H    -1.316475  -0.489587  -0.415142
N    -1.015005  -0.579525  2.121320
C    -1.211440  -0.402252  3.569553
C    -0.602516  -1.547864  4.431750
O    0.583455  -1.372309  4.940383
H    -1.902575  -0.844783  1.674433
H    -0.661728  0.491236  3.908780
C    -2.711113  -0.047513  3.787747
O    -3.473690  -0.771173  2.835489
H    -2.816864  1.038351  3.642324
H    -2.997505  -0.281547  4.826221
H    -4.362939  -0.386529  2.749490
N    -1.193378  -2.677120  4.753144
C    -2.553140  -3.179251  4.531937
H    -0.600834  -3.279320  5.334394
H    -2.475069  -4.251413  4.317798
H    -3.036889  -2.665296  3.699015
H    -3.144086  -3.050724  5.449399
Hg    1.799859  -0.156706  3.638606
