24
Energy: -568938.717697 eV PBE+vdW (tier 2 basis)
C    -0.322133  1.350342  -0.280628
C    -0.890035  0.415027  0.743748
O    -0.540186  0.492400  1.942972
H    -0.309706  2.368936  0.124247
H    -0.877741  1.324858  -1.225677
H    0.722692  1.060070  -0.468191
N    -1.798848  -0.513501  0.345108
C    -2.256238  -1.684356  1.101348
C    -3.000188  -1.405103  2.419791
O    -3.967490  -2.174352  2.793825
H    -2.066669  -0.498026  -0.635713
H    -2.998356  -2.170266  0.453261
C    -1.104065  -2.704372  1.312894
O    -1.698015  -4.025638  1.447988
H    -0.483731  -2.455551  2.185002
H    -0.473244  -2.711425  0.411900
H    -0.987441  -4.690268  1.540027
N    -2.686444  -0.368475  3.166606
C    -3.232935  -0.044429  4.475147
H    -1.901607  0.224552  2.781357
H    -3.641990  -0.932533  4.963677
H    -4.032527  0.705409  4.359354
H    -2.434740  0.410916  5.074610
Hg    -3.715365  -4.362218  2.848348
