24
Energy: -568939.067924 eV PBE+vdW (tier 2 basis)
C    -0.160383  0.683486  -0.195123
C    -0.047177  0.388911  1.266415
O    1.103906  0.612558  1.781753
H    0.780195  0.453004  -0.705573
H    -0.356455  1.762394  -0.307999
H    -0.989185  0.130041  -0.655505
N    -1.133310  -0.066927  1.918220
C    -1.446537  0.047195  3.355910
C    -1.095068  -1.212024  4.184441
O    0.027422  -1.238968  4.833692
H    -1.950227  -0.179746  1.318416
H    -0.807469  0.845291  3.772642
C    -2.862176  0.632007  3.533068
O    -2.740186  1.946993  3.043929
H    -3.124675  0.588324  4.605452
H    -3.612941  0.047430  2.972294
H    -3.550656  2.453902  3.223902
N    -1.873800  -2.264217  4.321985
C    -3.235809  -2.522399  3.838188
H    -1.472235  -2.991687  4.921051
H    -3.373337  -3.608032  3.814638
H    -3.372443  -2.133763  2.824985
H    -3.980138  -2.089702  4.518739
Hg    1.517937  -0.043085  3.803948
