21
Energy: -246965.8999765  eV PBE+vdW (tier 2 basis)
N    0.213575  0.741479  0.839507
C    0.056251  -0.322384  1.884630
C    1.478842  -0.800052  2.261012
O    2.334372  0.129920  2.434978
H    0.345293  0.295456  -0.075205
H    -0.678847  1.238010  0.750522
H    -0.265417  0.208520  2.797315
C    -1.041894  -1.371330  1.615442
C    -0.850368  -2.387445  0.484218
S    0.226830  -3.816320  0.887206
C    -0.775198  -4.770218  2.060346
H    -1.967974  -0.808980  1.414941
H    -1.240469  -1.895743  2.561700
H    -0.404378  -1.951808  -0.422243
H    -1.819626  -2.798347  0.174929
H    -1.066150  -4.181234  2.935914
H    -0.141455  -5.606810  2.376917
H    -1.653544  -5.161227  1.535901
O    1.788646  -2.010672  2.434347
H    1.117652  -2.834192  1.896727
Ba    2.504066  2.315392  1.560008
