21
Energy: -246966.6635290  eV PBE+vdW (tier 2 basis)
N    0.550243  -0.345433  -0.102659
C    0.235713  0.063730  1.329885
C    1.589797  0.201045  2.036909
O    2.578905  -0.416818  1.510837
H    -0.120273  -1.022127  -0.489439
H    1.509747  -0.758406  -0.066933
H    -0.281677  1.029435  1.300356
C    -0.646923  -0.974405  2.046360
C    -0.040451  -2.358373  2.328653
S    1.077983  -2.575311  3.769999
C    -0.011435  -2.204511  5.175275
H    -1.562496  -1.115473  1.448706
H    -0.989868  -0.502432  2.976638
H    0.538409  -2.759434  1.484091
H    -0.856445  -3.073034  2.499860
H    -0.889942  -2.858688  5.132292
H    -0.311131  -1.151502  5.204820
H    0.552936  -2.453327  6.082030
O    1.633758  0.806676  3.139509
H    0.578344  0.465059  -0.735569
Ba    3.614986  -0.576806  3.893761
