21
Energy: -246966.4697842  eV PBE+vdW (tier 2 basis)
N    -1.190601  0.123542  0.572084
C    -1.618540  -0.396648  1.925518
C    -0.473180  -0.148910  2.918329
O    -0.579375  -0.615668  4.095645
H    -1.931927  0.659247  0.107529
H    -0.357992  0.722943  0.693016
H    -2.449463  0.232321  2.281112
C    -2.102693  -1.856680  1.868400
C    -1.119184  -2.860210  1.254671
S    -1.090970  -2.659991  -0.572690
C    0.455033  -3.486896  -1.030649
H    -3.062699  -1.891448  1.332027
H    -2.327379  -2.149873  2.902777
H    -1.435546  -3.883486  1.490861
H    -0.099019  -2.727689  1.647253
H    1.324672  -3.015211  -0.560341
H    0.534074  -3.399324  -2.120137
H    0.393907  -4.547706  -0.763840
O    0.524687  0.565563  2.556600
H    -0.947258  -0.736292  -0.067900
Ba    1.448449  0.553417  4.955735
