21
Energy: -246966.5717806  eV PBE+vdW (tier 2 basis)
N    0.011689  -0.384166  -0.077288
C    -0.051923  -0.094706  1.401082
C    1.363379  0.056582  1.965295
O    1.494853  0.500436  3.150601
H    0.107504  0.467213  -0.642533
H    -0.936913  -0.895159  -0.342869
H    -0.572122  0.865762  1.527972
C    -0.840316  -1.203497  2.127657
C    -2.328743  -1.270951  1.756926
S    -2.709481  -1.672818  0.007014
C    -2.419532  -3.465583  -0.044650
H    -0.760373  -0.996658  3.204578
H    -0.350637  -2.175839  1.958996
H    -2.821500  -0.304985  1.937194
H    -2.837317  -2.008758  2.390769
H    -1.393270  -3.737737  0.225844
H    -2.613753  -3.772786  -1.078575
H    -3.136529  -3.966117  0.615418
O    2.364210  -0.280937  1.246203
H    0.824382  -0.982269  -0.282493
Ba    3.984640  0.405794  3.114381
