21
Energy: -246965.2926794  eV PBE+vdW (tier 2 basis)
N    0.652859  0.154695  0.130373
C    0.316609  0.092744  1.586877
C    1.610154  0.125054  2.375752
O    2.684996  -0.259602  1.863875
H    -0.122130  -0.280307  -0.381711
H    0.625787  1.137010  -0.166525
H    -0.311043  0.953039  1.873797
C    -0.484653  -1.210386  1.902509
C    -1.145015  -1.256245  3.285285
S    -2.355074  -2.608472  3.410577
C    -1.296484  -4.012431  3.853293
H    0.164883  -2.088870  1.758386
H    -1.284504  -1.272881  1.146940
H    -1.727835  -0.338427  3.460055
H    -0.414520  -1.359448  4.101449
H    -0.776977  -3.830308  4.801686
H    -0.585617  -4.274630  3.060520
H    -1.981848  -4.857423  3.990053
O    1.634147  0.507202  3.627083
H    0.762371  0.803475  3.960443
Ba    3.242294  -0.846633  -0.422812
