21
Energy: -246965.6026157  eV PBE+vdW (tier 2 basis)
N    -0.159081  0.814899  0.818810
C    0.210411  -0.131274  1.911990
C    1.711549  -0.381867  1.860210
O    2.472533  0.441625  1.312054
H    -1.070386  1.208079  1.137420
H    -0.394762  0.263558  -0.015684
H    0.062718  0.434261  2.852762
C    -0.673206  -1.394823  2.010925
C    -2.179701  -1.087029  1.949230
S    -2.581464  0.411802  2.917760
C    -4.357435  0.566582  2.582969
H    -0.461261  -1.889621  2.973402
H    -0.422067  -2.107339  1.209582
H    -2.737628  -1.943528  2.348454
H    -2.507535  -0.943400  0.909329
H    -4.556627  0.679609  1.511700
H    -4.687404  1.466458  3.113782
H    -4.889107  -0.301229  2.988274
O    2.248623  -1.426665  2.431288
H    1.585887  -2.034598  2.819353
Ba    1.922016  2.543309  0.188368
