21
Energy: -246966.0066819  eV PBE+vdW (tier 2 basis)
N    0.415813  -0.432918  -0.210418
C    0.009160  -0.026539  1.200212
C    1.285703  0.391979  1.924204
O    2.417750  0.102981  1.392554
H    0.245318  0.306384  -0.903620
H    -0.090210  -1.275401  -0.517525
H    -0.672180  0.831339  1.124010
C    -0.689348  -1.200625  1.920195
C    -2.027807  -1.614102  1.283414
S    -2.780408  -3.042774  2.108726
C    -3.510949  -2.269908  3.577442
H    -0.857984  -0.871371  2.954119
H    -0.009904  -2.066416  1.967757
H    -1.906275  -1.951676  0.240038
H    -2.732790  -0.768712  1.266104
H    -4.241069  -1.502073  3.295795
H    -2.756793  -1.861653  4.260636
H    -4.038302  -3.080172  4.094812
O    1.191376  0.971787  3.049931
H    1.439033  -0.620142  -0.179688
Ba    3.652571  1.109674  3.430178
