21
Energy: -246964.8761643  eV PBE+vdW (tier 2 basis)
N    0.182678  0.587366  0.125310
C    -0.141910  -0.005638  1.389483
C    1.074225  -0.312807  2.271312
O    2.101213  -0.830912  1.989103
H    0.813555  1.385369  0.179536
H    0.556776  -0.080957  -0.548314
H    -0.782640  0.719235  1.947602
C    -0.962333  -1.292029  1.164664
C    -1.513585  -1.998557  2.398162
S    -2.696766  -1.065326  3.448646
C    -4.094217  -0.703698  2.341818
H    -0.321776  -2.019927  0.640443
H    -1.765738  -1.031020  0.462428
H    -0.728716  -2.318797  3.098857
H    -2.049413  -2.910611  2.102423
H    -4.475812  -1.657815  1.959901
H    -3.809682  -0.040915  1.519128
H    -4.872729  -0.236576  2.955650
O    0.871625  0.149956  3.659926
H    1.712714  -0.090782  4.106339
Ba    -1.220826  1.260967  4.742280
