21
Energy: -246965.5994875  eV PBE+vdW (tier 2 basis)
N    1.387758  -0.440483  0.299979
C    0.478112  -0.223867  1.464879
C    1.135378  -0.821302  2.696307
O    1.937601  -1.775130  2.625498
H    2.121088  0.277552  0.319552
H    0.857587  -0.233676  -0.553179
H    0.306091  0.846175  1.653652
C    -0.906971  -0.888354  1.229464
C    -0.887599  -2.393426  0.930453
S    -2.512078  -3.194502  0.815769
C    -3.222829  -2.430072  -0.666477
H    -1.384684  -0.344150  0.401661
H    -1.533605  -0.705785  2.112792
H    -0.413350  -2.952208  1.758036
H    -0.338913  -2.602287  -0.020711
H    -4.174268  -2.954569  -0.818237
H    -2.594094  -2.598769  -1.549874
H    -3.438389  -1.365231  -0.528168
O    0.747662  -0.282133  3.821228
H    1.152644  -0.726648  4.598518
Ba    2.466728  -3.007895  0.508443
