21
Energy: -246965.6231508  eV PBE+vdW (tier 2 basis)
N    -0.045554  0.748751  0.675668
C    0.069608  -0.199677  1.822395
C    1.529696  -0.489791  2.080936
O    2.423557  0.275059  1.649883
H    -0.905159  1.289600  0.845495
H    -0.244608  0.208468  -0.174643
H    -0.301851  0.376952  2.704182
C    -0.863872  -1.418451  1.741578
C    -2.348796  -1.000506  1.661336
S    -2.814392  0.401227  2.720958
C    -2.826269  -0.347297  4.376366
H    -0.732851  -2.033109  2.648291
H    -0.606477  -2.062283  0.885404
H    -2.988430  -1.863127  1.888411
H    -2.616033  -0.683424  0.643503
H    -3.555279  -1.165101  4.406583
H    -3.155861  0.444126  5.059044
H    -1.839136  -0.699872  4.696346
O    1.911149  -1.502416  2.818323
H    1.166478  -2.078212  3.085997
Ba    2.287660  2.272412  0.294857
