21
Energy: -246965.6645911  eV PBE+vdW (tier 2 basis)
N    0.667567  -0.438216  0.215940
C    0.308624  -0.454171  1.622110
C    1.182029  -1.489639  2.322909
O    0.828739  -2.680595  2.539073
H    0.589790  -1.330939  -0.267382
H    1.559031  0.007759  0.008538
H    0.564511  0.529056  2.043641
C    -1.187769  -0.724935  1.798400
C    -1.671130  -0.655004  3.259197
S    -2.742889  -2.094958  3.624843
C    -3.284944  -1.797713  5.334499
H    -1.430320  -1.702497  1.341846
H    -1.723683  0.006137  1.181816
H    -2.278483  0.240739  3.436686
H    -0.842464  -0.640011  3.981142
H    -3.881546  -0.878417  5.347435
H    -2.437388  -1.715200  6.022733
H    -3.929088  -2.637749  5.618234
O    2.391498  -1.064738  2.606192
H    2.971294  -1.787553  2.927173
Ba    -0.772863  -4.428762  3.138567
