21
Energy: -246965.6898035  eV PBE+vdW (tier 2 basis)
N    -0.499649  0.186587  0.024184
C    -0.532712  -0.105489  1.458287
C    0.831296  -0.675172  1.848885
O    1.855069  0.035918  1.558472
H    -1.280684  0.792660  -0.233590
H    0.351761  0.691853  -0.223373
H    -0.599868  0.806008  2.092835
C    -1.779397  -0.945163  1.801270
C    -2.014051  -2.161985  0.904155
S    -1.316550  -3.741536  1.512017
C    -2.334904  -4.162733  2.948910
H    -2.645261  -0.280457  1.662276
H    -1.788716  -1.199322  2.870280
H    -1.551562  -2.014803  -0.083533
H    -3.077456  -2.384000  0.747657
H    -3.306010  -4.486077  2.557325
H    -2.444747  -3.311916  3.627444
H    -1.846076  -5.006734  3.448852
O    0.989820  -1.786547  2.482237
H    -0.240908  -3.148363  2.150613
Ba    3.539925  -1.269171  2.724210
