21
Energy: -246965.9665067  eV PBE+vdW (tier 2 basis)
N    0.549966  0.500775  0.232531
C    0.420623  0.095925  1.695228
C    1.800961  -0.404489  2.144410
O    1.916555  -0.892407  3.309179
H    0.050870  1.372311  0.015853
H    0.176391  -0.244715  -0.374915
H    0.222874  1.017173  2.263460
C    -0.723452  -0.905564  1.914013
C    -0.595139  -2.201217  1.102437
S    -1.732416  -3.517110  1.627878
C    -3.311501  -2.941626  0.946449
H    -1.678057  -0.401761  1.704270
H    -0.732135  -1.143229  2.986071
H    0.404909  -2.644868  1.231980
H    -0.737794  -2.039581  0.017390
H    -3.664723  -2.019601  1.421674
H    -4.027919  -3.739872  1.174225
H    -3.255687  -2.829306  -0.143348
O    2.795503  -0.278883  1.347947
H    1.562004  0.604549  0.022353
Ba    4.378441  -1.258320  3.161813
