21
Energy: -246964.7501385  eV PBE+vdW (tier 2 basis)
N    -0.380626  0.295410  0.195696
C    -0.418773  0.014544  1.616536
C    0.947733  -0.488610  2.038636
O    1.996096  -0.266581  1.527949
H    -1.080859  0.988805  -0.066612
H    0.531813  0.641486  -0.103021
H    -0.558944  0.909453  2.266717
C    -1.582444  -0.949979  1.914771
C    -1.493880  -2.262563  1.120569
S    -2.470120  -3.547854  1.994351
C    -2.306553  -5.005752  0.917588
H    -2.525512  -0.439280  1.677059
H    -1.658887  -1.103206  3.013356
H    -0.454248  -2.604007  0.983659
H    -1.910839  -2.140481  0.114443
H    -1.259478  -5.275548  0.744371
H    -2.807017  -4.781597  -0.031303
H    -2.837338  -5.824705  1.416194
O    0.945329  -1.283265  3.274986
H    1.898313  -1.258715  3.512785
Ba    -0.477027  -3.286000  4.280656
