21
Energy: -246965.6873963  eV PBE+vdW (tier 2 basis)
N    1.154048  -0.061378  -0.036629
C    0.111781  -0.044464  0.944935
C    0.489842  0.429127  2.350300
O    -0.306481  1.077017  3.079123
H    1.859404  -0.782687  0.103010
H    1.602769  0.836737  -0.200666
H    -0.662365  0.671774  0.612863
C    -0.541309  -1.451271  1.018591
C    -1.705511  -1.661684  1.983665
S    -3.119064  -0.517773  1.656951
C    -4.561674  -1.512243  2.157153
H    0.236840  -2.184809  1.283434
H    -0.852757  -1.675793  -0.010405
H    -1.408787  -1.587356  3.038780
H    -2.113547  -2.669695  1.834145
H    -5.448323  -0.882479  2.020448
H    -4.486787  -1.847354  3.196674
H    -4.635237  -2.371361  1.480938
O    1.696323  0.119316  2.747810
H    1.883089  0.454256  3.650972
Ba    -2.576822  1.889627  3.511718
