21
Energy: -246965.3281415  eV PBE+vdW (tier 2 basis)
N    0.250342  -1.474982  0.089194
C    0.069814  -0.427921  1.156243
C    1.205457  0.629403  1.151070
O    1.455283  1.331133  2.092190
H    0.866750  -2.200416  0.475922
H    0.825454  -1.036519  -0.645702
H    -0.835363  0.158544  0.904462
C    -0.093892  -1.021387  2.559251
C    -1.485250  -1.501082  2.956335
S    -2.032900  -3.020307  2.069850
C    -3.600620  -3.418372  2.902548
H    0.170380  -0.218080  3.263451
H    0.655430  -1.812773  2.722052
H    -2.244059  -0.718714  2.818073
H    -1.482622  -1.786232  4.016900
H    -4.314210  -2.591723  2.827009
H    -3.377958  -3.642430  3.952047
H    -4.004094  -4.319766  2.427879
O    1.811103  0.675351  -0.060511
H    2.496596  1.375581  -0.043338
Ba    -2.053180  -2.465947  -0.908893
