21
Energy: -246966.3907339  eV PBE+vdW (tier 2 basis)
N    -0.602335  -1.538169  0.487301
C    0.142734  -0.757925  1.538416
C    1.577198  -1.260907  1.688095
O    2.016079  -2.160760  0.895063
H    -0.806041  -2.501273  0.779707
H    -0.084177  -1.585991  -0.398423
H    0.204850  0.265918  1.135072
C    -0.648074  -0.718624  2.864717
C    -2.176407  -0.583235  2.708546
S    -2.636044  0.513911  1.310864
C    -4.418400  0.197739  1.189212
H    -0.243592  0.122514  3.440356
H    -0.442140  -1.626139  3.451224
H    -2.598782  -0.183287  3.638231
H    -2.643259  -1.564845  2.538890
H    -4.915151  0.550895  2.099169
H    -4.629096  -0.863017  1.015607
H    -4.771009  0.787922  0.336033
O    2.301783  -0.737641  2.594061
H    -1.525516  -0.971972  0.368238
Ba    4.343379  -2.020114  1.958621
