21
Energy: -246965.6292006  eV PBE+vdW (tier 2 basis)
N    0.332548  -0.250363  -0.554972
C    0.246704  0.134569  0.852001
C    1.720152  0.297364  1.241650
O    2.232429  1.461291  1.187858
H    0.373920  -1.253459  -0.719963
H    -0.407359  0.154694  -1.124243
H    -0.146261  1.158765  0.879501
C    -0.663495  -0.697034  1.794260
C    -0.660485  -2.218230  1.673844
S    0.810393  -3.115702  2.306590
C    0.750102  -2.857937  4.098521
H    -1.697091  -0.395631  1.562412
H    -0.503884  -0.381383  2.836441
H    -0.749075  -2.564838  0.634057
H    -1.505396  -2.661826  2.217511
H    1.677183  -3.277253  4.505640
H    -0.102362  -3.433507  4.476028
H    0.655804  -1.798535  4.352650
O    2.493314  -0.719544  1.475459
H    1.732746  -2.098941  1.948863
Ba    4.513745  0.782262  0.740824
