21
Energy: -246966.0007497  eV PBE+vdW (tier 2 basis)
N    0.209877  -0.737912  -0.261964
C    -0.070546  -0.213963  1.077257
C    1.045705  0.714338  1.560583
O    1.100181  1.038363  2.797772
H    0.886878  -0.136372  -0.737150
H    -0.633306  -0.753043  -0.836056
H    -0.954898  0.453507  1.085036
C    -0.380575  -1.365138  2.051134
C    0.592399  -2.537137  1.974818
S    0.487545  -3.446058  0.370322
C    1.100639  -5.096617  0.827278
H    -1.401284  -1.726224  1.861825
H    -0.373168  -0.991653  3.084794
H    0.324695  -3.301555  2.716184
H    1.642680  -2.261995  2.130077
H    2.030504  -5.034362  1.401109
H    1.253159  -5.645581  -0.109750
H    0.307347  -5.582812  1.406457
O    1.855667  1.224474  0.709538
H    1.590142  -2.979055  -0.257597
Ba    2.691586  2.895989  2.379165
