21
Energy: -246966.2338723  eV PBE+vdW (tier 2 basis)
N    1.032201  -0.458382  0.791058
C    0.071695  0.092506  1.782029
C    0.831028  1.018650  2.734448
O    2.063169  0.992358  2.838023
H    1.160927  0.234791  0.045881
H    0.593213  -1.253738  0.317675
H    -0.688740  0.715663  1.279828
C    -0.710584  -1.017064  2.546079
C    -0.015367  -2.349891  2.844768
S    1.533488  -2.389844  3.815826
C    1.102274  -1.588055  5.387537
H    -1.595910  -1.266448  1.941800
H    -1.110402  -0.591809  3.477384
H    0.239143  -2.902170  1.928915
H    -0.728175  -2.991260  3.381731
H    1.962549  -1.731414  6.051566
H    0.241344  -2.110334  5.820652
H    0.897753  -0.518206  5.278768
O    0.161338  1.864369  3.487882
H    -0.798509  1.887518  3.301250
Ba    3.585000  -0.831094  2.055509
