21
Energy: -246965.6275555  eV PBE+vdW (tier 2 basis)
N    -0.168673  0.618678  0.525103
C    0.073719  0.187382  1.901497
C    1.594563  -0.039163  1.928762
O    2.078346  -1.071377  1.344773
H    -0.938254  1.279444  0.443677
H    -0.332972  -0.165139  -0.105629
H    -0.121085  1.051954  2.553460
C    -0.739758  -1.047804  2.336768
C    -0.579715  -1.486843  3.791035
S    -1.443262  -0.513472  5.091791
C    -3.208086  -0.662958  4.719466
H    -0.417066  -1.907103  1.727288
H    -1.797400  -0.884061  2.085149
H    0.464894  -1.481364  4.135717
H    -0.965987  -2.501732  3.965735
H    -3.424350  -0.431595  3.673182
H    -3.723643  0.031528  5.394003
H    -3.487332  -1.692604  4.971629
O    2.354998  0.874262  2.398882
H    -1.231063  0.742824  4.612319
Ba    4.200920  0.156354  0.913226
