21
Energy: -246965.9826825  eV PBE+vdW (tier 2 basis)
N    0.068597  1.057457  1.576546
C    -0.296861  0.085160  2.690110
C    0.944434  -0.081523  3.562091
O    0.827287  -0.667562  4.682626
H    -0.357489  0.776391  0.682224
H    -0.228792  2.021043  1.776501
H    -1.105631  0.536455  3.280716
C    -0.761665  -1.265745  2.104162
C    -2.088261  -1.179667  1.329869
S    -2.687851  -2.803258  0.789265
C    -1.736408  -3.059105  -0.732840
H    -0.890929  -1.949855  2.952849
H    0.038336  -1.687293  1.474243
H    -2.029752  -0.519310  0.446240
H    -2.877403  -0.776035  1.981125
H    -2.089126  -4.015322  -1.137186
H    -0.658432  -3.144743  -0.549930
H    -1.949529  -2.274084  -1.468875
O    2.072860  0.336130  3.117986
H    1.105836  1.049919  1.501538
Ba    3.245915  -0.554048  5.255711
