21
Energy: -246966.3443791  eV PBE+vdW (tier 2 basis)
N    0.063539  -2.042706  -0.031820
C    -0.277698  -0.949871  0.960314
C    0.688750  -1.232460  2.147583
O    0.776342  -0.285071  3.026702
H    -0.754721  -2.541629  -0.400490
H    0.623123  -1.709423  -0.825457
H    -0.029820  0.018573  0.509137
C    -1.778160  -1.015565  1.314906
C    -2.230947  -0.281918  2.582292
S    -1.797159  1.510486  2.628511
C    -3.379494  2.304759  3.047620
H    -2.058919  -2.071997  1.464170
H    -2.350915  -0.643866  0.452988
H    -1.841281  -0.774915  3.480759
H    -3.325410  -0.329381  2.637785
H    -4.095140  2.126952  2.237825
H    -3.178074  3.380436  3.109726
H    -3.772130  1.942351  4.002799
O    1.280689  -2.307006  2.157017
H    0.665490  -2.688222  0.570772
Ba    0.669930  1.427473  4.586860
