21
Energy: -246965.3048054  eV PBE+vdW (tier 2 basis)
N    0.003914  0.897860  0.513072
C    0.031250  0.088620  1.773338
C    1.473819  -0.034770  2.242355
O    2.399907  0.585291  1.672369
H    -0.096903  0.239795  -0.269456
H    -0.874902  1.424670  0.498621
H    -0.491491  0.674781  2.551212
C    -0.682477  -1.283539  1.651057
C    -2.193884  -1.167638  1.386110
S    -3.058611  -2.749554  1.573266
C    -2.747605  -3.541608  -0.027465
H    -0.562310  -1.848172  2.589595
H    -0.186679  -1.884204  0.871263
H    -2.411673  -0.750817  0.390688
H    -2.654883  -0.501053  2.131505
H    -3.299266  -4.488521  0.007061
H    -1.687119  -3.770601  -0.185365
H    -3.147970  -2.937048  -0.850476
O    1.788843  -0.773676  3.274303
H    1.025586  -1.255143  3.654421
Ba    2.399472  2.347921  0.024742
