21
Energy: -246965.5961325  eV PBE+vdW (tier 2 basis)
N    0.124733  0.504101  0.359601
C    0.317892  -0.526128  1.357960
C    1.619924  -1.270592  1.076310
O    2.480246  -0.741347  0.292486
H    0.995656  0.976848  0.123539
H    -0.552122  1.204766  0.658394
H    0.464541  -0.139062  2.397114
C    -0.931461  -1.453136  1.369267
C    -1.445707  -1.912555  2.731622
S    -0.561934  -3.369592  3.413961
C    -1.154931  -3.465411  5.122363
H    -0.804405  -2.301477  0.682938
H    -1.749004  -0.859119  0.936278
H    -2.478082  -2.281037  2.652271
H    -1.411712  -1.119945  3.491113
H    -2.200480  -3.790793  5.069571
H    -1.064772  -2.498355  5.626143
H    -0.558925  -4.236202  5.624644
O    1.862248  -2.405556  1.634048
H    0.661270  -2.801942  3.596037
Ba    4.039998  -2.606104  0.276605
