21
Energy: -246965.5993632  eV PBE+vdW (tier 2 basis)
N    -0.620865  0.710549  0.564211
C    0.089321  0.052199  1.633569
C    1.558934  0.467744  1.573127
O    2.043474  0.927581  0.489646
H    -1.630811  0.609818  0.648331
H    -0.329941  0.404470  -0.363324
H    -0.296873  0.460477  2.583294
C    -0.044273  -1.516687  1.709556
C    -0.260045  -2.100821  3.107622
S    1.291497  -2.205117  4.086329
C    0.754068  -2.052370  5.809056
H    0.777715  -2.025575  1.183523
H    -0.951828  -1.771136  1.143281
H    -0.614450  -3.138386  3.058616
H    -0.977193  -1.509282  3.692788
H    0.134081  -1.162156  5.950267
H    1.661472  -2.010099  6.422385
H    0.198195  -2.966508  6.047268
O    2.312337  0.372136  2.621597
H    1.738105  -0.916577  3.809243
Ba    4.094518  1.837796  1.424242
