21
Energy: -246966.3643747  eV PBE+vdW (tier 2 basis)
N    0.531885  0.500049  0.125622
C    -0.021904  0.122536  1.454658
C    1.132394  -0.325869  2.351174
O    2.179326  -0.776898  1.868052
H    0.826661  1.481819  0.163399
H    -0.233164  0.488798  -0.556147
H    -0.524250  0.985785  1.921855
C    -1.076689  -1.011607  1.352017
C    -0.600750  -2.432415  1.039067
S    0.069592  -2.644475  -0.659702
C    0.143604  -4.456163  -0.798120
H    -1.836824  -0.690944  0.623370
H    -1.604918  -1.062841  2.315954
H    -1.472490  -3.098498  1.089874
H    0.133843  -2.798347  1.769753
H    0.773703  -4.895769  -0.018038
H    0.553092  -4.682207  -1.789192
H    -0.876371  -4.852487  -0.740094
O    1.004068  -0.300305  3.657934
H    0.172956  0.113661  3.965180
Ba    2.780415  -1.116572  -0.547597
