21
Energy: -246965.6373510  eV PBE+vdW (tier 2 basis)
N    0.776233  -0.246690  0.111135
C    0.361860  -0.064184  1.507033
C    1.666316  -0.352239  2.265059
O    2.077275  -1.562180  2.346829
H    0.650311  -1.209480  -0.201328
H    0.278418  0.370746  -0.527654
H    0.143685  1.004692  1.644453
C    -0.822782  -0.950045  1.936074
C    -1.379274  -0.731882  3.345980
S    -2.432382  0.776686  3.456957
C    -3.015026  0.790416  5.172433
H    -0.499197  -2.002452  1.901183
H    -1.627681  -0.851184  1.192763
H    -0.614025  -0.668442  4.130500
H    -2.085889  -1.530671  3.612508
H    -3.758865  -0.010929  5.250040
H    -3.502496  1.760443  5.328149
H    -2.186689  0.640836  5.871178
O    2.406195  0.624641  2.627946
H    -1.459322  1.721367  3.565919
Ba    4.415747  -0.741378  2.153942
