21
Energy: -246964.0890392  eV PBE+vdW (tier 2 basis)
N    -0.222041  -0.408148  0.097224
C    0.070195  -0.202799  1.517742
C    1.545881  -0.335766  1.963571
O    1.872131  -0.534608  3.111258
H    0.318736  -1.198386  -0.261973
H    0.079154  0.396625  -0.453051
H    -0.186735  0.843633  1.760000
C    -0.788642  -1.133904  2.386126
C    -2.215511  -0.675921  2.648553
S    -3.226079  -0.302773  1.132605
C    -3.210830  -1.832499  0.151970
H    -0.319404  -1.212347  3.381186
H    -0.779319  -2.149018  1.962605
H    -2.233114  0.278770  3.194522
H    -2.771489  -1.426286  3.223751
H    -3.436325  -2.702507  0.777468
H    -2.207895  -1.889794  -0.287993
H    -3.948013  -1.737396  -0.655542
O    2.396628  -0.171168  0.931706
H    3.308390  -0.229893  1.284127
Ba    -5.999297  0.621648  1.419638
