21
Energy: -246965.6848894  eV PBE+vdW (tier 2 basis)
N    0.028677  0.673605  0.111165
C    -0.716174  0.734919  1.404177
C    0.200187  1.302251  2.484546
O    1.434916  1.339328  2.323663
H    -0.340297  1.405069  -0.505728
H    -0.266844  -0.226441  -0.357421
H    -1.584090  1.408824  1.304878
C    -1.235832  -0.656996  1.852798
C    -2.254686  -1.284169  0.888179
S    -1.575221  -1.919675  -0.687442
C    -0.927243  -3.536739  -0.173302
H    -1.715609  -0.545179  2.837760
H    -0.384250  -1.337821  2.010256
H    -3.030820  -0.558413  0.606172
H    -2.770385  -2.112737  1.390952
H    -0.167995  -3.460636  0.613674
H    -0.478349  -3.983874  -1.067583
H    -1.754870  -4.173430  0.159387
O    -0.280376  1.732148  3.624075
H    -1.256695  1.699812  3.679258
Ba    2.766540  0.918050  0.314796
