21
Energy: -246964.8872881  eV PBE+vdW (tier 2 basis)
N    -0.283318  0.040869  0.087580
C    -0.043161  -0.073026  1.491317
C    1.402593  -0.368586  1.905617
O    2.313783  -0.798527  1.288226
H    0.195922  0.824116  -0.353180
H    -0.069455  -0.811179  -0.431313
H    -0.277047  0.914909  1.941223
C    -0.984615  -1.146976  2.106127
C    -2.433663  -0.688485  2.227911
S    -2.579468  0.716885  3.404230
C    -4.327280  0.702992  3.901306
H    -0.612900  -1.512362  3.080867
H    -0.954074  -2.031490  1.451631
H    -3.066899  -1.499507  2.607794
H    -2.823901  -0.344173  1.262073
H    -4.582847  -0.240495  4.393237
H    -4.934642  0.859488  3.002944
H    -4.474584  1.547218  4.583650
O    1.611385  -0.013475  3.336283
H    2.558930  -0.221971  3.483755
Ba    -0.088784  0.814303  5.133461
