21
Energy: -246965.6963603  eV PBE+vdW (tier 2 basis)
N    0.909655  -0.226770  0.211237
C    0.180435  0.017063  1.499526
C    1.391366  -0.011630  2.441809
O    2.123157  1.023763  2.468904
H    0.735510  0.533334  -0.447805
H    0.578134  -1.084180  -0.234663
H    -0.235222  1.032611  1.497242
C    -0.926419  -1.011875  1.751852
C    -1.575667  -0.931864  3.139215
S    -0.754353  -1.897544  4.475401
C    -1.167818  -3.618050  4.093507
H    -0.550366  -2.028723  1.559677
H    -1.721829  -0.838465  1.011772
H    -2.605716  -1.311769  3.135007
H    -1.616151  0.093137  3.534034
H    -2.227057  -3.750510  4.340800
H    -0.557923  -4.237896  4.761389
H    -0.968727  -3.858886  3.045284
O    1.826376  -1.145628  2.860334
H    0.520769  -1.835707  3.920550
Ba    3.885068  -0.306155  1.409278
