21
Energy: -246965.6601580  eV PBE+vdW (tier 2 basis)
N    -0.027407  0.792559  0.641982
C    -0.332307  0.452910  2.019713
C    0.957090  -0.005675  2.693822
O    1.305516  -1.212422  2.804218
H    0.408081  0.053075  0.094170
H    0.471772  1.671662  0.520395
H    -0.655226  1.374168  2.526711
C    -1.445476  -0.597896  2.089380
C    -1.892103  -0.940548  3.523190
S    -1.941503  -2.716198  3.960191
C    -3.272647  -3.368194  2.905465
H    -1.119360  -1.503163  1.548520
H    -2.286054  -0.203209  1.505847
H    -2.893639  -0.548691  3.742396
H    -1.228979  -0.507992  4.287192
H    -3.074577  -3.209628  1.840365
H    -4.207450  -2.877414  3.199843
H    -3.355456  -4.439432  3.121475
O    1.737508  0.977626  3.077038
H    2.612653  0.657990  3.383231
Ba    0.921255  -3.597174  3.185735
