21
Energy: -246965.6040427  eV PBE+vdW (tier 2 basis)
N    0.323925  1.030908  1.277979
C    0.283277  0.035742  2.393043
C    1.725221  -0.396480  2.677889
O    2.672231  0.356174  2.375801
H    -0.631279  1.462029  1.273859
H    0.318334  0.492491  0.400421
H    -0.006123  0.595974  3.303045
C    -0.750274  -1.091507  2.191062
C    -2.205675  -0.649227  2.399514
S    -2.729274  0.630911  1.198258
C    -4.312600  1.144733  1.915495
H    -0.579499  -1.903782  2.919125
H    -0.614184  -1.543210  1.195154
H    -2.341943  -0.259576  3.419171
H    -2.859182  -1.523919  2.284244
H    -5.005583  0.296239  1.931639
H    -4.711042  1.916212  1.247217
H    -4.181034  1.561259  2.919975
O    2.003643  -1.515947  3.288470
H    1.209227  -2.061196  3.464979
Ba    2.635574  2.530281  1.234440
