21
Energy: -246965.6315132  eV PBE+vdW (tier 2 basis)
N    -0.263602  0.815469  0.010447
C    0.160324  0.224786  1.316580
C    1.691005  0.225320  1.348505
O    2.319897  1.085792  0.701171
H    -0.196982  0.063304  -0.688607
H    -1.307663  0.930639  0.121377
H    -0.110277  0.964628  2.096327
C    -0.564769  -1.089462  1.660056
C    -2.006343  -0.871148  2.159590
S    -3.130397  0.088467  1.085317
C    -3.595930  -1.149818  -0.160442
H    -0.043080  -1.625290  2.473879
H    -0.539690  -1.764025  0.790238
H    -1.992637  -0.315898  3.108729
H    -2.475073  -1.841560  2.368516
H    -2.739610  -1.518534  -0.737424
H    -4.297869  -0.650932  -0.838341
H    -4.111881  -1.985406  0.325888
O    2.371010  -0.613053  2.081582
H    1.800325  -1.268586  2.534457
Ba    1.434650  2.820769  -0.804722
