21
Energy: -246966.4137083  eV PBE+vdW (tier 2 basis)
N    -0.346949  -2.285832  0.321001
C    -0.192797  -1.026930  1.099943
C    1.226411  -0.505284  0.909061
O    2.149313  -1.176233  0.420226
H    -0.559311  -2.038243  -0.651727
H    -1.193644  -2.763654  0.643765
H    -0.846314  -0.233175  0.703088
C    -0.578720  -1.185084  2.597448
C    -0.290289  -2.516261  3.297467
S    1.415679  -3.173462  3.343833
C    2.365635  -1.888360  4.205969
H    -1.665997  -1.031442  2.671254
H    -0.134215  -0.350812  3.155421
H    -0.874223  -3.347836  2.877105
H    -0.614583  -2.434657  4.344329
H    1.913505  -1.725529  5.191124
H    3.375556  -2.289479  4.348242
H    2.414822  -0.950213  3.644440
O    1.369204  0.740852  1.300031
H    2.282323  1.062155  1.136366
Ba    2.107163  -3.707429  0.349385
