21
Energy: -246965.3153708  eV PBE+vdW (tier 2 basis)
N    0.415401  -0.022953  0.162455
C    0.092649  -0.048748  1.622196
C    1.373403  -0.241994  2.405536
O    2.392739  -0.734721  1.869101
H    0.476692  0.956034  -0.138214
H    -0.405365  -0.380195  -0.338629
H    -0.379314  0.901149  1.926585
C    -0.891143  -1.205538  1.970864
C    -2.308494  -0.992702  1.404045
S    -3.487540  -2.223554  2.016069
C    -3.182633  -3.624540  0.907948
H    -0.967885  -1.287539  3.063609
H    -0.465162  -2.160819  1.622454
H    -2.332537  -0.993078  0.302041
H    -2.702037  -0.020984  1.736666
H    -3.358169  -3.346393  -0.138663
H    -3.921090  -4.383772  1.191983
H    -2.183969  -4.058096  1.041543
O    1.438733  0.042265  3.682521
H    0.621640  0.443313  4.041494
Ba    2.908324  -1.266945  -0.424980
