21
Energy: -246965.6163624  eV PBE+vdW (tier 2 basis)
N    0.525555  -0.008031  -0.083250
C    -0.215035  -0.154160  1.152047
C    0.760723  -0.129635  2.324887
O    1.939726  0.319214  2.137993
H    1.267680  0.685762  -0.010118
H    -0.081406  0.250729  -0.859899
H    -0.902241  0.697583  1.383311
C    -1.085634  -1.440938  1.050433
C    -2.459218  -1.404494  1.722884
S    -2.379327  -1.861785  3.499473
C    -3.707546  -0.911759  4.281910
H    -0.510788  -2.331467  1.342893
H    -1.282164  -1.579726  -0.021758
H    -3.134421  -2.148719  1.283561
H    -2.931089  -0.415172  1.655342
H    -3.627887  -1.081560  5.361724
H    -4.652271  -1.333159  3.919610
H    -3.629127  0.151555  4.037097
O    0.413664  -0.516477  3.510741
H    -1.252203  -1.087235  3.773487
Ba    2.838773  -0.065977  4.363048
