21
Energy: -246966.4881488  eV PBE+vdW (tier 2 basis)
N    1.631039  0.047127  1.105915
C    0.304969  -0.116143  1.770101
C    0.532346  -0.400904  3.247432
O    1.588844  -0.885840  3.684396
H    1.914227  1.029252  1.196435
H    1.494036  -0.082115  0.099368
H    -0.282358  0.811441  1.697376
C    -0.558312  -1.237747  1.134224
C    -0.257927  -2.696501  1.484174
S    1.339542  -3.441356  0.983109
C    1.257374  -3.452355  -0.832093
H    -0.552789  -1.083612  0.044605
H    -1.598147  -1.052856  1.443027
H    -1.031241  -3.336483  1.037396
H    -0.306855  -2.881870  2.567058
H    0.374550  -4.026904  -1.135714
H    2.151949  -3.978895  -1.184055
H    1.225413  -2.446517  -1.263716
O    -0.508513  -0.126042  3.995978
H    -0.342800  -0.350528  4.937818
Ba    3.548201  -1.651854  2.247223
