21
Energy: -246965.2941804  eV PBE+vdW (tier 2 basis)
N    -0.263954  1.228114  1.215438
C    0.073398  0.214703  2.265199
C    1.592194  0.069296  2.331526
O    2.346155  0.855347  1.719548
H    -1.118817  1.709813  1.510537
H    -0.558565  0.709227  0.378334
H    -0.216526  0.644214  3.241735
C    -0.663572  -1.129492  2.091150
C    -2.184622  -1.022715  2.233463
S    -2.849984  -2.715356  2.183364
C    -4.627484  -2.378839  2.097176
H    -0.313521  -1.842212  2.858697
H    -0.396990  -1.578370  1.120078
H    -2.628215  -0.438861  1.410497
H    -2.447226  -0.530870  3.184994
H    -4.973042  -1.838165  2.985625
H    -5.108838  -3.363363  2.073879
H    -4.889295  -1.837303  1.180497
O    2.148560  -0.856624  3.064436
H    1.500641  -1.459124  3.485348
Ba    1.922423  2.862759  0.436698
