21
Energy: -246965.3984264  eV PBE+vdW (tier 2 basis)
N    0.294459  0.287848  0.485601
C    0.047551  -0.107384  1.903694
C    1.373477  -0.467918  2.538270
O    2.306413  -0.927307  1.841262
H    0.520236  1.288399  0.453516
H    -0.598380  0.216948  -0.014611
H    -0.436195  0.708348  2.466672
C    -0.862502  -1.368789  1.954452
C    -2.325189  -1.104472  1.548450
S    -3.242632  -2.636112  1.247235
C    -3.598071  -3.207253  2.931201
H    -0.837392  -1.788673  2.969671
H    -0.432835  -2.143099  1.295038
H    -2.398866  -0.558216  0.594823
H    -2.833598  -0.490155  2.305758
H    -2.694079  -3.498593  3.478195
H    -4.225707  -4.097544  2.805759
H    -4.168419  -2.452569  3.485074
O    1.557582  -0.391485  3.833579
H    0.805336  0.008074  4.314567
Ba    2.453423  -1.214509  -0.565331
