21
Energy: -246966.5573487  eV PBE+vdW (tier 2 basis)
N    -0.472359  -0.474258  -0.061749
C    -0.281155  0.008882  1.356605
C    1.197921  0.378299  1.541978
O    1.947954  0.470375  0.509726
H    -1.381944  -0.200316  -0.448173
H    -0.403205  -1.571750  -0.033896
H    -0.832066  0.956228  1.466679
C    -0.831236  -1.004431  2.373943
C    -0.140285  -2.371485  2.404043
S    -0.209582  -3.350837  0.850447
C    -1.910105  -3.991370  0.880069
H    -1.910956  -1.119012  2.197090
H    -0.741734  -0.539594  3.366075
H    -0.565017  -2.985721  3.208522
H    0.932238  -2.272606  2.624093
H    -2.031594  -4.654228  1.743824
H    -2.027617  -4.577382  -0.038538
H    -2.661561  -3.194537  0.898693
O    1.620808  0.636188  2.712168
H    0.284589  -0.102527  -0.656594
Ba    3.888574  1.349431  1.932709
