21
Energy: -246966.0874163  eV PBE+vdW (tier 2 basis)
N    0.350032  -1.388855  0.767728
C    -0.681635  -0.373884  0.954713
C    -0.317336  0.776752  1.910378
O    0.790393  0.751404  2.547127
H    1.124928  -1.034205  0.205916
H    0.756176  -1.665359  1.664591
H    -0.874595  0.106345  -0.018882
C    -1.985442  -1.053794  1.413072
C    -2.493614  -2.110074  0.437684
S    -1.358190  -3.565436  0.290496
C    -0.742667  -3.579235  -1.414025
H    -2.780227  -0.301116  1.513305
H    -1.847627  -1.500658  2.410097
H    -2.647658  -1.719394  -0.576523
H    -3.439965  -2.537745  0.791017
H    -0.300512  -4.571080  -1.569007
H    0.026899  -2.806769  -1.472872
H    -1.559507  -3.403954  -2.120465
O    -1.140038  1.749958  2.041598
H    -2.340811  -4.490595  0.070849
Ba    0.368101  3.003833  3.555742
