21
Energy: -246965.5307985  eV PBE+vdW (tier 2 basis)
N    0.270251  -0.100514  -0.304182
C    -0.264247  -0.030157  1.057382
C    0.908650  -0.439066  1.954866
O    1.438645  0.437098  2.714410
H    0.183053  -1.008444  -0.756759
H    -0.158690  0.596292  -0.911168
H    -0.419506  1.034227  1.271142
C    -1.626480  -0.721723  1.348395
C    -1.683395  -2.214371  1.680264
S    -0.840558  -3.275892  0.438008
C    -0.984229  -4.941754  1.133406
H    -2.279191  -0.502459  0.491592
H    -2.091632  -0.227680  2.216099
H    -2.724371  -2.563965  1.684354
H    -1.227045  -2.456493  2.648292
H    -0.688294  -4.954536  2.186627
H    -0.344889  -5.594512  0.527935
H    -2.031133  -5.242060  1.010553
O    1.443386  -1.613514  1.861152
H    0.423772  -2.914836  0.875373
Ba    3.627144  -0.610930  2.828441
