21
Energy: -246965.8904243  eV PBE+vdW (tier 2 basis)
N    0.105868  -0.133973  -0.171739
C    -0.110027  0.042223  1.330237
C    1.248590  0.434760  1.917574
O    1.351300  0.630812  3.166420
H    -0.572588  0.394430  -0.734604
H    0.032218  -1.124434  -0.441919
H    -0.788321  0.900089  1.456882
C    -0.763800  -1.221733  1.931481
C    -1.421748  -1.007889  3.304185
S    -2.491096  -2.396842  3.775647
C    -1.283903  -3.608985  4.376989
H    -0.022607  -2.035015  1.976180
H    -1.555624  -1.543539  1.235606
H    -2.092734  -0.136846  3.267164
H    -0.679281  -0.815760  4.088922
H    -0.618390  -3.973739  3.585265
H    -1.878651  -4.456661  4.737239
H    -0.707565  -3.207611  5.219584
O    2.245582  0.573894  1.120949
H    1.072861  0.193227  -0.379720
Ba    3.754386  1.312195  3.092409
