21
Energy: -246966.4209140  eV PBE+vdW (tier 2 basis)
N    -1.302581  0.128442  0.454708
C    -1.559296  -0.358902  1.859032
C    -0.238631  -0.216774  2.636092
O    -0.098500  -0.853734  3.725067
H    -0.713732  0.973593  0.478705
H    -0.732185  -0.656229  -0.013395
H    -2.247992  0.356429  2.335110
C    -2.188291  -1.769217  1.888817
C    -1.817934  -2.708845  0.730999
S    -0.031378  -2.628456  0.324912
C    0.026418  -3.581433  -1.219069
H    -3.281809  -1.672271  1.905376
H    -1.903422  -2.211093  2.851862
H    -2.382258  -2.458738  -0.179917
H    -2.084924  -3.737776  1.000868
H    1.064760  -3.544556  -1.566187
H    -0.630023  -3.145438  -1.979722
H    -0.250052  -4.621720  -1.016973
O    0.649515  0.590076  2.193258
H    -2.166672  0.317628  -0.065756
Ba    2.163989  0.094015  4.187215
