21
Energy: -246965.9981602  eV PBE+vdW (tier 2 basis)
N    0.098998  0.007633  0.155908
C    0.033741  -0.165634  1.666044
C    1.472913  -0.246349  2.180660
O    1.673814  -0.159916  3.430154
H    0.076199  0.993727  -0.133874
H    -0.695076  -0.476273  -0.293378
H    -0.459677  0.721041  2.085535
C    -0.749350  -1.439852  2.023953
C    -2.214736  -1.417659  1.581321
S    -2.965207  -2.983867  2.123234
C    -4.642557  -2.792397  1.465758
H    -0.702627  -1.540862  3.117553
H    -0.237949  -2.320857  1.601379
H    -2.319059  -1.344834  0.480210
H    -2.742136  -0.559452  2.025929
H    -5.147283  -1.926698  1.909458
H    -5.176208  -3.702706  1.762703
H    -4.640088  -2.727711  0.371299
O    2.417713  -0.446036  1.340967
H    0.998284  -0.397144  -0.166700
Ba    4.131755  -0.561908  3.286949
