21
Energy: -246966.3552889  eV PBE+vdW (tier 2 basis)
N    0.226264  -0.266791  -0.110173
C    0.118158  -0.204397  1.389500
C    1.425185  0.279350  2.015768
O    2.404850  0.597742  1.260536
H    -0.798849  -0.445512  -0.417834
H    0.832955  -1.030298  -0.433051
H    -0.639491  0.570983  1.581133
C    -0.378664  -1.545106  1.971321
C    -1.438969  -2.300994  1.134231
S    -2.601550  -1.320531  0.124761
C    -3.583453  -0.433936  1.369635
H    -0.770924  -1.317859  2.969835
H    0.475392  -2.222001  2.125957
H    -2.012980  -2.962566  1.795292
H    -0.958576  -2.958698  0.395445
H    -4.299157  0.176734  0.807578
H    -2.982175  0.218174  2.012305
H    -4.137198  -1.160918  1.974373
O    1.486498  0.363257  3.284259
H    0.588001  0.606691  -0.511901
Ba    3.818997  1.255099  3.291065
