21
Energy: -246965.1535323  eV PBE+vdW (tier 2 basis)
N    0.577248  1.063264  1.018250
C    0.095624  0.006121  1.875029
C    1.122377  -1.127758  2.134764
O    0.947159  -2.312463  1.759417
H    1.104719  0.747962  0.205042
H    1.120041  1.769136  1.512278
H    -0.155485  0.443260  2.853736
C    -1.123728  -0.710699  1.285288
C    -2.426274  -0.051145  0.871667
S    -3.238331  -1.414481  -0.070074
C    -5.017002  -1.233295  0.240618
H    -1.402588  -1.489534  2.021171
H    -0.729148  -1.180552  0.355790
H    -2.280402  0.815427  0.217297
H    -3.050270  0.231546  1.727788
H    -5.345936  -0.269741  -0.162904
H    -5.243646  -1.315461  1.308052
H    -5.510205  -2.039512  -0.314277
O    2.218095  -0.729498  2.729441
H    2.863283  -1.462406  2.831870
Ba    -0.971995  -3.714282  0.736380
