21
Energy: -246965.1572538  eV PBE+vdW (tier 2 basis)
N    0.421608  0.277942  0.918013
C    -0.184132  -0.733592  1.749891
C    0.813009  -1.742214  2.379559
O    0.785600  -2.974164  2.142335
H    1.160970  -0.060832  0.303798
H    0.767606  1.079595  1.441929
H    -0.698214  -0.231226  2.584125
C    -1.172516  -1.607043  0.970845
C    -2.377775  -1.101903  0.200048
S    -3.220012  -2.681934  -0.245310
C    -3.911530  -2.412644  -1.902158
H    -1.571753  -2.318933  1.725649
H    -0.559005  -2.145238  0.219954
H    -2.094301  -0.554666  -0.705732
H    -3.056629  -0.485170  0.800903
H    -3.126989  -2.171351  -2.625826
H    -4.657396  -1.612838  -1.843343
H    -4.411727  -3.346681  -2.182416
O    1.724203  -1.188687  3.138454
H    2.361354  -1.851143  3.483599
Ba    -0.765362  -4.632443  0.901516
