21
Energy: -246965.9658102  eV PBE+vdW (tier 2 basis)
N    -0.335012  0.260236  0.093986
C    -0.113459  0.088568  1.590072
C    1.400590  -0.038066  1.807676
O    2.189084  0.142723  0.814695
H    -1.025190  0.988962  -0.125186
H    -0.663102  -0.627342  -0.318214
H    -0.425638  1.027835  2.070383
C    -0.929398  -1.078687  2.155466
C    -0.665072  -2.420578  1.464254
S    -1.370806  -3.727767  2.511467
C    -1.418792  -5.118955  1.352808
H    -2.000008  -0.832089  2.120619
H    -0.667067  -1.144932  3.221388
H    0.417203  -2.587864  1.314659
H    -1.153105  -2.475838  0.473613
H    -1.834839  -5.957634  1.923286
H    -0.415454  -5.393429  1.007004
H    -2.082101  -4.910011  0.505071
O    1.822398  -0.276135  2.980095
H    0.582704  0.495176  -0.333141
Ba    4.236478  -0.138892  2.389698
