21
Energy: -246964.4375716  eV PBE+vdW (tier 2 basis)
N    -0.366189  0.443222  0.352908
C    -0.028790  0.186164  1.729759
C    1.403073  -0.369160  1.926951
O    2.419536  0.073120  1.508989
H    -0.004586  1.334895  0.018259
H    -0.069560  -0.285791  -0.295302
H    -0.035267  1.147079  2.268869
C    -1.022007  -0.769383  2.400595
C    -2.519658  -0.518729  2.428137
S    -3.179181  -2.117736  3.063407
C    -4.664734  -1.698994  4.019677
H    -0.696121  -0.837720  3.457402
H    -0.878031  -1.742404  1.876802
H    -2.934756  -0.318780  1.433942
H    -2.796963  0.291088  3.113932
H    -5.393971  -1.246236  3.339157
H    -4.423494  -1.027683  4.849379
H    -5.067474  -2.645325  4.398100
O    1.458345  -1.644526  2.684643
H    2.421598  -1.833281  2.679527
Ba    -0.359019  -3.360119  3.852429
