21
Energy: -246964.6012176  eV PBE+vdW (tier 2 basis)
N    -0.041917  -0.929937  0.152995
C    0.003243  -0.059820  1.375502
C    1.314460  -0.340372  2.123712
O    2.016295  -1.288006  1.838321
H    0.012527  -0.348489  -0.687762
H    0.845105  -1.464037  0.175768
H    -0.066507  1.005877  1.122514
C    -1.217367  -0.541827  2.172451
C    -1.797470  -0.097057  3.502913
S    -3.368949  -1.074463  3.533595
C    -3.456502  -1.745584  5.218552
H    -1.024113  -1.625893  2.327728
H    -2.054698  -0.400312  1.451462
H    -2.026704  0.973987  3.545499
H    -1.166912  -0.368227  4.356946
H    -3.554153  -0.914814  5.925551
H    -2.586261  -2.366071  5.454320
H    -4.369792  -2.350835  5.254419
O    1.515428  0.539731  3.104198
H    2.362192  0.337598  3.556855
Ba    -2.309350  -2.725745  0.481320
