21
Energy: -246966.6516066  eV PBE+vdW (tier 2 basis)
N    -0.627653  0.837876  0.124589
C    -0.073214  0.465445  1.492926
C    1.336350  -0.082475  1.241751
O    1.598987  -0.494489  0.061442
H    -0.505943  1.838725  -0.079651
H    -1.625077  0.613859  0.015643
H    -0.031788  1.375861  2.101548
C    -0.939231  -0.593094  2.203371
C    -0.954893  -2.009758  1.607490
S    0.419163  -3.085236  2.198990
C    -0.124544  -4.697632  1.561940
H    -1.974284  -0.218696  2.243457
H    -0.605533  -0.624447  3.249991
H    -0.966018  -2.018166  0.507572
H    -1.866870  -2.517080  1.947507
H    0.620655  -5.433716  1.885358
H    -0.204135  -4.700432  0.469650
H    -1.086333  -4.956755  2.019217
O    2.106468  -0.214872  2.230668
H    -0.053341  0.296575  -0.561051
Ba    3.326236  -2.141496  1.161590
