34
Energy: -243345.905119 eV PBE+vdW (tier 2 basis)
C    -0.829325  -1.830132  0.632199
C    0.042110  -0.729657  1.135313
O    1.286382  -1.010096  1.439154
H    -1.821032  -1.486046  0.327677
H    -0.950098  -2.586357  1.420698
H    -0.342141  -2.321380  -0.220367
N    -0.368722  0.498296  1.286947
C    -1.680562  1.126280  1.059798
C    -1.262524  2.620545  0.930093
O    -0.225261  2.964074  1.524260
H    0.265820  1.257664  1.632104
H    -2.122716  0.741595  0.131856
C    -2.602657  0.838288  2.273025
C    -4.042704  1.369828  2.190873
C    -4.271286  2.777166  2.764330
C    -4.249646  2.826182  4.299565
N    -5.245124  1.919594  4.867260
H    -2.100466  1.219986  3.175353
H    -2.631234  -0.256483  2.380675
H    -4.674676  0.685526  2.774985
H    -4.410701  1.304556  1.156695
H    -5.253934  3.135565  2.419139
H    -3.535341  3.502646  2.387132
H    -4.372441  3.879842  4.612228
H    -3.262318  2.513687  4.675948
H    -5.131372  1.814018  5.873829
H    -6.195578  2.253471  4.704353
N    -1.989861  3.473386  0.196664
C    -3.186675  3.251756  -0.606937
H    -1.629747  4.426111  0.226649
H    -3.315851  2.189893  -0.833737
H    -3.082335  3.790310  -1.555601
H    -4.086069  3.613247  -0.092074
Ba    3.460327  -1.456091  1.949638
