34
Energy: -243346.626103 eV PBE+vdW (tier 2 basis)
C    -0.744541  1.607398  0.059499
C    -0.138202  1.113481  1.332550
O    1.117275  1.182614  1.517806
H    -1.503877  0.928847  -0.347445
H    0.037904  1.785607  -0.682835
H    -1.252425  2.563923  0.256966
N    -0.907171  0.589926  2.315462
C    -2.032766  -0.328583  2.092411
C    -1.491178  -1.531682  1.272857
O    -0.236018  -1.700107  1.113091
H    -0.400262  0.451398  3.188056
H    -2.246684  -0.745333  3.090360
C    -3.347969  0.336974  1.591997
C    -4.562252  0.092235  2.501596
C    -5.145964  -1.327327  2.515576
C    -5.805357  -1.777708  1.199241
N    -6.750234  -0.774065  0.722151
H    -3.570118  0.042032  0.555492
H    -3.167190  1.418176  1.561500
H    -5.351394  0.778668  2.168695
H    -4.300587  0.391669  3.528374
H    -5.911055  -1.364204  3.305938
H    -4.399779  -2.079417  2.834644
H    -6.231446  -2.786615  1.357629
H    -5.058792  -1.898943  0.386764
H    -7.147596  -1.039918  -0.178303
H    -7.536877  -0.681801  1.367488
N    -2.365893  -2.392699  0.793231
C    -2.022124  -3.622052  0.077601
H    -3.357294  -2.191275  0.935933
H    -1.407772  -4.275124  0.708679
H    -1.477522  -3.390768  -0.845645
H    -2.949971  -4.140852  -0.176753
Ba    2.138528  -1.042701  1.273960
