34
Energy: -243345.847438 eV PBE+vdW (tier 2 basis)
C    0.124049  0.236610  0.725543
C    -0.162868  0.098397  2.182489
O    0.839320  -0.119600  2.996683
H    0.891905  1.007005  0.576036
H    -0.760046  0.494353  0.136787
H    0.532968  -0.710205  0.345520
N    -1.361991  0.184939  2.688409
C    -2.676239  0.414940  2.066604
C    -3.479823  0.943324  3.293514
O    -3.101445  0.559432  4.413970
H    -1.536382  0.099200  3.718685
H    -2.588889  1.171823  1.276651
C    -3.210591  -0.924286  1.494891
C    -4.559277  -0.873895  0.753879
C    -5.806451  -1.080749  1.626118
C    -6.029981  -2.538435  2.045160
N    -7.154832  -2.632761  2.965991
H    -3.251661  -1.649026  2.322228
H    -2.436060  -1.290357  0.804312
H    -4.537953  -1.662291  -0.013656
H    -4.636906  0.065351  0.186816
H    -6.688219  -0.740163  1.061318
H    -5.772541  -0.470845  2.540263
H    -5.142146  -2.922169  2.572972
H    -6.141472  -3.159343  1.132974
H    -8.042548  -2.406165  2.518030
H    -7.242081  -3.559155  3.379668
N    -4.508964  1.783923  3.127424
C    -5.062552  2.377471  1.916017
H    -4.974888  2.015365  4.003720
H    -5.283391  3.433746  2.106660
H    -5.988354  1.872659  1.611321
H    -4.346182  2.326495  1.091283
Ba    2.550680  -0.461380  4.468225
