34
Energy: -243348.028903 eV PBE+vdW (tier 2 basis)
C    -0.065284  1.236851  0.818762
C    -0.420622  0.710926  2.170289
O    0.295049  0.955811  3.181324
H    -0.003962  2.332450  0.868250
H    -0.779415  0.951301  0.039486
H    0.933751  0.874080  0.542372
N    -1.541208  -0.035650  2.299654
C    -1.978938  -0.486837  3.616156
C    -1.244531  -1.771794  4.057651
O    -0.341304  -1.645027  4.939077
H    -2.129675  -0.174873  1.483120
H    -1.554581  0.268678  4.287350
C    -3.485230  -0.426986  3.903303
C    -3.696603  -0.248878  5.420969
C    -3.211843  1.120807  5.951951
C    -2.583313  1.114886  7.342695
N    -1.286669  0.354861  7.401647
H    -4.020221  -1.314096  3.544176
H    -3.903990  0.437342  3.365695
H    -3.195526  -1.079966  5.945633
H    -4.762556  -0.373305  5.647648
H    -4.061501  1.817087  5.974681
H    -2.494842  1.586652  5.251555
H    -3.292714  0.706567  8.078917
H    -2.366888  2.146729  7.647254
H    -1.508932  -0.645229  7.337261
H    -0.933884  0.459832  8.359320
N    -1.515570  -2.965113  3.543545
C    -2.478951  -3.350549  2.513330
H    -0.951018  -3.719792  3.935547
H    -3.350351  -3.843840  2.962683
H    -1.995598  -4.050639  1.822882
H    -2.813752  -2.483615  1.940138
Ba    0.903606  0.454332  5.573910
