34
Energy: -243346.667006 eV PBE+vdW (tier 2 basis)
C    0.453529  1.151475  0.527410
C    0.045586  0.432604  1.772394
O    0.913091  -0.050728  2.563712
H    1.408397  0.739586  0.182741
H    0.617632  2.220176  0.739696
H    -0.293240  1.070906  -0.269592
N    -1.262451  0.311584  2.087004
C    -2.236748  1.390982  1.933023
C    -1.780982  2.565355  2.832680
O    -0.886601  2.373249  3.725132
H    -1.450618  -0.314838  2.870465
H    -2.243134  1.722084  0.883831
C    -3.640110  0.883254  2.316840
C    -4.179421  -0.181062  1.351581
C    -5.525681  -0.765523  1.797289
C    -6.707000  0.208962  1.727665
N    -7.908301  -0.435950  2.244660
H    -4.325999  1.738718  2.358414
H    -3.600716  0.486137  3.346693
H    -3.447777  -0.998169  1.256517
H    -4.274395  0.261940  0.345875
H    -5.453481  -1.158306  2.823903
H    -5.746094  -1.634101  1.158270
H    -6.793207  0.591459  0.688301
H    -6.514973  1.086584  2.367432
H    -8.680219  0.224424  2.325245
H    -8.224344  -1.183077  1.625341
N    -2.321292  3.764620  2.685260
C    -3.334733  4.213728  1.726664
H    -2.000403  4.460661  3.358729
H    -3.075830  5.225493  1.397147
H    -4.326071  4.237438  2.196902
H    -3.365137  3.560788  0.850368
Ba    1.027637  1.161344  4.711551
