34
Energy: -243348.092638 eV PBE+vdW (tier 2 basis)
C    -0.007671  -0.709206  0.891270
C    -0.485768  -0.779186  2.308763
O    0.086866  -1.529059  3.142883
H    -0.577057  -0.013494  0.266379
H    -0.060997  -1.713072  0.448599
H    1.049918  -0.413626  0.885416
N    -1.548176  -0.025255  2.645296
C    -2.228509  0.101118  3.952079
C    -1.245649  0.627952  5.024893
O    -0.554863  -0.176311  5.709358
H    -1.945516  0.531125  1.894732
H    -2.977874  0.879206  3.768654
C    -2.986143  -1.137762  4.484898
C    -3.615950  -2.093389  3.456025
C    -2.787766  -3.366434  3.211763
C    -2.653954  -4.266927  4.456673
N    -1.225489  -4.634653  4.733488
H    -3.759075  -0.736297  5.155201
H    -2.326694  -1.705611  5.157413
H    -3.789130  -1.580419  2.499651
H    -4.613981  -2.383274  3.811992
H    -1.782775  -3.096214  2.855013
H    -3.246680  -3.938575  2.395198
H    -3.266333  -5.171450  4.338620
H    -3.031579  -3.758107  5.355352
H    -0.864856  -5.126511  3.907933
H    -1.223933  -5.356713  5.462779
N    -1.145774  1.940304  5.216007
C    -1.861539  3.021826  4.531757
H    -0.487532  2.209687  5.946344
H    -1.680252  2.999516  3.450395
H    -1.480138  3.971990  4.915578
H    -2.938901  2.983222  4.736123
Ba    0.464774  -2.455965  5.388821
