34
Energy: -243347.851364 eV PBE+vdW (tier 2 basis)
C    0.102436  -0.948457  0.715958
C    -0.514949  0.218584  1.434063
O    -0.005029  0.517136  2.591583
H    0.079961  -1.833637  1.364553
H    1.159772  -0.734487  0.508257
H    -0.406451  -1.198405  -0.219502
N    -1.506964  0.874926  0.870587
C    -2.046239  2.061279  1.557619
C    -2.882836  1.667431  2.789214
O    -2.374982  1.711838  3.951649
H    -1.694069  0.716827  -0.608183
H    -1.209693  2.651884  1.972560
C    -2.811774  2.958257  0.571032
C    -1.931724  3.421093  -0.613247
C    -2.476292  3.077165  -2.010728
C    -2.882359  1.621595  -2.232592
N    -1.819722  0.663972  -1.769470
H    -3.205508  3.823988  1.119208
H    -3.697246  2.422659  0.191733
H    -0.920370  2.999896  -0.501027
H    -1.793239  4.508223  -0.567430
H    -1.725907  3.365375  -2.762365
H    -3.364380  3.686878  -2.233057
H    -3.090046  1.437281  -3.293496
H    -3.789710  1.355977  -1.674523
H    -2.062732  -0.295978  -2.034921
H    -0.920003  0.877543  -2.214261
N    -4.137711  1.275842  2.611344
C    -5.039877  0.860878  3.684664
H    -4.494209  1.261179  1.661123
H    -4.857402  1.471247  4.574209
H    -4.890018  -0.197696  3.934790
H    -6.071852  1.005262  3.352450
Ba    -0.132881  1.221446  4.822208
