34
Energy: -243347.44051 eV PBE+vdW (tier 2 basis)
C    -0.876992  0.502477  0.269853
C    -0.447121  0.323221  1.692372
O    0.758909  0.042871  1.960895
H    -1.927330  0.791202  0.160015
H    -0.710898  -0.443464  -0.264987
H    -0.242680  1.257379  -0.212086
N    -1.377725  0.463445  2.648058
C    -1.290488  0.190496  4.100041
C    -0.460792  1.258101  4.830519
O    0.800050  1.325765  4.655513
H    -2.309239  0.690725  2.312046
H    -2.327006  0.277214  4.445088
C    -0.820427  -1.231463  4.464176
C    -1.231247  -1.612062  5.895665
C    -2.701928  -2.031532  6.031729
C    -3.207093  -1.948852  7.477293
N    -3.399047  -0.540370  7.886158
H    0.270772  -1.318061  4.343653
H    -1.262465  -1.931089  3.739846
H    -1.025970  -0.772927  6.581481
H    -0.592661  -2.439274  6.235813
H    -2.825972  -3.056324  5.651706
H    -3.356616  -1.397076  5.408795
H    -2.471366  -2.414335  8.148643
H    -4.130200  -2.539907  7.575361
H    -4.380450  -0.283049  7.769722
H    -3.210991  -0.432320  8.882807
N    -1.057351  2.092408  5.665024
C    -2.469765  2.150137  6.065553
H    -0.421975  2.740333  6.131133
H    -3.121201  2.249962  5.189286
H    -2.599948  3.044891  6.680706
H    -2.743607  1.259015  6.662022
Ba    2.664412  0.461533  3.377358
