34
Energy: -243346.823007 eV PBE+vdW (tier 2 basis)
C    0.994129  2.837482  1.142747
C    0.799759  1.700585  2.093204
O    1.601658  1.511990  3.059585
H    0.486057  3.740120  1.518523
H    0.607353  2.620528  0.141426
H    2.063846  3.066473  1.085437
N    -0.256693  0.870951  1.949298
C    -1.602054  1.326081  1.605016
C    -2.070585  2.286492  2.727267
O    -1.433819  2.363920  3.830114
H    -0.227868  0.042688  2.545210
H    -1.565593  1.886609  0.659597
C    -2.519292  0.090657  1.425733
C    -3.947088  0.346631  0.937907
C    -4.072714  1.116722  -0.381971
C    -5.463756  0.934623  -1.019198
N    -5.697554  -0.478438  -1.310172
H    -2.547283  -0.464920  2.378435
H    -2.002115  -0.552576  0.697410
H    -4.556592  0.817166  1.726807
H    -4.409955  -0.637588  0.766671
H    -3.310424  0.757716  -1.094623
H    -3.883833  2.203289  -0.270113
H    -5.541647  1.597849  -1.898265
H    -6.232798  1.270199  -0.306973
H    -6.692207  -0.693991  -1.338148
H    -5.314211  -0.741159  -2.217758
N    -3.148689  3.013250  2.499673
C    -3.760401  3.928365  3.465298
H    -3.609303  2.891304  1.598473
H    -3.062002  4.731729  3.728312
H    -4.052999  3.388454  4.373599
H    -4.650221  4.367762  3.007616
Ba    0.565150  2.022522  5.239211
