34
Energy: -243347.328381 eV PBE+vdW (tier 2 basis)
C    -1.338692  -0.741770  -0.297028
C    -0.492537  -1.043429  0.899730
O    0.605856  -1.668228  0.768865
H    -2.372699  -0.487600  -0.046068
H    -1.331909  -1.631659  -0.939690
H    -0.903371  0.077562  -0.888664
N    -0.892720  -0.658665  2.131704
C    -1.422505  0.684671  2.394746
C    -0.186890  1.605831  2.621503
O    0.896129  1.333253  1.980533
H    -0.336794  -1.059302  2.888154
H    -1.858055  1.043897  1.449333
C    -2.512891  0.729043  3.461480
C    -2.077852  0.337674  4.881993
C    -2.973918  0.938834  5.979278
C    -3.230253  2.443167  5.848139
N    -1.983597  3.205386  5.556104
H    -3.337367  0.087674  3.120490
H    -2.920107  1.749139  3.448867
H    -1.039537  0.660570  5.061844
H    -2.075160  -0.756619  4.989631
H    -2.515264  0.723512  6.955737
H    -3.950730  0.433957  5.991849
H    -3.718590  2.803331  6.765817
H    -3.932469  2.650197  5.028668
H    -2.216658  4.200731  5.506202
H    -1.349641  3.123617  6.356878
N    -0.283883  2.647754  3.410989
C    0.812014  3.601648  3.571321
H    -1.090568  2.785177  4.123513
H    1.146509  3.975216  2.597019
H    1.665783  3.146038  4.091578
H    0.446025  4.442081  4.168089
Ba    2.549469  -0.165776  1.017370
