34
Energy: -243347.427996 eV PBE+vdW (tier 2 basis)
C    0.220134  -0.002366  0.129658
C    0.091400  -0.046116  1.617958
O    1.089300  -0.351385  2.336887
H    0.326485  -1.038298  -0.227865
H    1.133850  0.534024  -0.151083
H    -0.641377  0.451470  -0.371233
N    -1.108829  0.224654  2.152230
C    -1.580324  -0.001352  3.537404
C    -1.010818  1.036729  4.517555
O    0.203600  0.995405  4.880122
H    -1.839252  0.444687  1.481427
H    -2.665252  0.160548  3.473923
C    -1.374782  -1.442779  4.046420
C    -1.944484  -2.502448  3.104300
C    -1.707791  -3.938449  3.579224
C    -1.954350  -4.949227  2.449772
N    -0.999525  -4.737200  1.348590
H    -1.845318  -1.504171  5.040368
H    -0.303146  -1.650021  4.206121
H    -1.480157  -2.416102  2.109838
H    -3.025588  -2.331247  2.971689
H    -2.347393  -4.178993  4.441380
H    -0.664019  -4.049115  3.924127
H    -2.971166  -4.807934  2.055081
H    -1.923125  -5.969159  2.866680
H    -0.147200  -5.274109  1.512668
H    -1.383045  -5.091808  0.473120
N    -1.853589  1.941499  4.995971
C    -1.523721  2.976852  5.975042
H    -2.811233  1.920143  4.654797
H    -2.305435  3.008008  6.741833
H    -1.464764  3.956270  5.483517
H    -0.563219  2.741536  6.438723
Ba    2.323134  -0.108546  4.383760
