34
Energy: -243347.447145 eV PBE+vdW (tier 2 basis)
C    0.732105  -0.526996  0.422104
C    0.010742  -0.022081  1.631746
O    0.017368  -0.690316  2.704418
H    0.298477  -1.494652  0.133504
H    0.686097  0.152725  -0.434920
H    1.782974  -0.712137  0.680255
N    -0.639062  1.153163  1.524514
C    -1.498339  1.821336  2.526547
C    -0.646694  2.375053  3.687159
O    -0.200482  1.608106  4.588179
H    -0.578038  1.608282  0.618392
H    -1.932243  2.679751  1.995855
C    -2.658435  0.921414  2.997488
C    -3.452228  1.451414  4.198439
C    -4.425670  0.419783  4.780174
C    -3.765820  -0.847007  5.349352
N    -4.701914  -1.636358  6.083442
H    -2.266447  -0.085294  3.200939
H    -3.328965  0.777396  2.137975
H    -4.017277  2.346486  3.901548
H    -2.767481  1.781081  4.997843
H    -5.166341  0.108335  4.030062
H    -4.996365  0.899814  5.588516
H    -2.856436  -0.497696  5.958709
H    -3.375328  -1.475627  4.526970
H    -4.407414  -2.578464  6.321056
H    -5.111198  -1.174358  6.891860
N    -0.421367  3.682404  3.697282
C    0.359395  4.398705  4.705453
H    -0.816186  4.236660  2.941887
H    1.302287  4.751863  4.269316
H    0.571707  3.725553  5.538844
H    -0.214694  5.260822  5.062943
Ba    -0.203479  -0.785689  5.141431
