34
Energy: -243346.605709 eV PBE+vdW (tier 2 basis)
C    0.290600  -0.923979  1.010297
C    -0.086974  -1.115424  2.442810
O    0.744011  -1.575605  3.283176
H    -0.573919  -0.907924  0.339424
H    0.967613  -1.736358  0.720021
H    0.851094  0.016263  0.886688
N    -1.323134  -0.769468  2.870126
C    -2.007587  0.466416  2.473205
C    -1.044820  1.637317  2.769612
O    -0.166853  1.499122  3.690729
H    -1.539893  -1.077730  3.818637
H    -2.246791  0.429679  1.402213
C    -3.316624  0.556615  3.296064
C    -4.251373  1.730314  3.003724
C    -5.527432  1.646272  3.848995
C    -6.490187  2.814125  3.603691
N    -7.629561  2.717877  4.508965
H    -3.045308  0.565246  4.366456
H    -3.850187  -0.388973  3.113100
H    -4.518288  1.739887  1.934732
H    -3.747802  2.686655  3.220031
H    -5.276392  1.629384  4.920932
H    -6.046256  0.696955  3.636652
H    -6.757387  2.844463  2.527012
H    -5.969959  3.760017  3.822203
H    -8.146946  3.594536  4.548427
H    -8.288872  1.999788  4.208516
N    -1.108579  2.772303  2.091885
C    -1.960381  3.157216  0.963535
H    -0.459665  3.489117  2.419685
H    -2.458421  2.286825  0.531700
H    -1.332636  3.625798  0.197278
H    -2.722279  3.874682  1.290270
Ba    1.430942  0.113467  4.960839
