34
Energy: -243345.754938 eV PBE+vdW (tier 2 basis)
C    0.387701  0.060109  0.120591
C    0.115126  -0.394087  1.510886
O    0.827285  -1.392539  1.963583
H    -0.295090  0.832984  -0.229666
H    0.330824  -0.793943  -0.563647
H    1.412944  0.462114  0.095508
N    -0.675216  0.225057  2.376417
C    -1.922005  0.957987  2.083996
C    -2.675094  0.150816  0.971865
O    -2.218709  -0.925091  0.565351
H    -0.629167  -0.169564  3.313529
H    -2.523505  0.798657  2.992842
C    -1.781816  2.493674  1.965035
C    -0.973181  3.119223  0.824822
C    -1.584987  3.068792  -0.584155
C    -2.843506  3.936126  -0.756132
N    -2.585597  5.315556  -0.351538
H    -1.353823  2.827837  2.921688
H    -2.800995  2.911681  1.972140
H    0.048891  2.712105  0.820893
H    -0.859920  4.181872  1.082581
H    -1.831534  2.043133  -0.904906
H    -0.823348  3.424811  -1.296006
H    -3.660255  3.558518  -0.118437
H    -3.199932  3.820815  -1.797216
H    -1.993279  5.795227  -1.030451
H    -3.449127  5.852322  -0.286224
N    -3.845155  0.679102  0.586715
C    -4.730570  0.067767  -0.398746
H    -4.112461  1.581917  0.964377
H    -4.823122  0.715619  -1.279878
H    -5.725402  -0.094218  0.032857
H    -4.304861  -0.892999  -0.698885
Ba    1.679820  -3.503162  2.047477
