34
Energy: -243347.445526 eV PBE+vdW (tier 2 basis)
C    0.714280  0.764153  0.722285
C    0.261070  0.635108  2.140249
O    0.944564  1.135797  3.086761
H    0.739832  1.832043  0.461826
H    0.067912  0.241245  0.009878
H    1.740216  0.386857  0.625500
N    -0.886361  -0.007524  2.388955
C    -1.577384  -0.074056  3.688157
C    -0.932058  -1.161667  4.573016
O    0.133310  -0.885742  5.210262
H    -1.398230  -0.368295  1.586924
H    -1.373167  0.876865  4.205483
C    -3.092302  -0.187342  3.476253
C    -3.701624  1.066440  2.839044
C    -5.228851  1.011165  2.739250
C    -5.825236  2.370121  2.348084
N    -5.490829  3.388368  3.352995
H    -3.558641  -0.350217  4.459902
H    -3.328633  -1.077443  2.862981
H    -3.280253  1.234620  1.833786
H    -3.439518  1.952042  3.440908
H    -5.649018  0.706295  3.712733
H    -5.546687  0.248925  2.011281
H    -6.908915  2.244890  2.181192
H    -5.398871  2.691255  1.385599
H    -5.615470  4.324224  2.968749
H    -6.126682  3.325665  4.149309
N    -1.510054  -2.347978  4.642083
C    -1.038961  -3.488244  5.426883
H    -2.376739  -2.468422  4.121792
H    -1.836408  -3.820437  6.101843
H    -0.166153  -3.188364  6.010295
H    -0.770752  -4.314681  4.757292
Ba    1.890845  0.811440  5.283884
