34
Energy: -243347.919091 eV PBE+vdW (tier 2 basis)
C    2.304384  1.493351  1.908871
C    1.375957  1.450920  3.081963
O    1.231161  2.502299  3.797462
H    2.459414  0.511447  1.454998
H    3.271952  1.903839  2.222611
H    1.894022  2.181482  1.156100
N    0.718722  0.324477  3.338628
C    -0.318978  0.210363  4.379269
C    0.307280  0.122582  5.791207
O    0.608360  1.191896  6.408925
H    0.811600  -0.479760  2.618612
H    -0.870535  1.164342  4.398649
C    -1.322034  -0.900947  4.028785
C    -0.743341  -2.319580  3.785475
C    -1.106172  -2.929930  2.421380
C    -0.670126  -2.101192  1.212583
N    0.742813  -1.654693  1.336168
H    -1.856929  -0.559195  3.131740
H    -2.081348  -0.925666  4.822083
H    -1.103658  -3.008593  4.563590
H    0.356656  -2.311302  3.864748
H    -2.192312  -3.089155  2.356936
H    -0.652674  -3.930989  2.362302
H    -1.286546  -1.194942  1.113455
H    -0.838412  -2.689177  0.298208
H    1.352396  -2.470396  1.447627
H    1.029665  -1.230126  0.450825
N    0.503582  -1.058827  6.351976
C    1.071263  -1.252868  7.687099
H    0.243852  -1.883949  5.817523
H    0.921981  -2.295620  7.978841
H    0.568465  -0.599230  8.408054
H    2.145817  -1.030368  7.687563
Ba    1.090723  3.539506  5.936741
