34
Energy: -243347.162063 eV PBE+vdW (tier 2 basis)
C    -0.036881  0.549804  -0.054677
C    -0.101973  0.266013  1.410111
O    0.955591  0.194093  2.108077
H    0.436460  1.530591  -0.203289
H    -1.017645  0.550992  -0.541198
H    0.607620  -0.193288  -0.542327
N    -1.303950  0.098548  1.982112
C    -1.514336  -0.038425  3.432896
C    -1.041423  -1.435830  3.896807
O    0.099326  -1.508889  4.463246
H    -2.127093  0.214844  1.395561
H    -0.801955  0.646510  3.917830
C    -2.926560  0.430633  3.828137
C    -3.108002  0.702271  5.328580
C    -2.988557  -0.515708  6.247116
C    -3.290469  -0.198133  7.716771
N    -3.000221  -1.364773  8.551469
H    -3.692201  -0.272064  3.473803
H    -3.094056  1.371686  3.280825
H    -4.101463  1.157961  5.452753
H    -2.389682  1.478272  5.642806
H    -1.973737  -0.944534  6.224467
H    -3.673696  -1.311401  5.906308
H    -4.327728  0.178873  7.801042
H    -2.635482  0.622880  8.046151
H    -2.933340  -1.097056  9.532975
H    -3.755561  -2.049487  8.498664
N    -1.729600  -2.547847  3.685587
C    -3.024272  -2.762460  3.036659
H    -1.288453  -3.377467  4.083088
H    -3.040382  -3.786547  2.650659
H    -3.162952  -2.081630  2.192783
H    -3.848116  -2.643841  3.751287
Ba    2.294539  -0.579443  3.990584
