34
Energy: -243348.308615 eV PBE+vdW (tier 2 basis)
C    -0.848787  -0.037338  -0.386373
C    -1.029242  -0.381456  1.062975
O    -0.366461  -1.324104  1.572684
H    0.207889  0.195393  -0.571908
H    -1.463539  0.803016  -0.724958
H    -1.092365  -0.922656  -0.989267
N    -1.916565  0.359188  1.753899
C    -2.420648  0.289568  3.147557
C    -1.322443  0.485298  4.207496
O    -0.312095  -0.260591  4.310011
H    -2.371429  1.078352  1.199385
H    -3.048856  1.188450  3.211051
C    -3.412154  -0.873909  3.420951
C    -2.940683  -2.338394  3.421994
C    -2.392803  -2.851856  4.761849
C    -1.889567  -4.295600  4.726207
N    -0.756334  -4.486823  3.758577
H    -4.193535  -0.759342  2.655960
H    -3.907314  -0.645897  4.378247
H    -2.227342  -2.494174  2.600053
H    -3.813920  -2.955541  3.161943
H    -3.191632  -2.801418  5.517219
H    -1.602038  -2.189373  5.154602
H    -2.716418  -4.980271  4.485283
H    -1.523176  -4.578547  5.720948
H    -0.286048  -5.364960  3.997426
H    -1.152679  -4.671270  2.831179
N    -1.518858  1.485062  5.063762
C    -0.622266  1.786354  6.180404
H    -2.330346  2.081987  4.938019
H    -0.504889  0.906037  6.823045
H    -1.057249  2.601847  6.763755
H    0.362687  2.094823  5.809507
Ba    0.917106  -2.246853  3.451520
