34
Energy: -243346.8261 eV PBE+vdW (tier 2 basis)
C    -0.622087  -1.093369  -0.356159
C    -0.132498  -0.741256  1.010845
O    1.081417  -0.436813  1.214899
H    -1.503659  -1.742072  -0.335835
H    0.190063  -1.587703  -0.901193
H    -0.875903  -0.178718  -0.915799
N    -0.997051  -0.712250  2.051262
C    -2.342888  -0.126170  1.976871
C    -2.176866  1.302930  1.417065
O    -1.081483  1.934688  1.645258
H    -0.549379  -0.606670  2.962277
H    -2.965442  -0.719020  1.293370
C    -2.948228  -0.202026  3.401056
C    -4.386678  0.298405  3.590832
C    -4.520431  1.796003  3.889806
C    -5.975819  2.282661  3.906884
N    -6.624014  2.116120  2.589062
H    -2.275601  0.338481  4.090054
H    -2.888205  -1.266111  3.672876
H    -4.816984  -0.263664  4.432456
H    -4.996493  0.021331  2.718226
H    -3.967071  2.400371  3.153181
H    -4.064810  2.009588  4.869960
H    -5.984559  3.346373  4.176901
H    -6.527775  1.757815  4.703582
H    -7.254574  1.314505  2.592548
H    -7.211913  2.921842  2.379089
N    -3.110387  1.858242  0.664575
C    -4.427479  1.361128  0.261160
H    -2.901594  2.819675  0.392906
H    -4.432298  0.267747  0.218107
H    -4.641168  1.750611  -0.739708
H    -5.208573  1.704636  0.973391
Ba    1.358682  1.953848  1.828053
