34
Energy: -243345.951129 eV PBE+vdW (tier 2 basis)
C    -1.049229  0.709586  0.837529
C    -0.629682  0.471051  2.253391
O    0.522209  0.772559  2.632272
H    -0.654405  1.671234  0.493953
H    -2.133361  0.674275  0.683496
H    -0.578154  -0.083044  0.234496
N    -1.563631  -0.083925  3.081989
C    -1.434315  -0.829284  4.342579
C    -0.485608  -0.286145  5.401301
O    -0.698325  -0.717368  6.623559
H    -2.459111  -0.251929  2.632445
H    -2.415026  -0.713350  4.830654
C    -1.249840  -2.371211  4.110965
C    -0.286480  -2.803265  3.005791
C    1.209871  -2.574785  3.231170
C    2.010261  -2.802217  1.938479
N    1.616982  -1.832524  0.905329
H    -2.248800  -2.766175  3.875190
H    -0.968894  -2.824984  5.077491
H    -0.567023  -2.317709  2.059490
H    -0.459515  -3.877746  2.838729
H    1.590515  -3.251171  4.013854
H    1.409692  -1.548429  3.575623
H    1.793110  -3.810361  1.555939
H    3.088582  -2.783604  2.173762
H    1.897006  -2.165881  -0.016471
H    2.098926  -0.943899  1.047341
N    0.468334  0.547016  5.130180
C    1.389438  1.098119  6.111585
H    0.597864  0.731784  4.030132
H    0.846966  1.533101  6.961965
H    1.972864  1.889458  5.632340
H    2.086047  0.327428  6.472738
Ba    -0.968168  -1.549346  8.709048
