34
Energy: -243347.279998 eV PBE+vdW (tier 2 basis)
C    0.089509  0.759848  1.012802
C    -0.317329  0.373996  2.400125
O    0.501699  0.564387  3.376412
H    0.383575  1.817325  0.987702
H    -0.702019  0.589579  0.276583
H    0.972002  0.170159  0.727143
N    -1.512447  -0.154265  2.576278
C    -2.114476  -0.786972  3.750800
C    -3.189553  -1.718628  3.097403
O    -3.514755  -1.480877  1.930302
H    -2.137653  -0.346871  1.762582
H    -1.347376  -1.373286  4.279361
C    -2.794773  0.209654  4.715708
C    -1.803639  1.100509  5.468443
C    -2.398079  2.094781  6.466304
C    -1.339994  2.790846  7.321074
N    -0.272002  3.454692  6.492559
H    -3.394216  -0.357734  5.441227
H    -3.501747  0.827358  4.142758
H    -1.237810  1.663108  4.705811
H    -1.099686  0.428954  6.009373
H    -3.092770  1.584377  7.149000
H    -3.000820  2.843421  5.928231
H    -0.839679  2.057791  7.975205
H    -1.821167  3.523609  7.983850
H    -0.735169  4.094087  5.836129
H    0.247824  4.085513  7.112700
N    -3.729401  -2.709978  3.825944
C    -3.428058  -3.130854  5.187533
H    -4.453924  -3.224833  3.328372
H    -3.525423  -4.219939  5.252192
H    -4.114624  -2.680274  5.918784
H    -2.396423  -2.879256  5.458047
Ba    1.452625  1.610205  5.268939
