34
Energy: -243348.066076 eV PBE+vdW (tier 2 basis)
C    0.942713  0.553118  0.866928
C    0.225400  0.622992  2.175056
O    0.600960  1.408516  3.089105
H    0.961881  1.554975  0.417357
H    0.491623  -0.150820  0.159979
H    1.987251  0.263727  1.044951
N    -0.850369  -0.173784  2.362420
C    -1.651297  -0.098190  3.581852
C    -1.024430  -0.963055  4.701367
O    -0.302813  -0.360207  5.551858
H    -1.157048  -0.761265  1.591904
H    -1.466554  0.917882  3.945090
C    -3.164518  -0.149862  3.346009
C    -3.981778  0.165919  4.619684
C    -3.404812  1.246171  5.556878
C    -3.095280  2.612833  4.930657
N    -1.981716  3.291411  5.674500
H    -3.494346  -1.108618  2.926994
H    -3.369918  0.602595  2.569514
H    -4.102406  -0.749655  5.216878
H    -4.996282  0.444114  4.303535
H    -2.488272  0.857699  6.030373
H    -4.110742  1.383398  6.388211
H    -3.998141  3.240334  4.916731
H    -2.770359  2.525430  3.883890
H    -2.281202  3.400560  6.650284
H    -1.917785  4.256900  5.333305
N    -1.192390  -2.277175  4.776996
C    -1.958912  -3.172257  3.908482
H    -0.712733  -2.708610  5.567282
H    -1.546071  -4.180264  4.011125
H    -1.868392  -2.881347  2.857652
H    -3.017293  -3.198869  4.197431
Ba    0.589453  2.001662  5.523807
