34
Energy: -243346.132823 eV PBE+vdW (tier 2 basis)
C    0.575705  2.025497  1.554129
C    0.452272  0.547501  1.400364
O    1.551763  -0.165898  1.303343
H    1.441943  2.266066  2.180290
H    -0.322330  2.477316  1.986659
H    0.742089  2.481436  0.566417
N    -0.688391  -0.076462  1.347354
C    -2.071550  0.392049  1.475918
C    -2.816451  -0.967005  1.696750
O    -2.147361  -2.015839  1.617103
H    -0.761703  -1.136075  1.320302
H    -2.166808  0.993213  2.393786
C    -2.569859  1.224250  0.273061
C    -2.487022  0.574316  -1.118091
C    -3.461323  -0.578602  -1.407320
C    -4.940335  -0.179241  -1.418817
N    -5.790720  -1.369476  -1.303936
H    -2.004515  2.167715  0.263818
H    -3.603775  1.527306  0.495836
H    -1.455950  0.227314  -1.296404
H    -2.651588  1.376687  -1.853293
H    -3.326587  -1.403855  -0.694008
H    -3.201033  -0.999977  -2.390668
H    -5.139726  0.437291  -2.316039
H    -5.173100  0.464554  -0.554733
H    -5.635181  -1.997543  -2.094847
H    -6.776425  -1.107525  -1.348683
N    -4.118775  -0.909934  1.961448
C    -4.983438  -2.088640  2.043790
H    -4.568905  -0.000476  1.963092
H    -5.468315  -2.251470  1.069015
H    -5.738541  -1.926391  2.819773
H    -4.371605  -2.956019  2.304988
Ba    3.380260  -1.504475  1.230319
