34
Energy: -243347.419323 eV PBE+vdW (tier 2 basis)
C    -0.663814  -2.086235  1.886071
C    -0.575579  -0.883695  2.770464
O    0.433300  -0.692350  3.514696
H    -0.207529  -1.870476  0.906599
H    -1.697011  -2.407694  1.717655
H    -0.091182  -2.901037  2.341732
N    -1.569287  0.032883  2.759343
C    -2.217392  0.500252  1.530773
C    -1.114983  1.041156  0.586736
O    0.025037  1.383505  1.078199
H    -1.483733  0.744863  3.485519
H    -2.722731  -0.341793  1.037227
C    -3.261639  1.574386  1.913874
C    -4.165524  2.080230  0.785901
C    -5.139921  1.034518  0.192190
C    -5.054016  0.890040  -1.325124
N    -3.783284  0.229086  -1.743696
H    -2.728875  2.428984  2.363912
H    -3.880820  1.132509  2.709954
H    -3.554217  2.526959  -0.012029
H    -4.741389  2.918740  1.198606
H    -6.171631  1.309481  0.446814
H    -4.992224  0.043969  0.656173
H    -5.081574  1.881977  -1.796924
H    -5.925637  0.333550  -1.699717
H    -3.861470  -0.776241  -1.564416
H    -3.690986  0.301320  -2.760598
N    -1.398531  1.135335  -0.687064
C    -0.475518  1.694397  -1.670687
H    -2.366186  0.783479  -1.058799
H    -0.147170  2.697974  -1.374719
H    0.407578  1.053585  -1.794062
H    -0.995900  1.760055  -2.630716
Ba    1.821910  1.198097  2.698400
