34
Energy: -243347.293545 eV PBE+vdW (tier 2 basis)
C    -0.470990  -0.264167  -0.463684
C    -0.440648  -0.297979  1.029832
O    0.658092  -0.429375  1.652966
H    0.106474  0.607501  -0.803808
H    -1.482712  -0.201925  -0.877497
H    0.030135  -1.154913  -0.863596
N    -1.595740  -0.172008  1.696426
C    -1.743012  -0.003925  3.153827
C    -1.621662  -1.377390  3.854299
O    -0.463930  -1.850281  4.084564
H    -2.441341  -0.057908  1.141550
H    -0.871750  0.573658  3.500844
C    -3.018086  0.786675  3.458777
C    -3.147207  1.218749  4.929526
C    -4.564185  1.684569  5.288340
C    -5.577640  0.541848  5.424243
N    -6.912063  1.076556  5.645189
H    -3.905138  0.212056  3.136420
H    -3.013935  1.683314  2.820941
H    -2.429116  2.030214  5.118253
H    -2.859245  0.394953  5.605014
H    -4.936297  2.403338  4.542638
H    -4.519978  2.231770  6.241539
H    -5.216066  -0.158907  6.210940
H    -5.623797  -0.039246  4.484173
H    -7.622363  0.346303  5.638847
H    -6.980616  1.554914  6.543793
N    -2.726766  -2.022285  4.180526
C    -2.798107  -3.321704  4.845656
H    -3.609370  -1.546394  4.001976
H    -3.410151  -3.230899  5.750710
H    -1.790961  -3.646372  5.114745
H    -3.258525  -4.058822  4.176240
Ba    1.866927  -1.551580  3.418550
