34
Energy: -243347.769294 eV PBE+vdW (tier 2 basis)
C    -0.270690  -0.966808  0.271055
C    -0.118617  -0.690928  1.735252
O    0.982026  -0.938440  2.315879
H    -1.230939  -0.639823  -0.141086
H    -0.168275  -2.049989  0.111809
H    0.543570  -0.485072  -0.284274
N    -1.177165  -0.191196  2.387545
C    -1.404592  -0.003603  3.832063
C    -0.588907  1.114590  4.490384
O    0.667714  1.255826  4.309558
H    -1.991878  -0.020448  1.805963
H    -2.444458  0.333141  3.887890
C    -1.305647  -1.315876  4.651661
C    -2.588271  -2.159978  4.595910
C    -3.747042  -1.735766  5.517486
C    -4.516568  -0.439657  5.221090
N    -3.897752  0.785937  5.812182
H    -1.085110  -1.057269  5.698514
H    -0.449938  -1.901899  4.287611
H    -2.317429  -3.189144  4.871226
H    -2.944787  -2.226708  3.554206
H    -3.397970  -1.717534  6.564010
H    -4.483874  -2.550456  5.481147
H    -5.543792  -0.557610  5.597064
H    -4.608676  -0.282552  4.134743
H    -4.545953  1.565716  5.665971
H    -3.874770  0.664149  6.829507
N    -1.287044  1.854688  5.324226
C    -0.729070  2.907659  6.163842
H    -2.294102  1.541749  5.477826
H    -1.497095  3.669922  6.329792
H    0.132803  3.367339  5.671451
H    -0.415971  2.506675  7.138041
Ba    2.686264  0.146364  3.638453
