34
Energy: -243347.202165 eV PBE+vdW (tier 2 basis)
C    -1.631424  -0.198960  -0.031230
C    -1.158473  -0.169681  1.385957
O    0.016686  -0.541886  1.681275
H    -2.492045  0.453944  -0.214280
H    -1.937821  -1.233317  -0.259912
H    -0.813994  0.064829  -0.709846
N    -2.036961  0.223379  2.321358
C    -1.970355  0.080870  3.792694
C    -0.984212  1.081059  4.412347
O    0.269440  0.926097  4.271159
H    -2.950585  0.484788  1.962202
H    -2.978660  0.350486  4.128027
C    -1.695801  -1.347071  4.315222
C    -2.813062  -2.371011  4.057157
C    -3.001824  -2.805829  2.600538
C    -3.954257  -3.996460  2.425903
N    -4.098334  -4.304561  1.002065
H    -1.538980  -1.252415  5.401339
H    -0.750400  -1.729384  3.897546
H    -3.761632  -1.983816  4.464403
H    -2.575661  -3.256198  4.667194
H    -2.023323  -3.071412  2.160977
H    -3.410878  -1.993338  1.982950
H    -4.942901  -3.723071  2.822630
H    -3.599086  -4.847271  3.037309
H    -3.386090  -4.964830  0.691210
H    -4.997466  -4.743147  0.810096
N    -1.445488  2.089970  5.138609
C    -2.836445  2.455777  5.436858
H    -0.719628  2.674948  5.552759
H    -3.413451  2.607854  4.517542
H    -2.821985  3.401553  5.985369
H    -3.320303  1.701290  6.069116
Ba    1.981561  -0.291430  3.046122
