34
Energy: -243346.80661 eV PBE+vdW (tier 2 basis)
C    0.418121  0.396172  0.482540
C    0.408525  0.358253  1.976496
O    1.492125  0.368765  2.639161
H    0.425883  1.439060  0.126809
H    -0.449069  -0.108554  0.043486
H    1.340827  -0.074819  0.126464
N    -0.764305  0.341752  2.645172
C    -1.922429  1.152071  2.272176
C    -1.508401  2.638062  2.373365
O    -0.432350  2.961223  2.984352
H    -0.677583  0.167786  3.646973
H    -2.199267  0.925583  1.231878
C    -3.114172  0.810288  3.190427
C    -3.669749  -0.590823  2.931283
C    -4.885637  -0.927162  3.799515
C    -5.620035  -2.174545  3.284403
N    -6.127684  -1.946250  1.926317
H    -3.908052  1.553267  3.033848
H    -2.795834  0.935450  4.240969
H    -2.884656  -1.348836  3.085863
H    -3.984032  -0.670665  1.877322
H    -5.590088  -0.078094  3.794773
H    -4.589847  -1.080430  4.848683
H    -6.401532  -2.449711  4.013348
H    -4.917729  -3.020857  3.248400
H    -6.298617  -2.830535  1.449770
H    -7.025000  -1.460962  1.953725
N    -2.270535  3.577261  1.835496
C    -3.517606  3.437703  1.078307
H    -1.949062  4.531440  1.999961
H    -4.382453  3.649769  1.719752
H    -3.615900  2.432017  0.661263
H    -3.504740  4.157528  0.253005
Ba    1.824905  2.489415  3.859396
