34
Energy: -243347.280615 eV PBE+vdW (tier 2 basis)
C    -0.382267  0.475458  -0.311336
C    -0.541733  0.537223  1.172022
O    0.322303  1.120179  1.896969
H    -0.359393  1.500693  -0.706843
H    -1.181708  -0.080992  -0.811151
H    0.584960  0.017032  -0.555853
N    -1.622710  -0.026784  1.731197
C    -1.968417  0.094393  3.154910
C    -1.043903  -0.798538  4.014887
O    -0.066846  -0.231501  4.605643
H    -2.315061  -0.442768  1.112529
H    -1.687424  1.113509  3.460103
C    -3.479000  -0.035352  3.387865
C    -3.851553  0.109155  4.865459
C    -5.362101  0.183096  5.107044
C    -5.693182  0.582166  6.550931
N    -5.135201  1.906483  6.861944
H    -3.867101  -0.976420  2.971530
H    -3.952935  0.773567  2.810010
H    -3.409037  1.030846  5.278469
H    -3.431714  -0.726941  5.451188
H    -5.843434  -0.779030  4.873838
H    -5.805419  0.925010  4.421740
H    -5.242160  -0.144972  7.243317
H    -6.785007  0.512764  6.695011
H    -5.737533  2.640682  6.486231
H    -5.114741  2.054004  7.870604
N    -1.204579  -2.107807  4.137883
C    -2.221255  -2.995221  3.567412
H    -0.524369  -2.545557  4.759448
H    -1.827481  -4.015485  3.594278
H    -2.428288  -2.740511  2.524053
H    -3.148576  -2.962004  4.152704
Ba    1.532468  1.498370  3.973307
