34
Energy: -243347.517029 eV PBE+vdW (tier 2 basis)
C    -0.683375  1.836756  0.168508
C    -0.877520  0.697844  1.120356
O    0.109227  -0.026258  1.452583
H    -1.591850  2.421673  -0.008044
H    -0.328578  1.432594  -0.790165
H    0.105223  2.500216  0.545805
N    -2.112730  0.477975  1.590018
C    -2.633957  -0.653795  2.384334
C    -2.187541  -0.567871  3.847468
O    -0.961524  -0.729677  4.159208
H    -2.823647  1.118400  1.248849
H    -3.727142  -0.550958  2.336870
C    -2.352146  -2.051919  1.803995
C    -2.667130  -2.211978  0.309208
C    -4.081311  -1.838441  -0.168217
C    -5.245181  -2.514762  0.567525
N    -5.648377  -1.759217  1.782252
H    -2.965324  -2.745489  2.398759
H    -1.305687  -2.353978  1.973252
H    -2.485138  -3.269149  0.063241
H    -1.931654  -1.646297  -0.283972
H    -4.135871  -2.105030  -1.233026
H    -4.233345  -0.745449  -0.142856
H    -4.953259  -3.528255  0.879894
H    -6.087175  -2.640583  -0.130602
H    -6.242895  -2.358953  2.358927
H    -6.264211  -0.993720  1.495421
N    -3.078165  -0.359360  4.804972
C    -4.525388  -0.144582  4.710054
H    -2.676846  -0.331675  5.743186
H    -4.751803  0.928689  4.665495
H    -4.988948  -0.561503  5.609925
H    -4.937581  -0.658200  3.833597
Ba    1.253374  -1.125670  3.265352
