34
Energy: -243346.32952 eV PBE+vdW (tier 2 basis)
C    0.014472  0.423794  -0.361321
C    -0.115776  0.591300  1.112812
O    0.493190  1.579126  1.705505
H    -0.352679  1.325357  -0.870660
H    -0.538320  -0.445696  -0.729694
H    1.076421  0.312998  -0.621295
N    -0.836815  -0.244579  1.814458
C    -0.994769  -0.286235  3.262629
C    -1.720546  -1.666807  3.465044
O    -1.826533  -2.393695  2.467018
H    -1.242337  -1.136710  1.427496
H    0.007941  -0.379633  3.717060
C    -1.730042  0.927758  3.876155
C    -1.144241  1.346646  5.235346
C    -2.119570  2.038260  6.196412
C    -3.293193  1.139802  6.620140
N    -2.831805  -0.207457  7.007207
H    -1.741603  1.767933  3.161525
H    -2.790882  0.674005  4.001483
H    -0.250760  2.010195  5.108264
H    -0.724218  0.463401  5.737544
H    -2.533492  2.957632  5.754038
H    -1.561839  2.349470  7.093081
H    -4.001839  1.017792  5.788177
H    -3.846683  1.658315  7.419522
H    -2.261459  -0.156942  7.855489
H    -3.641767  -0.774723  7.266900
N    -2.150072  -1.978737  4.687183
C    -2.807072  -3.262527  4.939714
H    -2.175054  -1.289351  5.461172
H    -2.195326  -4.083644  4.550507
H    -3.792669  -3.308107  4.458057
H    -2.923815  -3.381774  6.020913
Ba    1.107894  3.268709  3.104320
