34
Energy: -243347.774047 eV PBE+vdW (tier 2 basis)
C    -1.479639  -0.849960  0.235695
C    -1.085525  -0.529700  1.643922
O    0.156087  -0.389174  1.924620
H    -1.144690  -0.041088  -0.427750
H    -2.559089  -0.981155  0.117283
H    -0.960087  -1.762615  -0.085575
N    -2.053686  -0.406006  2.541366
C    -1.915008  -0.264304  4.000409
C    -1.115704  0.976823  4.426467
O    0.147047  0.961615  4.534567
H    -3.033760  -0.810175  2.295683
H    -2.947467  -0.092968  4.343263
C    -1.431571  -1.552159  4.696289
C    -2.451328  -2.707260  4.680867
C    -2.723003  -3.401045  3.321956
C    -4.100896  -3.168871  2.688980
N    -4.417832  -1.737421  2.389013
H    -1.203211  -1.301804  5.743150
H    -0.486431  -1.890579  4.239331
H    -3.394967  -2.349371  5.124863
H    -2.077741  -3.457247  5.389987
H    -2.643239  -4.487544  3.463995
H    -1.932367  -3.151859  2.597618
H    -4.878566  -3.597957  3.337650
H    -4.144151  -3.725746  1.744538
H    -4.987242  -1.686328  1.542471
H    -5.017476  -1.357379  3.123826
N    -1.817456  2.063071  4.725575
C    -1.247357  3.328771  5.185636
H    -2.826668  2.017730  4.616251
H    -1.971567  3.824503  5.838989
H    -1.025677  3.986877  4.335148
H    -0.328808  3.132025  5.745505
Ba    2.043972  0.101789  3.273118
