34
Energy: -243347.175343 eV PBE+vdW (tier 2 basis)
C    -0.346551  0.863140  -0.064372
C    -0.315609  0.774506  1.425810
O    0.651003  1.264273  2.088419
H    -0.338210  1.922843  -0.355771
H    -1.221211  0.378394  -0.509946
H    0.565780  0.411323  -0.475667
N    -1.332908  0.175473  2.060729
C    -1.491113  0.155877  3.524663
C    -0.447075  -0.791218  4.155735
O    0.561851  -0.257065  4.726587
H    -2.115740  -0.152224  1.499227
H    -1.188130  1.150337  3.886975
C    -2.967874  -0.029162  3.914634
C    -3.286801  0.257254  5.386432
C    -2.763406  -0.742928  6.422588
C    -3.482721  -0.577466  7.776020
N    -4.914021  -0.833476  7.625143
H    -3.329108  -1.028968  3.637265
H    -3.529262  0.685415  3.291415
H    -4.382569  0.267985  5.485399
H    -2.949289  1.275907  5.642980
H    -1.678118  -0.640639  6.588619
H    -2.937908  -1.773877  6.068578
H    -3.352638  0.458355  8.123806
H    -2.986637  -1.220773  8.523912
H    -5.132595  -1.822637  7.738301
H    -5.460821  -0.330408  8.320890
N    -0.528839  -2.111857  4.088040
C    -1.543155  -2.974163  3.478238
H    0.226297  -2.591258  4.578424
H    -1.063906  -3.922150  3.214405
H    -1.942108  -2.530057  2.562751
H    -2.361623  -3.176205  4.180151
Ba    2.111727  1.486212  4.018140
