34
Energy: -243346.005031 eV PBE+vdW (tier 2 basis)
C    -0.445807  0.798974  0.023370
C    -0.267116  0.734785  1.510626
O    0.827603  1.000715  2.044726
H    -0.030532  1.741987  -0.350151
H    -1.486874  0.698402  -0.302154
H    0.144161  -0.011663  -0.427665
N    -1.360115  0.385398  2.252865
C    -1.365004  -0.095098  3.642008
C    -0.892671  0.920809  4.674819
O    -1.517962  0.977204  5.822897
H    -2.204328  0.176771  1.730627
H    -2.420889  -0.283381  3.875227
C    -0.578420  -1.422814  3.842943
C    -1.044944  -2.565259  2.938233
C    -2.513885  -2.971901  3.076454
C    -2.799989  -4.325522  2.400301
N    -2.043849  -5.396398  3.049684
H    -0.692774  -1.716890  4.899925
H    0.491258  -1.228062  3.682229
H    -0.431781  -3.446836  3.177502
H    -0.821935  -2.319999  1.887872
H    -3.192153  -2.217382  2.640610
H    -2.780745  -3.054443  4.146052
H    -2.484994  -4.269623  1.347993
H    -3.890293  -4.498526  2.388467
H    -1.819157  -6.148664  2.402013
H    -2.562505  -5.812147  3.821884
N    0.157753  1.648908  4.430474
C    0.745377  2.610814  5.350190
H    0.600833  1.443918  3.451794
H    1.557465  3.131096  4.834803
H    1.165508  2.106220  6.232211
H    0.003122  3.356474  5.667191
Ba    -2.462489  1.094586  7.884860
