34
Energy: -243348.223573 eV PBE+vdW (tier 2 basis)
C    -0.197172  0.525717  0.219096
C    -0.977739  -0.069425  1.354436
O    -1.357381  -1.269278  1.293852
H    0.699840  -0.080932  0.040023
H    0.102431  1.566388  0.380486
H    -0.808901  0.468949  -0.691700
N    -1.235294  0.741944  2.398498
C    -2.033130  0.583815  3.636066
C    -1.496768  -0.495984  4.585223
O    -1.180952  -1.654786  4.195052
H    -0.859401  1.678689  2.287084
H    -1.859397  1.538855  4.146742
C    -3.572949  0.547415  3.422934
C    -4.246380  -0.669973  2.768275
C    -4.532321  -1.850596  3.708050
C    -5.141956  -3.071461  3.017560
N    -4.241125  -3.645244  1.961702
H    -3.796792  1.440450  2.822222
H    -4.034423  0.734563  4.405648
H    -3.662196  -0.980465  1.891004
H    -5.209787  -0.322247  2.365550
H    -5.239041  -1.526866  4.487182
H    -3.628421  -2.153521  4.264328
H    -6.120602  -2.813668  2.585701
H    -5.320389  -3.859373  3.760009
H    -4.574346  -4.590089  1.747779
H    -4.400432  -3.130904  1.089103
N    -1.402606  -0.185760  5.877939
C    -1.678635  1.088347  6.550613
H    -1.070964  -0.951320  6.463083
H    -1.482737  0.952483  7.617739
H    -2.726884  1.388409  6.434802
H    -1.017126  1.884458  6.186024
Ba    -1.481742  -3.420300  2.472202
