34
Energy: -243347.40507 eV PBE+vdW (tier 2 basis)
C    0.816070  0.285547  0.430171
C    0.361343  0.259277  1.853508
O    1.107765  0.705451  2.779804
H    1.783762  -0.224513  0.341121
H    0.978263  1.332382  0.136018
H    0.102087  -0.171080  -0.262992
N    -0.851954  -0.234330  2.127250
C    -1.541649  -0.172628  3.426637
C    -1.031832  -1.298168  4.351489
O    0.073142  -1.141662  4.962274
H    -1.408219  -0.555696  1.337923
H    -1.222829  0.762765  3.911897
C    -3.060662  -0.119905  3.208941
C    -3.547227  1.119878  2.446124
C    -3.232477  2.461783  3.113789
C    -4.085840  3.600956  2.524399
N    -5.507117  3.331395  2.736523
H    -3.540807  -0.141495  4.199144
H    -3.395620  -1.025942  2.671262
H    -4.641250  1.047895  2.357545
H    -3.162618  1.117204  1.412436
H    -2.167082  2.731822  3.009815
H    -3.440550  2.395321  4.196379
H    -3.905643  3.658606  1.440452
H    -3.739503  4.560122  2.948341
H    -6.084361  3.803922  2.043656
H    -5.817787  3.659002  3.650645
N    -1.761763  -2.391251  4.483732
C    -1.433695  -3.548154  5.315449
H    -2.645714  -2.417628  3.979223
H    -1.278001  -4.429607  4.681229
H    -2.262452  -3.747049  6.004909
H    -0.525578  -3.338116  5.884078
Ba    2.044034  0.297224  4.968009
