34
Energy: -243346.635266 eV PBE+vdW (tier 2 basis)
C    -1.132896  1.335631  1.148795
C    -0.221825  0.253349  1.627149
O    0.868674  0.040077  1.007268
H    -1.664057  1.027831  0.236309
H    -0.495284  2.183846  0.864369
H    -1.856713  1.661124  1.896747
N    -0.461821  -0.475930  2.749433
C    -1.659927  -1.271936  3.081412
C    -1.453978  -2.645922  2.387278
O    -0.823721  -2.717708  1.278912
H    0.391386  -0.948568  3.052743
H    -1.628469  -1.433881  4.169627
C    -3.017230  -0.610581  2.753207
C    -4.243108  -1.439596  3.180216
C    -4.721142  -2.447100  2.119639
C    -5.437976  -3.671063  2.699605
N    -5.354959  -4.805376  1.768177
H    -3.092160  -0.395626  1.678473
H    -3.020553  0.352093  3.282084
H    -5.054312  -0.741033  3.422404
H    -4.032448  -1.953117  4.134790
H    -3.872039  -2.816458  1.523245
H    -5.376606  -1.932928  1.400578
H    -6.468845  -3.398375  2.987829
H    -4.940106  -3.981318  3.634555
H    -5.836495  -4.585593  0.893606
H    -5.847761  -5.613225  2.153289
N    -1.931342  -3.713466  3.000130
C    -2.036769  -5.060125  2.437522
H    -2.422048  -3.552827  3.877703
H    -3.059337  -5.203919  2.035346
H    -1.841540  -5.791292  3.228798
H    -1.302267  -5.179739  1.637917
Ba    1.042185  -2.106984  -0.186295
