34
Energy: -243346.175428 eV PBE+vdW (tier 2 basis)
C    0.820679  -0.326797  0.399381
C    0.153834  -0.781576  1.646809
O    0.485685  -1.943762  2.169255
H    0.223724  0.413576  -0.166152
H    1.048466  -1.188550  -0.238054
H    1.778726  0.147563  0.666411
N    -0.737243  -0.069586  2.277589
C    -1.339617  1.234251  1.965710
C    -1.850097  1.658324  3.375977
O    -2.103041  0.741153  4.177478
H    -1.162191  -0.382032  3.182678
H    -0.583664  1.911428  1.550386
C    -2.514117  1.023530  0.975764
C    -3.235217  2.280582  0.474915
C    -2.461185  3.218056  -0.464900
C    -1.927993  2.581800  -1.753405
N    -0.597891  1.953495  -1.552659
H    -3.242078  0.364126  1.472129
H    -2.109207  0.470540  0.116550
H    -3.634001  2.852110  1.326026
H    -4.127567  1.924895  -0.062807
H    -1.621774  3.710449  0.052918
H    -3.144082  4.034884  -0.738714
H    -1.901858  3.345736  -2.547240
H    -2.620002  1.799691  -2.100339
H    -0.333332  1.470813  -2.414994
H    0.097577  2.698099  -1.453722
N    -2.027927  2.949655  3.685834
C    -1.665901  4.154029  2.948493
H    -2.429414  3.082097  4.612825
H    -0.935545  3.925719  2.167576
H    -1.207759  4.870153  3.640082
H    -2.542669  4.624663  2.485379
Ba    1.026384  -3.923587  3.115071
