34
Energy: -243347.001412 eV PBE+vdW (tier 2 basis)
C    -0.249094  -1.105535  -0.037737
C    -0.334866  -0.704481  1.398232
O    0.634247  -0.112260  1.968246
H    0.628130  -1.748859  -0.186473
H    -0.092300  -0.204584  -0.647328
H    -1.142861  -1.626764  -0.395561
N    -1.458540  -0.972925  2.075134
C    -1.731912  -0.507382  3.439222
C    -0.886556  -1.295312  4.465723
O    0.171201  -0.736288  4.908066
H    -2.234916  -1.399085  1.572419
H    -1.307619  0.504036  3.505661
C    -3.257539  -0.407087  3.749119
C    -4.237125  -1.013174  2.734781
C    -5.675846  -0.981869  3.264628
C    -6.702476  -1.530676  2.266742
N    -8.017313  -1.591125  2.894212
H    -3.491257  0.659945  3.854202
H    -3.444164  -0.839963  4.741255
H    -3.985561  -2.063815  2.502059
H    -4.191576  -0.454567  1.784201
H    -5.943498  0.053078  3.533390
H    -5.750092  -1.570090  4.192489
H    -6.419437  -2.557827  1.987079
H    -6.661215  -0.929828  1.334724
H    -8.657155  -2.176036  2.359211
H    -8.446246  -0.667957  2.960126
N    -1.207367  -2.507469  4.895122
C    -2.327075  -3.376165  4.525446
H    -0.571086  -2.871530  5.604522
H    -2.043927  -4.406603  4.759806
H    -2.533627  -3.315080  3.453668
H    -3.232720  -3.124259  5.091246
Ba    2.002054  0.505460  3.875667
