34
Energy: -243347.539144 eV PBE+vdW (tier 2 basis)
C    -0.486188  1.022141  0.225606
C    -0.717979  -0.259564  0.968535
O    0.228319  -1.124766  1.013042
H    -1.364191  1.672221  0.210768
H    -0.166380  0.816168  -0.804163
H    0.343135  1.553836  0.713188
N    -1.898166  -0.443715  1.544308
C    -2.266440  -1.476615  2.519922
C    -1.950738  -2.921011  2.134464
O    -1.688417  -3.286081  0.944826
H    -2.629044  0.340228  1.397116
H    -1.706087  -1.269768  3.448554
C    -3.780190  -1.331656  2.814522
C    -4.114684  -0.021263  3.562284
C    -5.308061  0.752474  2.984208
C    -5.205478  1.065565  1.489819
N    -3.854916  1.574044  1.123912
H    -4.128572  -2.194450  3.392411
H    -4.303861  -1.393558  1.849779
H    -3.231933  0.635771  3.571656
H    -4.314290  -0.246379  4.618214
H    -5.412632  1.690198  3.550541
H    -6.243475  0.198805  3.151373
H    -5.998175  1.777735  1.216601
H    -5.382563  0.163450  0.885773
H    -3.877315  1.875268  0.146406
H    -3.661178  2.425924  1.659501
N    -1.973757  -3.842375  3.101033
C    -2.241504  -3.699819  4.534025
H    -1.876258  -4.797527  2.759493
H    -1.929298  -2.716570  4.897708
H    -1.666155  -4.462391  5.068869
H    -3.306893  -3.846294  4.754368
Ba    0.455537  -3.160334  -0.222801
