34
Energy: -243346.368645 eV PBE+vdW (tier 2 basis)
C    -0.307591  -1.569565  0.325728
C    -0.081838  -0.512622  1.353318
O    1.149413  -0.285417  1.758337
H    0.560946  -1.639923  -0.337286
H    -1.206991  -1.380590  -0.269403
H    -0.429937  -2.544793  0.820744
N    -1.035697  0.198300  1.880128
C    -2.474018  0.296623  1.588693
C    -2.847455  1.571231  2.420615
O    -1.898520  2.272192  2.836592
H    -0.831920  1.048691  2.485426
H    -2.585908  0.581362  0.528651
C    -3.329381  -0.943925  1.861706
C    -3.526275  -1.312463  3.337264
C    -4.798041  -2.142042  3.591380
C    -6.078582  -1.593772  2.947985
N    -6.239522  -0.133810  3.153782
H    -2.944934  -1.801594  1.291573
H    -4.302044  -0.722344  1.401131
H    -3.577515  -0.393788  3.939220
H    -2.654546  -1.867866  3.714269
H    -4.939553  -2.223554  4.679669
H    -4.662558  -3.173143  3.231710
H    -6.934674  -2.169390  3.335004
H    -6.066567  -1.767152  1.861958
H    -7.121330  0.164122  2.730551
H    -6.346701  0.057796  4.153711
N    -4.133572  1.850208  2.595990
C    -4.545237  3.054663  3.314382
H    -4.852898  1.093778  2.533948
H    -4.047537  3.933975  2.892283
H    -4.293336  2.994011  4.382410
H    -5.627772  3.166878  3.204043
Ba    3.211946  0.339413  2.448851
