34
Energy: -243346.103248 eV PBE+vdW (tier 2 basis)
C    0.163321  1.953911  0.826524
C    0.182600  1.081398  2.035402
O    1.167470  1.220372  2.892399
H    0.520200  2.957288  1.084093
H    -0.831704  2.026119  0.376979
H    0.846848  1.540260  0.069708
N    -0.723723  0.179584  2.281771
C    -1.939380  -0.208353  1.557402
C    -2.670979  -1.059708  2.641523
O    -2.061819  -1.328744  3.691551
H    -0.726021  -0.387720  3.171710
H    -2.541180  0.690903  1.352819
C    -1.656413  -0.950402  0.231649
C    -0.756023  -2.191529  0.305488
C    -1.383786  -3.483496  0.856109
C    -2.609613  -3.984940  0.080447
N    -2.342733  -4.038064  -1.357370
H    -1.212782  -0.223303  -0.464098
H    -2.623332  -1.210626  -0.223627
H    0.155281  -1.959318  0.881412
H    -0.424171  -2.389903  -0.721920
H    -1.649585  -3.389499  1.919411
H    -0.605917  -4.262881  0.822115
H    -3.460393  -3.300496  0.229166
H    -2.921921  -4.949619  0.523173
H    -1.670955  -4.774913  -1.577618
H    -3.189777  -4.256072  -1.880855
N    -3.920391  -1.438265  2.364157
C    -4.718552  -2.297193  3.235360
H    -4.317722  -1.172257  1.468927
H    -4.266414  -2.303787  4.230468
H    -4.745772  -3.323459  2.845326
H    -5.740296  -1.908262  3.299525
Ba    2.818385  1.459092  4.432395
