34
Energy: -243346.064074 eV PBE+vdW (tier 2 basis)
C    -0.234804  -1.571282  0.177465
C    -0.081383  -0.991102  1.542499
O    1.017977  -1.253076  2.210708
H    -1.061497  -1.125526  -0.382572
H    -0.420091  -2.652306  0.261216
H    0.697186  -1.441322  -0.385998
N    -0.980660  -0.241095  2.111540
C    -2.272122  0.269230  1.636732
C    -2.530786  1.409031  2.673231
O    -1.779619  1.466776  3.664751
H    -0.827865  0.213981  3.054349
H    -2.148622  0.697592  0.631078
C    -3.380371  -0.808765  1.629745
C    -3.847687  -1.263794  3.011903
C    -4.951469  -2.324231  2.944084
C    -5.667670  -2.506650  4.288626
N    -6.359239  -1.272159  4.674289
H    -3.022088  -1.664381  1.035513
H    -4.233173  -0.404312  1.066999
H    -4.246236  -0.406354  3.576373
H    -2.997434  -1.653914  3.596901
H    -4.545252  -3.291676  2.610068
H    -5.698464  -2.029807  2.187353
H    -4.927937  -2.737297  5.070527
H    -6.334759  -3.384271  4.221683
H    -7.247896  -1.180992  4.181172
H    -6.575408  -1.262863  5.669792
N    -3.534058  2.268763  2.473871
C    -4.499949  2.323906  1.381092
H    -3.652450  2.936974  3.232885
H    -4.050236  1.990487  0.439560
H    -4.812794  3.364285  1.246456
H    -5.389132  1.716141  1.596990
Ba    2.920772  -1.563754  3.412021
