34
Energy: -243347.504745 eV PBE+vdW (tier 2 basis)
C    -0.626396  2.241443  1.169697
C    -0.436000  1.603399  2.503216
O    0.368539  2.083018  3.362991
H    -1.511999  2.895418  1.264453
H    -0.839059  1.509998  0.380469
H    0.242645  2.845842  0.897398
N    -1.181271  0.527990  2.793817
C    -1.447838  0.020877  4.147127
C    -0.374566  -1.008375  4.552490
O    0.790321  -0.589146  4.846170
H    -1.835589  0.230122  2.073566
H    -1.289684  0.867889  4.832372
C    -2.913822  -0.427886  4.253659
C    -3.915736  0.649694  3.804339
C    -3.890508  1.965231  4.591219
C    -4.529485  3.111525  3.795324
N    -3.657630  3.522911  2.670145
H    -3.104689  -0.712308  5.299397
H    -3.083372  -1.329282  3.638208
H    -4.921218  0.210114  3.863054
H    -3.759999  0.882473  2.738689
H    -2.858133  2.271575  4.834886
H    -4.409052  1.840882  5.553331
H    -4.754529  3.948372  4.473755
H    -5.494711  2.776889  3.389674
H    -4.230262  3.827189  1.882597
H    -3.123618  4.348952  2.943503
N    -0.692961  -2.289420  4.590304
C    0.201734  -3.386244  4.956820
H    -1.653353  -2.531764  4.355968
H    -0.238646  -3.955261  5.783959
H    1.166504  -2.977578  5.263771
H    0.339932  -4.054185  4.097773
Ba    2.138290  1.446941  4.875136
