34
Energy: -243347.029221 eV PBE+vdW (tier 2 basis)
C    -0.630746  -0.633176  -0.244228
C    -0.448569  -0.654015  1.236623
O    0.655020  -0.307512  1.768178
H    0.148117  -1.246047  -0.716871
H    -0.491066  0.395446  -0.605333
H    -1.615467  -0.991931  -0.560855
N    -1.470871  -1.037482  2.011056
C    -1.408758  -0.978240  3.474950
C    -0.406555  -2.011472  4.041423
O    0.643060  -1.535974  4.594755
H    -2.358529  -1.287391  1.575928
H    -0.903076  -0.030067  3.710371
C    -2.785457  -0.850395  4.168247
C    -3.891764  -1.899963  3.996830
C    -4.462266  -2.057181  2.582883
C    -5.702254  -2.959177  2.512705
N    -6.083121  -3.170023  1.117891
H    -3.175178  0.128495  3.846102
H    -2.562440  -0.736623  5.239958
H    -4.707683  -1.575745  4.660743
H    -3.577366  -2.872613  4.400607
H    -3.740839  -2.512427  1.877517
H    -4.718555  -1.064550  2.172479
H    -6.497654  -2.525295  3.148101
H    -5.456508  -3.938811  2.950177
H    -6.678860  -3.991334  1.022374
H    -6.622907  -2.382368  0.757904
N    -0.546517  -3.326887  3.962755
C    -1.540945  -4.162758  3.291864
H    0.207730  -3.835062  4.427128
H    -1.018167  -4.872626  2.639401
H    -2.218175  -3.560685  2.686328
H    -2.120667  -4.727668  4.031406
Ba    2.307372  -0.080302  3.544545
