34
Energy: -243347.674446 eV PBE+vdW (tier 2 basis)
C    -0.867850  0.366202  0.519392
C    -1.419078  -0.066527  1.839527
O    -2.241503  -1.032515  1.913984
H    -0.186003  1.219637  0.594481
H    -1.693098  0.621536  -0.157986
H    -0.331735  -0.479460  0.066653
N    -1.020694  0.575841  2.943050
C    -1.395271  0.176653  4.305446
C    -2.863375  0.575630  4.559950
O    -3.771057  -0.322832  4.469719
H    -0.355507  1.337953  2.838892
H    -1.390508  -0.922360  4.301907
C    -0.409154  0.663475  5.411289
C    0.970603  1.209471  4.979579
C    1.155903  2.735631  5.038359
C    0.282297  3.628743  4.153890
N    -1.103539  3.801349  4.674899
H    -0.260650  -0.201870  6.068036
H    -0.912240  1.412527  6.032180
H    1.261898  0.829585  3.986266
H    1.720127  0.773861  5.653106
H    2.202599  2.947665  4.777574
H    1.050119  3.069925  6.083902
H    0.211857  3.232181  3.125246
H    0.779767  4.605240  4.050828
H    -1.036769  4.202953  5.615571
H    -1.567818  4.526683  4.120459
N    -3.119365  1.834878  4.822811
C    -4.464021  2.350936  5.061349
H    -2.307770  2.536893  4.796259
H    -5.009200  2.488400  4.117207
H    -4.380701  3.320482  5.561479
H    -5.029009  1.664276  5.700666
Ba    -4.165256  -2.134044  2.922028
