34
Energy: -243347.734361 eV PBE+vdW (tier 2 basis)
C    0.432324  -0.621602  0.192937
C    0.185462  -0.670477  1.669062
O    1.045389  -1.192325  2.441576
H    0.497913  -1.653474  -0.180896
H    1.402713  -0.149057  -0.004365
H    -0.346378  -0.092742  -0.366227
N    -0.966292  -0.161935  2.126806
C    -1.550749  -0.223229  3.484143
C    -0.871275  0.761438  4.449355
O    0.388690  0.702264  4.663246
H    -1.570686  0.246159  1.419653
H    -2.574574  0.137634  3.334496
C    -1.650413  -1.658597  4.065397
C    -2.971068  -1.946405  4.801858
C    -3.210520  -1.193770  6.135516
C    -4.412344  -0.242412  6.167433
N    -4.335607  0.866387  5.169117
H    -0.800221  -1.862304  4.737093
H    -1.557262  -2.365543  3.229842
H    -2.996090  -3.027597  4.990506
H    -3.802316  -1.767157  4.100721
H    -2.303672  -0.649597  6.441439
H    -3.381170  -1.930021  6.932576
H    -4.465530  0.216732  7.162888
H    -5.342178  -0.817222  6.038558
H    -4.767688  0.570010  4.290997
H    -4.924252  1.639402  5.488134
N    -1.659084  1.615248  5.059420
C    -1.185604  2.563863  6.061765
H    -2.721455  1.441143  4.993327
H    -0.314115  3.113473  5.690039
H    -0.908699  2.050276  6.993339
H    -1.991226  3.272597  6.274216
Ba    2.351975  -0.658158  4.400030
