34
Energy: -243347.670948 eV PBE+vdW (tier 2 basis)
C    0.496101  1.448384  -0.334718
C    0.448564  0.917553  1.064345
O    1.424974  1.110198  1.851773
H    1.326387  0.957937  -0.862984
H    0.720312  2.522260  -0.315939
H    -0.427453  1.282973  -0.899042
N    -0.641048  0.233360  1.436996
C    -0.892127  -0.543479  2.665962
C    -1.113720  0.308408  3.919479
O    -0.271142  1.183939  4.313896
H    -1.364968  0.157369  0.728536
H    -1.860006  -1.019950  2.472716
C    0.130821  -1.692163  2.900306
C    -0.421743  -3.054057  2.427629
C    -1.075680  -3.943435  3.506374
C    -2.060472  -3.326183  4.503066
N    -3.183411  -2.567582  3.885649
H    0.393010  -1.741128  3.968605
H    1.059585  -1.454671  2.366529
H    0.396219  -3.638325  1.985653
H    -1.123328  -2.878981  1.596149
H    -0.278378  -4.400605  4.111752
H    -1.565760  -4.784008  2.991711
H    -1.527775  -2.638451  5.182135
H    -2.437608  -4.140646  5.138394
H    -3.448379  -2.993995  2.994427
H    -4.017349  -2.661642  4.470289
N    -2.208262  0.006108  4.584246
C    -2.599734  0.599838  5.856398
H    -2.745910  -0.837311  4.225654
H    -3.691134  0.684749  5.886301
H    -2.156773  1.594023  5.960674
H    -2.273196  -0.030967  6.695024
Ba    1.969383  2.003478  4.026012
