34
Energy: -243346.933617 eV PBE+vdW (tier 2 basis)
C    0.767790  -1.114053  0.935451
C    0.177388  0.214854  1.273931
O    0.308401  1.208846  0.493488
H    0.696827  -1.836889  1.753400
H    1.824692  -0.953965  0.679908
H    0.292371  -1.527610  0.034317
N    -0.525152  0.367707  2.416795
C    -1.490172  -0.623147  2.908511
C    -2.508835  -0.844774  1.777690
O    -2.714710  0.091508  0.924319
H    -0.754293  1.337552  2.639818
H    -0.967550  -1.561018  3.199260
C    -2.161037  -0.044424  4.180990
C    -2.818435  -1.023659  5.166652
C    -1.878411  -1.790950  6.119599
C    -1.261442  -3.107549  5.647507
N    -0.258028  -2.938638  4.566040
H    -2.900574  0.712911  3.872794
H    -1.366115  0.496288  4.718973
H    -3.497261  -1.717068  4.648568
H    -3.479776  -0.407024  5.791542
H    -2.457137  -2.031555  7.022873
H    -1.079476  -1.113794  6.467484
H    -2.052734  -3.774623  5.272327
H    -0.828177  -3.613367  6.525381
H    0.542097  -2.422477  4.942849
H    0.121206  -3.856337  4.319901
N    -3.181419  -1.978604  1.664726
C    -3.014544  -3.235729  2.395747
H    -3.885121  -1.976686  0.925689
H    -2.108533  -3.200339  3.006763
H    -2.927414  -4.051784  1.668634
H    -3.886756  -3.424831  3.032587
Ba    -1.856511  1.910803  -0.479394
