34
Energy: -243347.275197 eV PBE+vdW (tier 2 basis)
C    2.089246  1.354344  0.755712
C    1.291489  0.955997  1.962604
O    1.822114  0.477924  2.978599
H    2.921796  1.993413  1.072955
H    1.504943  1.867503  -0.015717
H    2.531293  0.447476  0.320025
N    -0.064006  1.154588  1.899994
C    -1.066046  0.612549  2.818127
C    -1.007438  1.115656  4.272726
O    -2.124351  1.262452  4.903152
H    -0.427729  1.580823  1.054544
H    -2.027628  0.996350  2.448602
C    -1.134218  -0.942784  2.776090
C    -2.227806  -1.487423  3.694696
C    -2.601064  -2.964802  3.594546
C    -3.466126  -3.405491  4.776176
N    -4.650525  -2.499263  4.994020
H    -0.158299  -1.364192  3.052248
H    -1.332402  -1.233734  1.734978
H    -3.144515  -0.896837  3.479961
H    -1.916802  -1.293124  4.741822
H    -1.696991  -3.590246  3.586872
H    -3.116158  -3.161365  2.641817
H    -2.871024  -3.385991  5.702030
H    -3.798168  -4.443179  4.633031
H    -5.229783  -2.537481  4.146494
H    -5.242565  -2.946041  5.703020
N    0.157933  1.312816  4.834328
C    0.369184  1.797391  6.192017
H    0.980385  1.015871  4.230502
H    1.275781  2.410845  6.205910
H    0.513746  0.957348  6.885684
H    -0.482432  2.402450  6.517646
Ba    -4.079718  0.188808  5.745620
