34
Energy: -243347.286278 eV PBE+vdW (tier 2 basis)
C    -0.290633  0.521313  -0.040917
C    -0.018224  0.225186  1.400020
O    1.162552  0.306513  1.854458
H    0.091028  1.520425  -0.287624
H    -1.350748  0.464770  -0.308387
H    0.270803  -0.195950  -0.656303
N    -1.054661  -0.124038  2.174846
C    -1.056785  -0.628237  3.565641
C    -0.723746  0.469397  4.587835
O    0.453482  0.928384  4.700548
H    -1.953188  -0.169623  1.702629
H    -2.099606  -0.928413  3.732239
C    -0.196932  -1.888647  3.785677
C    -0.560875  -3.063091  2.866557
C    -2.030835  -3.488292  2.939686
C    -2.305458  -4.845226  2.271867
N    -3.723957  -5.173675  2.368838
H    -0.336869  -2.182392  4.837777
H    0.873405  -1.651543  3.670733
H    0.078176  -3.909603  3.160344
H    -0.280392  -2.830114  1.826870
H    -2.683265  -2.737117  2.458533
H    -2.363767  -3.559417  3.987921
H    -1.734310  -5.618206  2.806277
H    -1.912434  -4.830244  1.236136
H    -4.257045  -4.799795  1.584841
H    -3.874488  -6.180522  2.373352
N    -1.711301  0.874749  5.373650
C    -1.595838  1.860060  6.448208
H    -2.629844  0.464540  5.223786
H    -0.539880  2.061034  6.641127
H    -2.067220  1.462215  7.353800
H    -2.101461  2.790573  6.160810
Ba    2.651321  0.910985  3.648223
