34
Energy: -243347.459297 eV PBE+vdW (tier 2 basis)
C    -0.367631  0.451842  -0.091195
C    -0.333615  0.380475  1.400371
O    0.734949  0.628595  2.039476
H    0.404001  -0.209407  -0.506615
H    -0.112800  1.475194  -0.400773
H    -1.339930  0.183399  -0.516774
N    -1.457090  0.059209  2.057088
C    -1.603954  0.092321  3.520495
C    -0.860864  -1.101572  4.164312
O    0.296584  -0.870300  4.657796
H    -2.298721  -0.099523  1.508027
H    -1.035767  0.966011  3.874284
C    -3.071387  0.297161  3.916187
C    -3.283844  0.322071  5.433526
C    -4.751533  0.511143  5.846737
C    -5.728726  -0.540568  5.310425
N    -5.250648  -1.914960  5.561379
H    -3.699562  -0.479585  3.460339
H    -3.389321  1.256103  3.477584
H    -2.686442  1.135658  5.874519
H    -2.910276  -0.614521  5.874460
H    -5.106886  1.504220  5.532621
H    -4.791441  0.515440  6.946751
H    -5.854525  -0.428665  4.222169
H    -6.719982  -0.338482  5.749813
H    -5.947677  -2.581041  5.222657
H    -5.194572  -2.080324  6.569560
N    -1.349754  -2.329019  4.196839
C    -2.629609  -2.858630  3.710161
H    -0.742338  -2.993727  4.676144
H    -2.827541  -2.514290  2.689241
H    -3.464639  -2.576011  4.382585
H    -2.541713  -3.948678  3.684262
Ba    2.248660  0.370662  3.925122
