34
Energy: -243348.270542 eV PBE+vdW (tier 2 basis)
C    -0.629835  0.489079  0.017351
C    -0.780790  0.112603  1.459448
O    0.083015  -0.607298  2.028950
H    -0.562067  -0.425841  -0.585846
H    0.319112  1.027223  -0.110997
H    -1.446248  1.110197  -0.365184
N    -1.863053  0.579611  2.112064
C    -2.243976  0.378333  3.526265
C    -1.051474  0.602691  4.483518
O    -0.372809  -0.360023  4.934949
H    -2.508769  1.136357  1.559714
H    -2.947018  1.197874  3.729154
C    -2.999812  -0.940068  3.831971
C    -2.651120  -2.184220  2.999505
C    -3.056998  -3.500740  3.675657
C    -2.177717  -3.942663  4.843825
N    -0.787151  -4.306365  4.401106
H    -4.073735  -0.746128  3.706521
H    -2.859918  -1.139056  4.904022
H    -1.580227  -2.214120  2.742434
H    -3.147825  -2.115535  2.021906
H    -3.082492  -4.305078  2.923446
H    -4.090507  -3.419549  4.043903
H    -2.651154  -4.799758  5.343081
H    -2.086301  -3.148441  5.600137
H    -0.875574  -4.991371  3.641525
H    -0.359699  -4.847875  5.160644
N    -0.816680  1.859838  4.846119
C    0.236301  2.279354  5.770107
H    -1.414336  2.586375  4.461598
H    -0.117798  3.142855  6.341586
H    1.144469  2.563704  5.222348
H    0.462677  1.458881  6.456468
Ba    0.914505  -2.148842  3.802706
