34
Energy: -243347.193109 eV PBE+vdW (tier 2 basis)
C    1.018520  -0.402477  2.332177
C    -0.078525  0.621448  2.307199
O    0.100192  1.686228  3.079834
H    0.792860  -1.235826  1.661907
H    1.156658  -0.785680  3.352637
H    1.968724  0.062903  2.036232
N    -1.112151  0.414268  1.547851
C    -2.148298  1.438673  1.471244
C    -2.984025  1.416694  2.755866
O    -2.809779  2.289899  3.661952
H    -3.183315  1.394549  -3.677645
H    -1.715450  2.458805  1.442944
C    -2.978026  1.192966  0.189926
C    -2.101486  1.175555  -1.074012
C    -1.770348  2.553124  -1.672410
C    -2.864725  3.160783  -2.542496
N    -3.003896  2.393494  -3.855068
H    -3.790656  1.934218  0.121377
H    -3.459243  0.207205  0.265315
H    -2.578335  0.525973  -1.829690
H    -1.167843  0.655450  -0.816751
H    -0.834491  2.507894  -2.252996
H    -1.570076  3.280653  -0.871829
H    -2.649288  4.197689  -2.825770
H    -3.853940  3.125396  -2.068787
H    -3.775037  2.755231  -4.432622
H    -2.139860  2.455034  -4.411998
N    -3.847942  0.419486  2.925005
C    -4.634994  0.197989  4.133589
H    -3.875817  -0.295599  2.204347
H    -5.550020  -0.340471  3.868888
H    -4.899305  1.161767  4.578023
H    -4.073804  -0.397415  4.867095
Ba    -0.706283  3.125093  4.660663
