34
Energy: -243346.644455 eV PBE+vdW (tier 2 basis)
C    -1.851723  1.224420  1.803174
C    -2.681571  0.930320  3.010329
O    -2.893947  1.854622  3.860996
H    -2.169107  0.657182  0.923919
H    -0.793106  0.990556  1.995630
H    -1.920732  2.298730  1.600459
N    -3.248489  -0.279023  3.235753
C    -2.598648  -1.596118  3.143066
C    -1.629647  -1.708938  4.344805
O    -1.247655  -0.659350  4.967447
H    -3.935545  -0.230778  3.988716
H    -3.408905  -2.326237  3.291964
C    -1.926022  -1.940671  1.798740
C    -2.924041  -2.010576  0.641283
C    -2.265029  -2.357021  -0.696509
C    -3.303246  -2.784061  -1.746102
N    -4.003123  -3.996141  -1.307049
H    -1.454366  -2.926269  1.914037
H    -1.095508  -1.251345  1.593448
H    -3.481361  -1.063889  0.549231
H    -3.675363  -2.789184  0.852914
H    -1.550169  -3.185014  -0.554078
H    -1.680056  -1.506517  -1.080731
H    -2.797461  -2.887888  -2.721423
H    -4.048743  -1.983749  -1.867087
H    -4.902210  -4.088665  -1.777270
H    -3.467977  -4.830831  -1.547869
N    -1.199770  -2.898180  4.739247
C    -1.537554  -4.230174  4.228509
H    -0.528530  -2.870859  5.506760
H    -2.505553  -4.224711  3.719924
H    -1.596782  -4.918648  5.078045
H    -0.763895  -4.587662  3.537246
Ba    -1.552030  1.606830  5.894907
