34
Energy: -243347.247543 eV PBE+vdW (tier 2 basis)
C    1.191847  2.749642  2.159857
C    0.122014  2.209303  3.052691
O    -0.577855  2.990514  3.769506
H    0.722517  3.405645  1.412636
H    1.758911  1.970439  1.640256
H    1.881844  3.372577  2.743055
N    -0.087922  0.887587  3.066651
C    -1.198224  0.185727  3.727815
C    -0.904049  0.003930  5.234815
O    -1.052136  1.002847  6.008568
H    0.502114  0.313424  2.467786
H    -2.059175  0.872170  3.709509
C    -1.586802  -1.075260  2.927677
C    -0.472393  -2.033683  2.473669
C    -1.045855  -3.242909  1.725158
C    0.031176  -4.206485  1.212553
N    -0.587406  -5.276386  0.440876
H    -2.119659  -0.726074  2.031154
H    -2.340945  -1.621911  3.514184
H    0.154123  -2.394738  3.310286
H    0.231327  -1.518829  1.794544
H    -1.644195  -2.904205  0.866097
H    -1.739756  -3.786936  2.387549
H    0.650613  -4.551003  2.067985
H    0.710301  -3.659320  0.540349
H    -1.024650  -5.975329  1.041086
H    0.096153  -5.764390  -0.135173
N    -0.531911  -1.181532  5.681242
C    -0.240955  -1.521011  7.073131
H    -0.436716  -1.922287  4.988395
H    -0.806272  -2.417496  7.352015
H    -0.531404  -0.688541  7.717234
H    0.830868  -1.723313  7.192856
Ba    -1.440534  3.413836  5.983988
