34
Energy: -243347.144801 eV PBE+vdW (tier 2 basis)
C    0.364366  0.427349  0.034584
C    0.099969  0.440288  1.503040
O    1.040715  0.627700  2.338918
H    1.122276  -0.334151  -0.192657
H    0.787901  1.397535  -0.260251
H    -0.532637  0.234331  -0.562608
N    -1.151343  0.256219  1.945702
C    -1.478460  0.376426  3.369766
C    -0.818098  -0.741198  4.204088
O    0.014263  -0.361021  5.101114
H    -1.909132  0.146646  1.275370
H    -0.941992  1.273153  3.715093
C    -2.960746  0.687384  3.672114
C    -4.065150  -0.350565  3.454491
C    -4.446016  -0.682560  2.008752
C    -5.533055  -1.768277  1.943166
N    -5.043866  -3.051860  2.487527
H    -3.189638  1.607239  3.108805
H    -2.972868  0.987568  4.730927
H    -4.959538  0.059838  3.948367
H    -3.842154  -1.275137  4.005203
H    -3.581434  -1.052493  1.427765
H    -4.808256  0.223637  1.497252
H    -6.407522  -1.426184  2.515769
H    -5.872216  -1.877782  0.903472
H    -5.688669  -3.421020  3.184157
H    -4.997084  -3.757249  1.753685
N    -1.028936  -2.037300  4.027018
C    -1.767634  -2.771228  2.993907
H    -0.547242  -2.613178  4.717963
H    -1.303247  -3.758289  2.901872
H    -1.681376  -2.261081  2.031263
H    -2.838015  -2.901516  3.225779
Ba    2.099555  0.773436  4.546063
