34
Energy: -243346.853573 eV PBE+vdW (tier 2 basis)
C    -2.540049  -3.737475  0.586253
C    -1.483526  -2.855707  1.169464
O    -0.269264  -3.226104  1.204785
H    -2.643288  -3.546603  -0.494064
H    -3.519369  -3.586731  1.053006
H    -2.229749  -4.781178  0.705030
N    -1.807273  -1.633268  1.644478
C    -2.752015  -0.733501  0.987054
C    -2.166125  -0.379638  -0.410035
O    -0.965655  -0.695009  -0.706900
H    -1.057011  -1.165515  2.154162
H    -3.703240  -1.263614  0.829519
C    -3.019994  0.487484  1.896144
C    -4.067784  1.476740  1.378740
C    -4.653223  2.370149  2.478947
C    -5.803805  3.237903  1.951394
N    -6.859680  2.399145  1.367357
H    -2.067422  1.005926  2.098389
H    -3.358698  0.067375  2.855314
H    -4.926520  0.944685  0.929707
H    -3.636639  2.124665  0.598273
H    -3.875488  3.017306  2.911831
H    -5.025620  1.735428  3.300104
H    -5.425143  3.902567  1.159952
H    -6.151980  3.893701  2.767772
H    -7.482065  2.961293  0.787731
H    -7.447029  2.001214  2.101926
N    -2.967621  0.238079  -1.258098
C    -2.619263  0.704054  -2.598936
H    -3.898755  0.476817  -0.915676
H    -1.626815  0.336429  -2.866531
H    -2.621868  1.801027  -2.624232
H    -3.358027  0.330185  -3.317068
Ba    1.130358  -1.953958  -0.376710
