34
Energy: -243347.256221 eV PBE+vdW (tier 2 basis)
C    0.914320  3.208466  2.264542
C    -0.086590  2.443570  3.069847
O    -0.803947  3.032844  3.937016
H    0.375584  3.947239  1.653671
H    1.516279  2.575862  1.604050
H    1.578406  3.770690  2.932920
N    -0.213999  1.131340  2.841275
C    -1.256417  0.237022  3.370752
C    -0.910400  -0.221775  4.807528
O    -0.976911  0.626117  5.754616
H    0.395614  0.722396  2.136060
H    -2.163871  0.848682  3.498286
C    -1.552411  -0.875434  2.350516
C    -0.325317  -1.602792  1.749759
C    -0.625241  -3.051175  1.328180
C    -0.751930  -4.002939  2.536343
N    -0.984311  -5.408047  2.279494
H    -2.138004  -0.429361  1.535071
H    -2.236503  -1.588514  2.832674
H    0.522183  -1.623185  2.460536
H    0.036733  -1.043466  0.873258
H    0.187437  -3.409036  0.680339
H    -1.543678  -3.087225  0.721681
H    -1.577001  -3.663254  3.192979
H    0.179764  -3.926233  3.131343
H    -0.238642  -5.828308  1.726104
H    -1.866643  -5.575885  1.798144
N    -0.592094  -1.480316  5.040210
C    -0.289863  -2.026763  6.364592
H    -0.570109  -2.128960  4.254226
H    0.642823  -1.599983  6.753034
H    -0.179470  -3.110148  6.269878
H    -1.105503  -1.805268  7.062244
Ba    -1.468290  2.960838  6.256832
