34
Energy: -243347.370004 eV PBE+vdW (tier 2 basis)
C    -0.383479  -0.364856  -0.639617
C    -0.433776  0.140811  0.764205
O    0.556378  0.010285  1.537129
H    0.496291  0.103637  -1.107181
H    -1.263933  -0.103771  -1.230959
H    -0.203349  -1.446986  -0.668162
N    -1.515023  0.839812  1.226775
C    -2.932676  0.431119  1.297464
C    -3.263473  0.467239  2.811973
O    -2.360545  0.168935  3.650561
H    -1.250832  1.366119  2.059160
H    -3.557080  1.148636  0.749438
C    -3.229434  -1.006021  0.779419
C    -2.521923  -2.076950  1.614751
C    -2.249528  -3.456609  1.027141
C    -1.425637  -4.297647  2.007994
N    -0.146210  -3.620219  2.428761
H    -2.946615  -1.070523  -0.278399
H    -4.317482  -1.152851  0.801188
H    -3.036564  -2.195109  2.581893
H    -1.520385  -1.676946  1.830543
H    -1.721955  -3.369976  0.063804
H    -3.184535  -3.993858  0.815199
H    -1.209270  -5.278429  1.561967
H    -2.006977  -4.482670  2.922762
H    0.442049  -3.519955  1.592641
H    0.368594  -4.301328  2.997349
N    -4.496147  0.766174  3.200489
C    -5.633510  1.188854  2.373500
H    -4.645597  0.720689  4.207783
H    -6.444884  1.482328  3.044779
H    -5.994233  0.372355  1.736594
H    -5.372562  2.056444  1.756080
Ba    -0.076232  -1.054029  3.791956
