34
Energy: -243348.165612 eV PBE+vdW (tier 2 basis)
C    -1.350488  -0.569214  -0.030751
C    -1.073079  -0.216254  1.401263
O    -0.040905  0.440163  1.695864
H    -1.400946  0.354575  -0.622065
H    -2.274359  -1.137620  -0.179613
H    -0.505440  -1.152962  -0.419805
N    -1.968933  -0.641988  2.312009
C    -2.074970  -0.547349  3.788336
C    -1.926809  0.871980  4.353706
O    -0.851373  1.528271  4.265751
H    -2.737027  -1.167250  1.904726
H    -3.121486  -0.828331  3.949334
C    -1.283839  -1.603987  4.617069
C    0.200329  -1.418798  4.965099
C    1.208074  -1.756858  3.860626
C    2.667466  -1.512001  4.247642
N    2.938520  -0.073841  4.593313
H    -1.433201  -2.570161  4.110868
H    -1.838446  -1.684658  5.564343
H    0.402359  -2.082720  5.819940
H    0.354036  -0.401520  5.360862
H    0.979936  -1.214480  2.929665
H    1.110361  -2.821043  3.597970
H    3.315729  -1.773440  3.402104
H    2.957108  -2.164449  5.084827
H    2.743762  0.057863  5.591021
H    3.949655  0.076529  4.526898
N    -2.959332  1.384964  5.022324
C    -4.292147  0.818693  5.259096
H    -2.772596  2.300993  5.428613
H    -4.818608  0.626448  4.316388
H    -4.872148  1.554936  5.822452
H    -4.239307  -0.098997  5.857983
Ba    1.365057  1.795290  3.176161
