34
Energy: -243347.404689 eV PBE+vdW (tier 2 basis)
C    -0.494101  2.113972  1.912978
C    -0.769286  0.656984  2.111264
O    0.145539  -0.196283  1.908191
H    -1.343298  2.759481  2.159469
H    -0.216057  2.276865  0.862083
H    0.371222  2.407518  2.521198
N    -2.000558  0.298538  2.503593
C    -2.586213  -1.056737  2.622794
C    -2.015647  -1.829928  3.821708
O    -0.845993  -2.318277  3.788644
H    -2.655950  1.064659  2.628000
H    -3.647911  -0.866452  2.828536
C    -2.522140  -1.891932  1.332294
C    -3.241714  -1.263304  0.133185
C    -4.753393  -1.045233  0.314686
C    -5.531926  -2.270885  0.815948
N    -5.131455  -3.485409  0.098239
H    -2.970729  -2.875672  1.540109
H    -1.473532  -2.080847  1.049398
H    -3.080629  -1.944993  -0.711879
H    -2.764357  -0.311394  -0.146062
H    -5.157988  -0.731659  -0.659302
H    -4.960153  -0.196716  0.988689
H    -6.610534  -2.039321  0.758813
H    -5.324649  -2.444392  1.887184
H    -5.387469  -3.416589  -0.888825
H    -5.639122  -4.294133  0.457813
N    -2.815425  -1.999993  4.865536
C    -2.484148  -2.748239  6.077623
H    -3.738822  -1.576510  4.823959
H    -3.310904  -3.424720  6.320835
H    -2.327689  -2.057744  6.916015
H    -1.574254  -3.327260  5.905506
Ba    1.183456  -2.305726  2.436747
