34
Energy: -243347.61334 eV PBE+vdW (tier 2 basis)
C    -1.121286  0.074129  0.116120
C    -0.881086  0.181215  1.587904
O    0.250967  0.609315  2.010662
H    -2.085602  -0.382067  -0.122371
H    -0.319259  -0.521010  -0.339353
H    -1.069445  1.075628  -0.333146
N    -1.848772  -0.166662  2.431623
C    -1.667206  0.017416  3.874764
C    -0.525854  -0.860234  4.439556
O    0.503278  -0.251778  4.888428
H    -2.851670  -0.344400  2.023066
H    -1.256155  1.028693  4.023224
C    -2.984588  -0.018140  4.690414
C    -4.088008  -1.032987  4.309162
C    -5.371981  -0.393151  3.758404
C    -5.192394  0.441641  2.491168
N    -4.423741  -0.300895  1.455646
H    -3.398839  0.998397  4.633143
H    -2.697936  -0.144395  5.743523
H    -4.354186  -1.624310  5.194542
H    -3.718246  -1.759537  3.576305
H    -5.835683  0.244472  4.525407
H    -6.098746  -1.196723  3.562173
H    -4.634050  1.366879  2.704421
H    -6.179636  0.754052  2.121005
H    -4.875273  -1.201551  1.271518
H    -4.475159  0.210564  0.571267
N    -0.544187  -2.186628  4.485423
C    -1.535356  -3.153535  4.014505
H    0.274068  -2.580093  4.949784
H    -1.015774  -4.096642  3.818382
H    -1.993717  -2.812199  3.082820
H    -2.308761  -3.330914  4.770899
Ba    1.987447  1.173967  3.571343
