34
Energy: -243346.052032 eV PBE+vdW (tier 2 basis)
C    0.501463  2.031192  0.575705
C    -0.100955  1.276950  1.711886
O    0.663228  0.975026  2.735034
H    1.238224  1.393217  0.066660
H    1.037976  2.907975  0.960257
H    -0.239260  2.357704  -0.159038
N    -1.347637  0.900225  1.742877
C    -2.453601  1.071913  0.793176
C    -3.678804  0.841589  1.732842
O    -3.485301  0.194954  2.777091
H    -1.761939  0.395469  2.569716
H    -2.458661  2.096693  0.394921
C    -2.340906  0.040593  -0.360181
C    -3.529268  0.019727  -1.336988
C    -4.668323  -0.923021  -0.916319
C    -6.026804  -0.545898  -1.511020
N    -7.107848  -1.199819  -0.770399
H    -2.202703  -0.957545  0.082764
H    -1.413183  0.274340  -0.903494
H    -3.153387  -0.269789  -2.327643
H    -3.913073  1.045912  -1.476228
H    -4.779365  -0.940590  0.177088
H    -4.406461  -1.953845  -1.202037
H    -6.029068  -0.754130  -2.598186
H    -6.177296  0.542948  -1.412682
H    -8.018952  -0.940595  -1.149406
H    -7.044058  -2.216364  -0.844554
N    -4.847096  1.361614  1.351404
C    -6.121402  1.070743  2.009362
H    -4.882606  1.844144  0.458976
H    -6.714586  1.989090  2.074656
H    -5.916852  0.695287  3.015271
H    -6.675246  0.309746  1.437832
Ba    1.907234  0.451445  4.564796
