34
Energy: -243347.317237 eV PBE+vdW (tier 2 basis)
C    -0.680923  -0.865789  -0.537001
C    -0.578034  -0.551998  0.922292
O    0.512942  -0.740527  1.537689
H    -1.656929  -0.625703  -0.971059
H    -0.481782  -1.937379  -0.678832
H    0.100493  -0.320932  -1.082427
N    -1.669899  -0.073889  1.538599
C    -1.898766  0.167738  2.981356
C    -1.106442  1.376928  3.493681
O    0.144434  1.292848  3.699351
H    -2.491592  0.022357  0.949270
H    -2.963649  0.417693  3.038796
C    -1.678951  -1.064343  3.876650
C    -2.609184  -2.241883  3.563022
C    -4.110109  -1.960945  3.748936
C    -4.492779  -1.334766  5.098220
N    -3.818305  -2.012300  6.209497
H    -1.832441  -0.759624  4.923499
H    -0.635896  -1.412528  3.802522
H    -2.314067  -3.054471  4.239363
H    -2.429023  -2.612662  2.542173
H    -4.639561  -2.918189  3.630615
H    -4.504312  -1.322595  2.940165
H    -5.595114  -1.320851  5.170240
H    -4.182285  -0.274629  5.129427
H    -4.066048  -1.574069  7.096962
H    -4.136129  -2.980882  6.282189
N    -1.744883  2.507182  3.766348
C    -3.170380  2.820910  3.608746
H    -1.151692  3.243950  4.148042
H    -3.495741  2.684586  2.570935
H    -3.311737  3.873052  3.870506
H    -3.788669  2.214987  4.282638
Ba    2.063042  -0.145355  3.289397
