34
Energy: -243346.646321 eV PBE+vdW (tier 2 basis)
C    1.195054  2.448344  0.545211
C    1.048206  2.516293  2.030734
O    1.806534  3.255422  2.730587
H    0.895018  1.477717  0.135963
H    2.239862  2.651704  0.286502
H    0.581951  3.228292  0.065688
N    0.081114  1.805060  2.650840
C    -1.277726  1.657457  2.137661
C    -1.907543  3.072498  2.057116
O    -1.327607  4.061071  2.619956
H    0.143433  1.806215  3.669671
H    -1.235575  1.231633  1.124689
C    -2.085924  0.707691  3.050862
C    -2.319177  1.221787  4.477724
C    -3.112900  0.248176  5.361154
C    -4.574613  0.046809  4.940250
N    -5.281584  -0.701882  5.970523
H    -1.548011  -0.251933  3.069729
H    -3.049101  0.500968  2.569604
H    -2.849953  2.189998  4.445174
H    -1.353626  1.412592  4.982650
H    -3.115680  0.622071  6.394388
H    -2.595758  -0.724953  5.390306
H    -4.621483  -0.415621  3.930325
H    -5.059669  1.033599  4.856023
H    -6.288839  -0.692885  5.818074
H    -4.991721  -1.679673  5.995516
N    -3.047261  3.256611  1.409836
C    -3.866618  2.286410  0.677985
H    -3.408834  4.209558  1.452706
H    -3.253980  1.468264  0.288567
H    -4.332947  2.800305  -0.168672
H    -4.655492  1.878998  1.323204
Ba    0.593251  5.173726  3.702593
