34
Energy: -243347.21754 eV PBE+vdW (tier 2 basis)
C    -2.024963  -1.334947  -0.543127
C    -0.991853  -1.805051  0.433275
O    -0.953249  -3.015588  0.805479
H    -2.571620  -2.196125  -0.936086
H    -1.562483  -0.784793  -1.371276
H    -2.738297  -0.653257  -0.054303
N    -0.094520  -0.929332  0.943715
C    -0.442411  0.431526  1.403548
C    -1.701312  0.338658  2.315120
O    -1.889247  -0.811082  2.916513
H    0.634425  -1.386022  1.488108
H    0.390484  0.696975  2.074133
C    -0.496668  1.500784  0.300608
C    -0.029178  2.876978  0.814954
C    -0.657254  4.082642  0.103719
C    -2.181665  4.144062  0.170798
N    -2.682225  3.904907  1.572375
H    0.149220  1.179596  -0.526618
H    -1.516382  1.552981  -0.103497
H    1.062864  2.948110  0.719388
H    -0.223085  2.951376  1.896929
H    -0.380123  4.095085  -0.960506
H    -0.236006  5.005227  0.530748
H    -2.658625  3.378091  -0.453284
H    -2.548214  5.120369  -0.167698
H    -2.227308  4.542296  2.236384
H    -3.689374  4.090037  1.627698
N    -2.473186  1.371051  2.460397
C    -3.592966  1.234605  3.394456
H    -2.501396  2.833336  1.904373
H    -4.107627  2.197900  3.494616
H    -3.257367  0.925017  4.394017
H    -4.329439  0.497698  3.040725
Ba    -1.811867  -3.164739  3.151136
