34
Energy: -243345.938484 eV PBE+vdW (tier 2 basis)
C    -0.877501  1.064330  0.327059
C    -0.543920  0.801272  1.765377
O    0.636317  0.746660  2.160757
H    -0.284265  1.913033  -0.031876
H    -1.941267  1.253582  0.146536
H    -0.572027  0.187662  -0.261862
N    -1.594592  0.633139  2.624472
C    -1.539042  0.034525  3.966562
C    -0.745235  0.843906  4.991102
O    -1.227648  0.971617  6.196184
H    -2.521273  0.688644  2.216263
H    -2.576684  0.042298  4.327046
C    -1.035295  -1.432901  3.972548
C    -1.937726  -2.378795  3.171688
C    -1.490417  -3.845631  3.236639
C    -0.198446  -4.153546  2.470838
N    0.165063  -5.551806  2.638753
H    -0.988617  -1.770967  5.021114
H    -0.004553  -1.451937  3.593022
H    -1.973095  -2.054451  2.119578
H    -2.969196  -2.302157  3.552767
H    -2.299816  -4.468587  2.825815
H    -1.365289  -4.163782  4.283613
H    0.636166  -3.551448  2.862574
H    -0.330795  -3.849363  1.410981
H    -0.509348  -6.190496  2.218742
H    1.087925  -5.769124  2.268327
N    0.420278  1.323830  4.661298
C    1.304467  2.063792  5.548909
H    0.696523  1.105768  3.634037
H    2.178427  2.386608  4.976547
H    1.649588  1.429912  6.378150
H    0.803615  2.956608  5.948367
Ba    -1.928190  1.247517  8.356261
