34
Energy: -243347.39776 eV PBE+vdW (tier 2 basis)
C    0.206739  1.682315  1.269414
C    -0.788231  0.570898  1.156273
O    -1.315636  0.301541  0.035515
H    -0.287536  2.622598  0.986626
H    1.019041  1.519329  0.549398
H    0.631004  1.793013  2.272559
N    -1.094268  -0.111788  2.269364
C    -2.134011  -1.144179  2.486471
C    -1.780134  -2.474923  1.798999
O    -1.861402  -2.600121  0.539463
H    -0.609650  0.191613  3.109442
H    -2.111195  -1.318452  3.570966
C    -3.565124  -0.688902  2.151076
C    -4.613232  -1.712620  2.590741
C    -6.054965  -1.225465  2.418462
C    -7.061248  -2.153348  3.116217
N    -6.770697  -2.234368  4.551369
H    -3.664048  -0.460185  1.075918
H    -3.731388  0.268290  2.667233
H    -4.478943  -1.949958  3.659155
H    -4.479082  -2.661355  2.042318
H    -6.319745  -1.137855  1.352034
H    -6.150748  -0.212901  2.844885
H    -6.974179  -3.167026  2.695770
H    -8.082454  -1.805742  2.881317
H    -7.151079  -1.425250  5.043951
H    -7.216116  -3.052152  4.965310
N    -1.428646  -3.482109  2.584229
C    -1.105630  -4.837419  2.141408
H    -1.403324  -3.308556  3.585971
H    -1.731698  -5.555326  2.683877
H    -0.050498  -5.055751  2.347450
H    -1.295477  -4.920415  1.069348
Ba    -2.190217  -1.322358  -1.508326
