34
Energy: -243347.854649 eV PBE+vdW (tier 2 basis)
C    -0.949332  -0.668989  -0.213762
C    -1.146267  -0.711336  1.268645
O    -1.496674  -1.788615  1.840830
H    -0.703854  0.328347  -0.593058
H    -1.852304  -1.035829  -0.717827
H    -0.134374  -1.358933  -0.475287
N    -0.928341  0.408914  1.968931
C    -0.888689  0.543083  3.440971
C    -2.336453  0.692536  3.953185
O    -3.049267  -0.374845  4.005071
H    -0.652440  1.233322  1.440317
H    -0.534593  -0.422524  3.835297
C    0.145230  1.625754  3.787113
C    0.637867  1.677041  5.246737
C    -0.297289  2.206176  6.344901
C    -0.638339  3.698756  6.289375
N    -1.438427  4.093508  5.087182
H    -0.218295  2.604867  3.444186
H    1.023777  1.399872  3.163688
H    1.550670  2.292192  5.246167
H    0.976668  0.667307  5.528507
H    0.210854  2.039979  7.306301
H    -1.222785  1.613126  6.406167
H    0.285391  4.293790  6.345321
H    -1.225140  3.952894  7.180782
H    -2.195212  2.741813  4.443221
H    -2.110921  4.815682  5.351546
N    -2.820334  1.865937  4.275936
C    -4.203307  2.030356  4.718838
H    -0.835163  4.546462  4.398624
H    -4.903074  1.713565  3.936407
H    -4.367361  3.090212  4.933782
H    -4.401800  1.444734  5.626211
Ba    -3.133420  -2.694154  3.382696
