34
Energy: -243346.711058 eV PBE+vdW (tier 2 basis)
C    -0.085719  -1.457096  -0.644834
C    0.345561  -0.356284  0.268999
O    1.485892  0.188511  0.124656
H    0.607998  -1.513124  -1.488389
H    -1.104910  -1.294020  -1.014286
H    -0.079433  -2.426675  -0.123078
N    -0.449745  0.078499  1.272556
C    -1.234226  -0.780992  2.171054
C    -0.246932  -1.762187  2.859659
O    1.013714  -1.603577  2.754066
H    -0.109148  0.936953  1.702180
H    -1.581829  -0.099880  2.964108
C    -2.496391  -1.430390  1.563528
C    -3.404700  -0.440062  0.829375
C    -3.941333  0.711386  1.684921
C    -5.144834  1.402306  1.017200
N    -6.241958  0.450141  0.840903
H    -3.076405  -1.861429  2.396604
H    -2.224382  -2.272324  0.912241
H    -4.273119  -1.000631  0.452333
H    -2.886787  -0.034897  -0.055163
H    -3.165649  1.471061  1.881872
H    -4.265472  0.325444  2.667805
H    -4.842668  1.765873  0.023578
H    -5.412919  2.295981  1.607209
H    -6.818656  0.389358  1.679777
H    -6.860188  0.733021  0.082802
N    -0.753549  -2.743962  3.583546
C    0.037220  -3.708234  4.352159
H    -1.766058  -2.834998  3.607035
H    -0.649686  -4.357534  4.900751
H    0.685197  -3.187053  5.066294
H    0.651213  -4.322403  3.682475
Ba    3.061776  -0.541354  1.863833
