34
Energy: -243347.206834 eV PBE+vdW (tier 2 basis)
C    1.150363  1.776003  1.806779
C    0.008214  1.540662  2.741895
O    -0.629679  2.519144  3.242580
H    0.780940  2.338186  0.937639
H    1.621758  0.850896  1.459399
H    1.905333  2.404422  2.296833
N    -0.327158  0.277719  3.025824
C    -1.531633  -0.169565  3.747471
C    -1.360641  -0.001185  5.274956
O    -1.512492  1.154390  5.784868
H    0.192565  -0.456572  2.543160
H    -2.337499  0.535871  3.489618
C    -1.937477  -1.562109  3.236893
C    -0.905082  -2.713547  3.384184
C    -0.730942  -3.549158  2.106672
C    0.159805  -2.871700  1.058766
N    0.209173  -3.657495  -0.156839
H    -2.183053  -1.429992  2.173209
H    -2.885858  -1.834705  3.719833
H    -1.221804  -3.390218  4.193850
H    0.090553  -2.333269  3.680802
H    -1.721229  -3.767536  1.675754
H    -0.287673  -4.522452  2.353534
H    1.185132  -2.809447  1.459400
H    -0.182784  -1.813395  0.905625
H    0.960465  -3.374196  -0.782034
H    -0.665246  -3.634751  -0.679403
N    -1.088198  -1.059563  6.015951
C    -0.926040  -1.058267  7.469381
H    -0.970492  -1.947784  5.530629
H    -1.391612  -1.960818  7.878671
H    -1.409689  -0.173319  7.889665
H    0.139455  -1.055018  7.733837
Ba    -1.618476  3.518771  5.200602
