34
Energy: -243345.912877 eV PBE+vdW (tier 2 basis)
C    -1.114215  0.102747  -0.501663
C    -0.755103  0.387429  0.921520
O    0.194390  1.202168  1.188388
H    -1.336212  1.041940  -1.024942
H    -1.967153  -0.575438  -0.606959
H    -0.241448  -0.343351  -0.999491
N    -1.446750  -0.216626  1.884732
C    -1.219071  -0.211194  3.349125
C    -2.506210  -0.806035  4.005684
O    -3.278989  -0.063956  4.601294
H    -2.202635  -0.823583  1.571514
H    -0.364238  -0.875655  3.551850
C    -0.920313  1.157586  3.986302
C    -1.741170  2.361664  3.514413
C    -1.489867  3.643954  4.328752
C    -2.365780  3.662137  5.626944
N    -3.758553  3.485967  5.278665
H    0.178702  1.325335  3.929043
H    -1.099539  1.032126  5.063167
H    -2.816647  2.144275  3.641539
H    -1.671455  2.514142  2.415262
H    -1.760021  4.537173  3.739822
H    -0.432208  3.758948  4.665360
H    -2.166137  4.604442  6.157019
H    -2.027878  2.853466  6.290044
H    -4.313569  4.330488  5.385891
H    -4.208570  2.728438  5.784350
N    -2.728878  -2.131329  3.817877
C    -1.776975  -3.174102  3.428899
H    -3.590573  -2.447646  4.260857
H    -1.184600  -2.883369  2.553019
H    -2.342044  -4.069907  3.153300
H    -1.095923  -3.435586  4.251168
Ba    0.841841  3.252041  2.200180
