34
Energy: -243347.401448 eV PBE+vdW (tier 2 basis)
C    -0.416755  0.421057  0.724108
C    -0.676495  -0.055879  2.114478
O    0.176539  -0.766969  2.720031
H    -1.109331  1.201935  0.392522
H    -0.523476  -0.450673  0.061724
H    0.614231  0.783580  0.641438
N    -1.840240  0.293008  2.690510
C    -2.418849  -0.213996  3.953719
C    -1.617424  0.285441  5.169856
O    -0.606406  -0.361202  5.581661
H    -2.458945  0.858414  2.117373
H    -3.416858  0.239411  3.998280
C    -2.602043  -1.739314  3.978528
C    -3.483824  -2.276106  2.843615
C    -3.167823  -3.734483  2.477641
C    -1.775954  -3.961982  1.877801
N    -1.515517  -3.068757  0.740277
H    -3.014337  -2.018459  4.959122
H    -1.616936  -2.227794  3.909267
H    -3.349030  -1.658791  1.945011
H    -4.540585  -2.192296  3.132386
H    -3.918978  -4.078102  1.750387
H    -3.289144  -4.388235  3.355006
H    -1.676127  -5.034368  1.637258
H    -0.989684  -3.764245  2.640769
H    -0.670687  -3.369107  0.250778
H    -2.267471  -3.170633  0.053744
N    -2.005455  1.387246  5.798175
C    -3.133391  2.271710  5.483057
H    -1.437431  1.633857  6.608601
H    -3.066524  2.650593  4.456607
H    -3.087366  3.127972  6.161440
H    -4.094021  1.765229  5.639402
Ba    1.071165  -1.881862  4.652355
