34
Energy: -243347.291176 eV PBE+vdW (tier 2 basis)
C    -0.510098  -0.168759  -0.658604
C    -0.092210  -0.136612  0.778131
O    1.131787  0.002010  1.087882
H    -0.487913  0.840731  -1.096029
H    -1.503805  -0.599468  -0.812860
H    0.231228  -0.765569  -1.205374
N    -1.013792  -0.261678  1.758960
C    -2.283061  0.474407  1.733240
C    -1.978066  1.874317  2.340321
O    -0.811106  2.380980  2.133434
H    -0.610162  -0.399789  2.686507
H    -2.509604  0.667908  0.672669
C    -3.465960  -0.283333  2.346164
C    -4.804133  0.073893  1.660251
C    -6.041838  -0.082424  2.557222
C    -6.422003  1.194544  3.302307
N    -5.304364  1.720365  4.138489
H    -3.505233  -0.102559  3.428998
H    -3.273021  -1.357600  2.228561
H    -4.907519  -0.560010  0.768702
H    -4.774406  1.109532  1.282470
H    -5.896799  -0.913667  3.266373
H    -6.907579  -0.369046  1.945182
H    -7.322290  1.017388  3.909559
H    -6.673993  1.980220  2.575335
H    -5.623930  2.576707  4.599259
H    -5.128747  1.066456  4.907531
N    -2.898689  2.509018  3.022843
C    -2.678262  3.860312  3.534937
H    -3.850229  2.070456  3.338003
H    -1.952160  3.860210  4.359356
H    -3.631756  4.242349  3.910604
H    -2.316660  4.523685  2.741071
Ba    1.606428  2.277364  1.924869
