34
Energy: -243347.261183 eV PBE+vdW (tier 2 basis)
C    0.263751  1.367347  0.596031
C    0.037095  0.790769  1.956353
O    0.922306  0.901336  2.860854
H    0.370005  2.457334  0.694259
H    -0.547144  1.152884  -0.107674
H    1.209108  0.990314  0.185792
N    -1.123800  0.170654  2.198296
C    -1.616854  -0.292945  3.504162
C    -0.997038  -1.663739  3.866052
O    0.219821  -1.703740  4.234765
H    -1.793106  0.118097  1.432985
H    -1.202067  0.392130  4.260337
C    -3.154005  -0.193284  3.555718
C    -3.947525  -0.741287  2.354414
C    -5.443883  -0.852961  2.668611
C    -6.285430  -1.307438  1.470984
N    -7.662070  -1.537976  1.892524
H    -3.406025  0.868955  3.684555
H    -3.487878  -0.679136  4.485514
H    -3.578666  -1.728585  2.019088
H    -3.822904  -0.076548  1.480876
H    -5.813500  0.121003  3.029021
H    -5.605058  -1.565101  3.493350
H    -5.888805  -2.263247  1.093061
H    -6.169036  -0.573684  0.646326
H    -8.161976  -0.661107  2.040877
H    -8.182800  -2.057228  1.187419
N    -1.750728  -2.746530  3.812818
C    -1.327771  -4.104600  4.150648
H    -2.714769  -2.621725  3.509912
H    -2.006283  -4.519138  4.905353
H    -0.309902  -4.079256  4.544612
H    -1.361109  -4.737417  3.255102
Ba    2.210733  -0.316047  4.498993
