34
Energy: -243346.005637 eV PBE+vdW (tier 2 basis)
C    0.145339  0.234578  0.576747
C    -0.143040  0.162289  2.037663
O    0.853058  -0.047488  2.867496
H    1.139709  0.660150  0.407016
H    -0.601161  0.823838  0.034399
H    0.136325  -0.783253  0.157523
N    -1.340539  0.280955  2.533357
C    -2.643820  0.501691  1.896285
C    -3.521582  0.844175  3.137478
O    -3.037136  0.648079  4.267557
H    -1.532148  0.248188  3.571224
H    -2.584801  1.393452  1.253348
C    -3.123661  -0.702985  1.046747
C    -2.940389  -2.107329  1.636230
C    -3.819387  -2.494613  2.836384
C    -5.330926  -2.354472  2.604201
N    -5.730196  -2.946791  1.325334
H    -2.594565  -0.653825  0.084084
H    -4.180625  -0.548764  0.794401
H    -1.881567  -2.274455  1.896924
H    -3.156982  -2.800921  0.813068
H    -3.550769  -1.923329  3.737537
H    -3.596795  -3.546689  3.076157
H    -5.610092  -1.289693  2.574109
H    -5.850894  -2.773495  3.485661
H    -5.615228  -3.961629  1.343763
H    -6.719233  -2.779774  1.141599
N    -4.745676  1.351440  2.952208
C    -5.428890  1.686035  1.706071
H    -5.251893  1.517524  3.819694
H    -6.030996  0.846292  1.332476
H    -4.715450  1.986052  0.931275
H    -6.093581  2.535917  1.891590
Ba    2.528308  -0.366225  4.363070
