34
Energy: -243348.13143 eV PBE+vdW (tier 2 basis)
C    0.276999  1.220557  -0.281066
C    -0.644921  1.579701  0.838172
O    -1.028404  2.769534  1.016060
H    -0.173191  1.539365  -1.230732
H    0.505452  0.150977  -0.331679
H    1.213758  1.783063  -0.168567
N    -1.074759  0.598535  1.657762
C    -2.013523  0.835699  2.753430
C    -1.303418  1.402254  4.000212
O    -1.343094  2.654642  4.173126
H    -0.761950  -0.351844  1.476851
H    -2.621373  1.685127  2.426362
C    -2.997897  -0.322087  2.974836
C    -4.232023  -0.202814  2.057947
C    -4.943151  1.166362  2.184315
C    -4.627149  2.161391  1.052488
N    -4.588711  3.580836  1.545635
H    -3.337663  -0.290576  4.020595
H    -2.504307  -1.297731  2.841783
H    -4.924910  -1.009777  2.324895
H    -3.952623  -0.388252  1.009559
H    -4.681213  1.622421  3.156178
H    -6.029310  1.015207  2.226507
H    -5.369779  2.054284  0.249250
H    -3.651183  1.948563  0.593482
H    -4.804231  4.192394  0.750286
H    -5.387033  3.718314  2.174743
N    -0.686653  0.572655  4.830102
C    0.035185  0.967719  6.040553
H    -0.736807  -0.422465  4.625990
H    -0.040469  2.050607  6.160836
H    1.089481  0.677936  5.956538
H    -0.405708  0.469558  6.912012
Ba    -2.043424  4.458847  2.537538
