34
Energy: -243347.121583 eV PBE+vdW (tier 2 basis)
C    -0.919492  1.599767  -0.138116
C    -0.863934  1.460940  1.347600
O    -0.023162  2.120777  2.032835
H    -1.150768  2.645487  -0.385594
H    -1.665129  0.950117  -0.607718
H    0.069140  1.382115  -0.563076
N    -1.727449  0.631693  1.951989
C    -1.883214  0.513690  3.410001
C    -0.688317  -0.257425  4.020022
O    0.243120  0.433624  4.550677
H    -2.411108  0.153403  1.369552
H    -1.764568  1.527022  3.822738
C    -3.290732  0.028499  3.776082
C    -3.504122  -0.115199  5.289792
C    -4.859632  -0.735987  5.651338
C    -6.079756  0.122483  5.297461
N    -7.299964  -0.594866  5.644843
H    -3.521040  -0.921742  3.272978
H    -3.992394  0.769188  3.364967
H    -3.405728  0.874234  5.767079
H    -2.706563  -0.741803  5.722277
H    -4.867786  -0.932846  6.734124
H    -4.971174  -1.718584  5.165646
H    -6.112962  0.305804  4.211362
H    -5.969415  1.117563  5.779424
H    -7.423251  -0.657735  6.655724
H    -8.126322  -0.128491  5.273927
N    -0.578033  -1.577389  3.989362
C    -1.479656  -2.595768  3.442328
H    0.258923  -1.926107  4.456980
H    -2.308319  -2.802688  4.130870
H    -0.901023  -3.514158  3.306810
H    -1.869954  -2.295077  2.465676
Ba    1.435067  2.474282  3.944047
