34
Energy: -243346.507912 eV PBE+vdW (tier 2 basis)
C    -0.669123  0.581775  0.257559
C    -0.300780  0.072858  1.609729
O    0.862536  -0.527803  1.752076
H    -0.804772  -0.266677  -0.428257
H    0.150301  1.194646  -0.139732
H    -1.589049  1.172544  0.265692
N    -1.059994  0.188100  2.657246
C    -2.381939  0.786130  2.865591
C    -2.385648  0.915399  4.423559
O    -1.526867  0.250838  5.049093
H    -0.768277  -0.129460  3.634680
H    -2.432258  1.780458  2.400414
C    -3.496178  -0.143468  2.324586
C    -4.921589  0.403328  2.452379
C    -5.227095  1.669564  1.622295
C    -6.000796  2.729205  2.407283
N    -5.144272  3.340487  3.456079
H    -3.418092  -1.105643  2.852724
H    -3.277415  -0.348212  1.264194
H    -5.143389  0.586835  3.512489
H    -5.604851  -0.402642  2.152713
H    -5.802648  1.400736  0.726179
H    -4.299714  2.131934  1.240390
H    -6.860197  2.260397  2.906555
H    -6.408120  3.486497  1.719750
H    -5.733464  3.817857  4.141423
H    -4.576445  4.081018  3.037154
N    -3.290493  1.707884  4.975412
C    -3.393454  1.857445  6.424396
H    -3.957769  2.260018  4.376570
H    -2.456615  2.241746  6.846742
H    -3.619147  0.896402  6.902849
H    -4.200850  2.563492  6.639465
Ba    2.817835  -1.567792  2.206844
