34
Energy: -243346.7364 eV PBE+vdW (tier 2 basis)
C    -1.266650  1.478771  1.368801
C    -2.110123  1.236285  2.577318
O    -1.975227  1.991868  3.593163
H    -1.715444  1.099638  0.448445
H    -0.270284  1.027861  1.491247
H    -1.115251  2.562632  1.289307
N    -3.064861  0.273569  2.628933
C    -2.922839  -1.158303  2.315590
C    -2.241370  -1.824771  3.530741
O    -1.524530  -1.134030  4.334803
H    -3.690169  0.428899  3.420924
H    -3.948002  -1.553714  2.250709
C    -2.212501  -1.534729  1.004635
C    -3.089785  -1.309261  -0.229359
C    -2.535302  -1.974633  -1.498378
C    -2.146519  -3.451229  -1.339031
N    -3.152077  -4.212814  -0.569266
H    -1.997316  -2.608341  1.066125
H    -1.233036  -1.045380  0.926953
H    -3.249122  -0.236137  -0.415894
H    -4.084620  -1.726607  -0.011850
H    -1.655743  -1.427367  -1.869841
H    -3.298874  -1.876926  -2.284599
H    -1.189859  -3.534350  -0.799109
H    -1.960012  -3.866187  -2.343574
H    -4.051214  -4.188849  -1.056699
H    -2.886149  -5.199264  -0.558084
N    -2.416605  -3.120789  3.730680
C    -3.295608  -4.051413  3.003070
H    -1.917648  -3.498729  4.535264
H    -3.200362  -3.959298  1.909776
H    -4.342007  -3.892384  3.296500
H    -3.008243  -5.067077  3.288652
Ba    -0.950973  0.917922  5.553973
