34
Energy: -243348.066913 eV PBE+vdW (tier 2 basis)
C    -0.056432  0.950188  0.823257
C    -0.681228  0.784862  2.169548
O    -0.362205  1.529326  3.138002
H    -0.445136  0.252642  0.074177
H    1.029751  0.812931  0.912412
H    -0.219608  1.979895  0.477945
N    -1.610360  -0.182039  2.335796
C    -2.315089  -0.349675  3.602521
C    -1.501331  -1.151294  4.639465
O    -0.950196  -0.479720  5.563467
H    -1.879732  -0.737981  1.528833
H    -2.287203  0.650823  4.041779
C    -3.807889  -0.676300  3.477166
C    -4.649749  0.575015  3.126597
C    -4.223765  1.884967  3.817641
C    -4.146748  1.838210  5.350670
N    -3.143108  2.826334  5.870877
H    -4.134172  -1.092413  4.441584
H    -3.994426  -1.468111  2.738743
H    -5.698385  0.348922  3.363637
H    -4.624216  0.749236  2.041954
H    -4.925406  2.674813  3.514300
H    -3.247928  2.213498  3.416769
H    -3.835860  0.848270  5.715085
H    -5.140711  2.024782  5.781760
H    -3.346058  3.737221  5.444264
H    -3.338781  2.978097  6.866586
N    -1.371374  -2.470308  4.587490
C    -1.953984  -3.415034  3.633529
H    -0.820199  -2.867293  5.348595
H    -1.982705  -2.991250  2.625397
H    -2.965144  -3.713742  3.937571
H    -1.319812  -4.306169  3.602390
Ba    -0.412569  1.994233  5.599047
