34
Energy: -243347.287322 eV PBE+vdW (tier 2 basis)
C    -0.287745  -0.031317  0.811018
C    -1.089289  0.388790  2.015188
O    -0.621636  1.332644  2.751584
H    -0.773221  0.317172  -0.111767
H    -0.190417  -1.121376  0.726725
H    0.707413  0.419434  0.858669
N    -2.241899  -0.165434  2.441724
C    -2.672302  -1.494444  1.977821
C    -1.619609  -2.526901  2.462040
O    -0.957048  -2.264026  3.509752
H    -3.336668  1.137467  2.261419
H    -3.549035  -1.735941  2.607803
C    -3.173784  -1.624727  0.526755
C    -4.381636  -0.732107  0.180502
C    -4.108125  0.738057  -0.233511
C    -4.682742  1.807316  0.690305
N    -3.817102  2.048465  1.914650
H    -3.518741  -2.661642  0.388339
H    -2.365368  -1.469883  -0.200715
H    -5.100894  -0.761539  1.015545
H    -4.904071  -1.216002  -0.653694
H    -4.572758  0.919052  -1.211792
H    -3.035549  0.921601  -0.400341
H    -5.675589  1.520042  1.057477
H    -4.780890  2.772662  0.180235
H    -3.046975  2.690862  1.690551
H    -4.357279  2.482878  2.670510
N    -1.473141  -3.670850  1.806780
C    -0.598986  -4.770499  2.216018
H    -2.031184  -3.808212  0.969093
H    -1.201512  -5.646643  2.485446
H    -0.008822  -4.454031  3.078598
H    0.069043  -5.036347  1.388765
Ba    -0.844792  -0.108731  4.797454
