34
Energy: -243346.05581 eV PBE+vdW (tier 2 basis)
C    -1.695824  0.269069  -2.026998
C    -0.954725  1.045908  -0.991470
O    0.181244  1.605162  -1.323235
H    -2.743198  0.099773  -1.760704
H    -1.214395  -0.711647  -2.157481
H    -1.645383  0.791599  -2.989175
N    -1.379332  1.188675  0.233575
C    -2.603893  0.732419  0.899458
C    -2.589660  1.608281  2.193594
O    -1.575162  2.281755  2.435977
H    -0.870714  1.788757  0.933643
H    -3.475877  1.003176  0.285002
C    -2.614717  -0.780222  1.203385
C    -1.490732  -1.255378  2.130693
C    -1.459885  -2.776909  2.324501
C    -2.663029  -3.353196  3.080718
N    -2.522016  -4.794104  3.223490
H    -2.578771  -1.332357  0.251169
H    -3.598679  -1.016551  1.634601
H    -1.581904  -0.757348  3.109531
H    -0.519588  -0.935376  1.719988
H    -0.543632  -3.034602  2.877961
H    -1.380509  -3.287345  1.351708
H    -3.591590  -3.174033  2.516959
H    -2.772173  -2.813506  4.045633
H    -3.374580  -5.244294  3.549684
H    -1.761536  -5.056524  3.849277
N    -3.679234  1.555568  2.964838
C    -3.819632  2.283831  4.224466
H    -4.458874  0.979614  2.663518
H    -3.970550  1.581479  5.053096
H    -4.674540  2.968400  4.171945
H    -2.905148  2.856886  4.396584
Ba    2.125942  2.662744  -1.881147
