34
Energy: -243347.700585 eV PBE+vdW (tier 2 basis)
C    0.208614  0.441911  1.140836
C    -0.913473  0.001839  2.022752
O    -0.704863  -0.532096  3.146093
H    1.021690  -0.288725  1.228878
H    0.607922  1.404582  1.494891
H    -0.082018  0.543111  0.090466
N    -2.202667  0.189542  1.629956
C    -2.714466  1.365582  0.933618
C    -2.238740  2.633639  1.682468
O    -1.910549  2.552190  2.905540
H    -2.883888  -0.291801  2.214531
H    -2.342999  1.381437  -0.100085
C    -4.262631  1.315900  0.913740
C    -4.925812  1.226587  2.307299
C    -5.289060  -0.191320  2.797397
C    -5.444665  -0.311993  4.313749
N    -4.127852  -0.530523  5.014314
H    -4.565804  0.466492  0.284503
H    -4.614983  2.213281  0.390452
H    -5.852136  1.815461  2.287763
H    -4.295501  1.742820  3.051195
H    -4.579082  -0.963870  2.449501
H    -6.237498  -0.489212  2.329247
H    -6.126078  -1.139866  4.553894
H    -5.893968  0.601418  4.727011
H    -3.823982  -1.482187  4.772500
H    -4.346930  -0.606457  6.015038
N    -2.205476  3.801745  1.053907
C    -2.552576  4.124066  -0.331873
H    -1.930582  4.586588  1.645061
H    -2.463776  3.245468  -0.976594
H    -1.859046  4.888974  -0.696279
H    -3.575541  4.517157  -0.394638
Ba    -1.732000  1.002826  4.889511
