34
Energy: -243346.778194 eV PBE+vdW (tier 2 basis)
C    -0.370387  0.978676  -0.337172
C    -0.104947  0.078491  0.825616
O    1.039137  -0.469636  0.940258
H    -0.796460  0.407810  -1.176726
H    0.588200  1.391123  -0.670412
H    -1.061042  1.790363  -0.094218
N    -1.025992  -0.167029  1.787353
C    -2.437168  -0.540698  1.584859
C    -2.457507  -1.984975  1.034238
O    -1.406744  -2.498928  0.514352
H    -0.604715  -0.637329  2.589351
H    -2.875411  -0.563397  2.595095
C    -3.311668  0.401908  0.744353
C    -3.518794  1.784065  1.376698
C    -4.662792  2.571191  0.717653
C    -6.077290  2.083232  1.051397
N    -6.390346  0.753528  0.473144
H    -4.306607  -0.055339  0.654097
H    -2.933819  0.479017  -0.283978
H    -2.590998  2.376223  1.337892
H    -3.743522  1.658576  2.449427
H    -4.524987  2.595847  -0.376994
H    -4.591106  3.618295  1.044487
H    -6.793477  2.857235  0.728227
H    -6.182029  2.000806  2.143866
H    -7.309658  0.458782  0.808499
H    -6.500227  0.847200  -0.539914
N    -3.573618  -2.692870  1.111357
C    -4.853617  -2.328722  1.733452
H    -3.521906  -3.615546  0.681517
H    -5.419067  -3.250811  1.893839
H    -5.437288  -1.645610  1.098920
H    -4.688318  -1.852642  2.706951
Ba    1.020143  -2.840440  0.315433
