34
Energy: -243347.334448 eV PBE+vdW (tier 2 basis)
C    0.487425  0.782528  0.507818
C    0.076692  0.731927  1.944070
O    0.818375  1.232523  2.845978
H    -0.218346  0.282146  -0.163128
H    0.578683  1.836082  0.207652
H    1.480565  0.329988  0.391380
N    -1.092279  0.158812  2.252392
C    -1.747981  0.169349  3.566258
C    -1.124326  -0.900010  4.491670
O    -0.038730  -0.615460  5.095536
H    -1.657208  -0.202232  1.485435
H    -1.462869  1.116080  4.050347
C    -3.291182  0.184542  3.398663
C    -3.944448  -0.618306  2.262569
C    -3.931637  -2.148875  2.323795
C    -4.925558  -2.764864  1.313786
N    -6.282668  -2.307888  1.597156
H    -3.561048  1.239535  3.249666
H    -3.738343  -0.093162  4.364937
H    -3.568756  -0.284361  1.277198
H    -5.005945  -0.325628  2.247428
H    -4.252582  -2.481853  3.331158
H    -2.931794  -2.574702  2.124693
H    -4.805570  -3.861805  1.323481
H    -4.648657  -2.432176  0.302368
H    -6.851863  -2.271900  0.754280
H    -6.761662  -2.925022  2.251702
N    -1.726824  -2.060492  4.654548
C    -1.254285  -3.144705  5.513494
H    -2.580966  -2.224447  4.118236
H    -2.120406  -3.643085  5.960522
H    -0.618689  -2.736432  6.303316
H    -0.683948  -3.877699  4.927770
Ba    1.812502  0.963872  5.030862
