34
Energy: -243347.445188 eV PBE+vdW (tier 2 basis)
C    -0.388686  1.421001  -0.644122
C    -0.269458  0.927442  0.760920
O    -0.001120  1.728563  1.709309
H    -0.580406  0.624329  -1.370228
H    0.528098  1.954752  -0.925926
H    -1.210262  2.150055  -0.689836
N    -0.465068  -0.375598  1.002705
C    -0.552510  -0.995116  2.337108
C    0.868107  -1.208934  2.905405
O    1.436216  -0.250948  3.517941
H    -0.693789  -0.968666  0.207920
H    -1.018489  -0.253613  3.004135
C    -1.459145  -2.230216  2.297630
C    -1.781831  -2.783999  3.688627
C    -2.815828  -3.913963  3.665287
C    -3.299743  -4.276652  5.075512
N    -3.921453  -3.113387  5.723474
H    -1.032702  -3.011659  1.640645
H    -2.396095  -1.922593  1.807279
H    -2.189750  -1.979580  4.322417
H    -0.866611  -3.141175  4.189874
H    -2.404845  -4.811801  3.178389
H    -3.683482  -3.602721  3.059516
H    -2.438729  -4.584087  5.688514
H    -3.961481  -5.157079  5.005376
H    -3.993313  -3.262928  6.729368
H    -4.879224  -2.991440  5.390863
N    1.455606  -2.376755  2.717085
C    2.793809  -2.748772  3.172688
H    0.907562  -3.096208  2.249944
H    3.233601  -1.912162  3.719219
H    3.422898  -3.000500  2.310266
H    2.725888  -3.622372  3.831955
Ba    1.237234  2.174778  3.737738
