34
Energy: -243346.653767 eV PBE+vdW (tier 2 basis)
C    -0.153478  -0.412425  -0.494154
C    -0.064563  -0.384396  0.997367
O    1.052262  -0.506972  1.589114
H    -1.113918  -0.798729  -0.851582
H    0.662193  -1.032623  -0.881643
H    -0.015646  0.600945  -0.904352
N    -1.178093  -0.198558  1.738788
C    -2.226920  0.761803  1.399516
C    -1.589153  2.172542  1.398488
O    -0.434348  2.349283  1.917361
H    -1.045644  -0.339005  2.740955
H    -2.605679  0.538042  0.390907
C    -3.381159  0.649754  2.413930
C    -4.141379  -0.679800  2.311773
C    -5.310343  -0.777567  3.299960
C    -4.899245  -0.932402  4.768427
N    -6.084763  -0.932089  5.615917
H    -4.080992  1.481208  2.254481
H    -2.969509  0.800812  3.426186
H    -3.451021  -1.525044  2.467332
H    -4.524444  -0.783912  1.284198
H    -5.924673  -1.644503  3.013087
H    -5.967317  0.101187  3.207172
H    -4.280963  -0.074598  5.083352
H    -4.256895  -1.834973  4.864032
H    -5.839603  -0.931200  6.604919
H    -6.658931  -1.760124  5.453983
N    -2.239697  3.195870  0.868436
C    -3.546861  3.222209  0.205940
H    -1.767018  4.095037  0.964038
H    -3.817804  2.232276  -0.170586
H    -3.491410  3.913188  -0.641876
H    -4.322711  3.572971  0.898364
Ba    1.791617  1.587042  2.668038
