34
Energy: -243346.668792 eV PBE+vdW (tier 2 basis)
C    0.251449  0.750504  0.054847
C    -0.029571  -0.097197  1.253162
O    0.885051  -0.798348  1.786618
H    0.590583  1.751782  0.365592
H    -0.625061  0.872536  -0.590446
H    1.068033  0.292186  -0.513561
N    -1.263933  -0.108169  1.802219
C    -2.085679  1.088599  1.969015
C    -1.330449  2.032337  2.947852
O    -0.297699  1.627344  3.575963
H    -1.399807  -0.822116  2.518748
H    -2.171759  1.600852  0.998641
C    -3.497949  0.683051  2.445052
C    -4.557886  1.794695  2.420718
C    -5.992049  1.252420  2.517991
C    -6.337615  0.592443  3.857727
N    -7.709077  0.104359  3.823605
H    -3.425661  0.240491  3.451638
H    -3.819436  -0.122082  1.766688
H    -4.467345  2.362414  1.478672
H    -4.397492  2.502331  3.251506
H    -6.180884  0.533504  1.706502
H    -6.683933  2.091076  2.347244
H    -6.116526  1.310688  4.678104
H    -5.688945  -0.282500  4.027406
H    -7.924739  -0.472283  4.635132
H    -8.382034  0.871076  3.813857
N    -1.788493  3.261536  3.097973
C    -1.217388  4.261176  4.004048
H    -2.629772  3.514656  2.583980
H    -0.177702  4.475617  3.730151
H    -1.255880  3.906677  5.040955
H    -1.803935  5.179232  3.917375
Ba    1.588623  0.076264  3.979934
