34
Energy: -243346.061945 eV PBE+vdW (tier 2 basis)
C    -2.353948  1.386710  0.911285
C    -1.579028  1.122098  2.167833
O    -0.367561  0.831118  2.130922
H    -1.775092  2.052921  0.261911
H    -3.348324  1.811877  1.086247
H    -2.470133  0.434305  0.374423
N    -2.261066  1.226061  3.347573
C    -1.860288  0.678222  4.653845
C    -0.588749  1.284224  5.233485
O    -0.552256  1.550618  6.516392
H    -3.242822  1.468324  3.271782
H    -2.667454  0.966552  5.342393
C    -1.727094  -0.867687  4.659403
C    -3.052456  -1.579802  4.365775
C    -2.931893  -3.110286  4.270349
C    -2.238797  -3.636525  3.008977
N    -0.797919  -3.321266  2.986568
H    -1.354772  -1.175263  5.651662
H    -0.966419  -1.188952  3.932237
H    -3.466216  -1.206369  3.415094
H    -3.790212  -1.321977  5.144520
H    -3.946867  -3.532993  4.298513
H    -2.420671  -3.505434  5.164898
H    -2.696888  -3.165441  2.125587
H    -2.446550  -4.717594  2.923166
H    -0.418242  -3.490999  2.054655
H    -0.294902  -3.958852  3.606637
N    0.451559  1.448737  4.470677
C    1.743886  1.950569  4.909741
H    0.269993  1.151523  3.429569
H    2.387721  2.063318  4.033053
H    2.225466  1.244426  5.601462
H    1.643212  2.932874  5.392364
Ba    -0.364627  2.003913  8.726648
