34
Energy: -243346.050649 eV PBE+vdW (tier 2 basis)
C    -1.147736  1.809259  -1.115731
C    -0.846355  1.895968  0.342409
O    0.038274  2.773720  0.747691
H    -0.359085  1.226682  -1.615228
H    -1.147354  2.812317  -1.556685
H    -2.106702  1.323234  -1.319319
N    -1.412777  1.135110  1.236560
C    -2.462735  0.116809  1.131018
C    -2.895315  -0.016806  2.626239
O    -2.237216  0.594132  3.486307
H    -1.243790  1.265274  2.270995
H    -3.309140  0.526519  0.558215
C    -1.990409  -1.197409  0.468351
C    -0.807532  -1.928894  1.119226
C    -1.120598  -2.680672  2.417746
C    0.035583  -3.571872  2.884005
N    -0.299279  -4.214652  4.150455
H    -1.749390  -0.967552  -0.580173
H    -2.861008  -1.869716  0.415566
H    0.024956  -1.223692  1.286145
H    -0.432943  -2.648405  0.375232
H    -2.015289  -3.308211  2.265419
H    -1.356100  -1.992723  3.241622
H    0.929201  -2.950357  3.050672
H    0.296486  -4.282933  2.074528
H    0.519432  -4.620756  4.600046
H    -0.981743  -4.963012  4.030228
N    -3.959626  -0.776708  2.887421
C    -4.418191  -1.057805  4.247263
H    -4.409932  -1.266853  2.121972
H    -4.287016  -0.164862  4.865515
H    -3.842898  -1.882913  4.689207
H    -5.477607  -1.327817  4.215505
Ba    1.481650  4.349178  1.538555
