34
Energy: -243346.816407 eV PBE+vdW (tier 2 basis)
C    -1.929717  1.223337  0.359647
C    -0.815477  0.787218  1.255269
O    -0.147858  1.633394  1.927285
H    -2.868408  1.304864  0.930537
H    -2.094216  0.534988  -0.475894
H    -1.697421  2.222838  -0.024559
N    -0.522943  -0.524350  1.380469
C    -1.535774  -1.574499  1.482854
C    -2.360418  -1.306012  2.763994
O    -1.940750  -0.457540  3.624639
H    0.337741  -0.717310  1.893820
H    -2.198743  -1.520331  0.607423
C    -0.859742  -2.957893  1.538160
C    0.004727  -3.298367  0.317035
C    -0.711942  -3.310577  -1.042940
C    -2.038130  -4.084382  -1.103359
N    -1.974165  -5.345170  -0.355565
H    -1.629428  -3.735203  1.632745
H    -0.251071  -3.010808  2.456860
H    0.419429  -4.294797  0.520981
H    0.873332  -2.624694  0.252196
H    -0.010577  -3.741315  -1.773076
H    -0.892599  -2.283527  -1.401268
H    -2.317445  -4.198830  -2.165956
H    -2.848749  -3.481436  -0.655733
H    -1.245769  -5.950534  -0.740052
H    -2.844522  -5.866447  -0.467608
N    -3.487843  -1.962738  2.983226
C    -4.159280  -2.955021  2.138950
H    -3.924882  -1.765528  3.883420
H    -3.949435  -2.772972  1.080902
H    -5.238190  -2.867072  2.300570
H    -3.838402  -3.971518  2.399208
Ba    -0.593476  1.473295  4.350090
