34
Energy: -243347.511566 eV PBE+vdW (tier 2 basis)
C    -0.301912  -0.001432  0.280974
C    -0.467240  -0.043690  1.776460
O    0.505767  -0.481256  2.491592
H    -0.016442  1.010453  -0.046131
H    -1.219247  -0.269432  -0.258275
H    0.505564  -0.680684  -0.008320
N    -1.548738  0.392709  2.451671
C    -2.517957  1.281384  1.810654
C    -2.116481  2.745211  2.127076
O    -1.200415  2.989503  2.963798
H    -2.157830  -1.152406  3.056156
H    -2.500826  1.179483  0.711004
C    -3.947887  0.960474  2.294304
C    -4.447031  -0.401788  1.756562
C    -4.970510  -1.396322  2.804727
C    -4.005711  -1.744448  3.935143
N    -2.623134  -2.062459  3.405387
H    -4.638662  1.754127  1.983003
H    -3.948246  0.990749  3.394940
H    -3.644399  -0.877464  1.168655
H    -5.253330  -0.237321  1.030810
H    -5.276270  -2.321211  2.292474
H    -5.882422  -1.007808  3.281238
H    -4.358278  -2.612269  4.503902
H    -3.866588  -0.913074  4.637493
H    -2.667588  -2.731716  2.626515
H    -2.029699  -2.484418  4.128171
N    -2.762707  3.713531  1.486727
C    -2.537002  5.147123  1.670813
H    -3.464340  3.441825  0.803132
H    -2.129057  5.584887  0.751514
H    -1.828961  5.292436  2.489504
H    -3.484742  5.641561  1.913220
Ba    0.384016  1.427015  4.098700
