34
Energy: -243347.198279 eV PBE+vdW (tier 2 basis)
C    -1.169005  2.232875  -0.033253
C    -1.250905  2.139968  1.454705
O    -1.252491  3.187271  2.174274
H    -2.047436  2.783134  -0.399470
H    -1.131082  1.256178  -0.526274
H    -0.284174  2.817039  -0.317437
N    -1.337250  0.929678  2.020900
C    -1.594364  0.701051  3.450418
C    -0.336532  1.024229  4.286363
O    -0.296393  2.154785  4.876555
H    -1.406548  0.123288  1.404458
H    -2.315652  1.470264  3.767976
C    -2.244686  -0.671395  3.705703
C    -3.753496  -0.716456  3.436139
C    -4.203315  -0.543550  1.980873
C    -5.660804  -1.003453  1.782863
N    -5.795803  -2.421743  2.111145
H    -2.063309  -0.932991  4.759121
H    -1.737504  -1.445768  3.109576
H    -4.261822  0.023878  4.076642
H    -4.116138  -1.702530  3.763872
H    -3.561897  -1.151868  1.316296
H    -4.116450  0.502557  1.642160
H    -5.979504  -0.745287  0.757617
H    -6.308904  -0.429614  2.462094
H    -6.742911  -2.648327  2.407792
H    -5.590761  -3.013618  1.306795
N    0.686875  0.191892  4.410531
C    0.910298  -1.133597  3.825952
H    1.419699  0.535844  5.031483
H    1.989856  -1.309917  3.800115
H    0.534093  -1.180139  2.800331
H    0.440232  -1.917727  4.431573
Ba    -0.844024  4.437247  4.214094
