34
Energy: -243347.247492 eV PBE+vdW (tier 2 basis)
C    0.623495  1.640831  1.408565
C    -0.413899  1.371185  2.450242
O    -1.131146  2.314282  2.911525
H    1.344762  2.377863  1.785402
H    0.131564  2.092504  0.535709
H    1.158711  0.740710  1.088418
N    -0.571061  0.111970  2.871385
C    -1.662653  -0.402768  3.714789
C    -1.391898  -0.106470  5.208594
O    -1.575824  1.075973  5.639243
H    0.022675  -0.592357  2.430511
H    -2.553715  0.201796  3.481995
C    -1.969251  -1.863433  3.341399
C    -0.796248  -2.884254  3.410461
C    -0.469757  -3.571593  2.073092
C    0.158494  -2.618707  1.036406
N    0.625874  -3.177984  -0.214589
H    -2.375551  -1.841017  2.320215
H    -2.806664  -2.193555  3.971298
H    -1.037723  -3.662089  4.150070
H    0.133503  -2.405145  3.771383
H    -1.378856  -4.032950  1.657140
H    0.233602  -4.394530  2.266103
H    1.027931  -2.119106  1.516064
H    -0.563930  -1.823639  0.775178
H    -0.135483  -3.552567  -0.778959
H    1.307188  -3.923359  -0.074560
N    -1.004460  -1.088680  6.002381
C    -0.735199  -0.971956  7.434826
H    -0.869694  -2.003595  5.575740
H    0.344741  -1.031759  7.621056
H    -1.233649  -1.793013  7.961847
H    -1.117300  -0.016017  7.799053
Ba    -1.998580  3.364432  4.897017
