34
Energy: -243347.281064 eV PBE+vdW (tier 2 basis)
C    -0.354357  0.539751  0.011079
C    -0.315843  0.366670  1.493416
O    0.729412  0.652984  2.156937
H    0.466015  -0.028731  -0.446243
H    -0.180330  1.599384  -0.223379
H    -1.303880  0.228923  -0.436369
N    -1.408751  -0.089229  2.118801
C    -1.563314  -0.141990  3.580206
C    -0.718854  -1.283079  4.185892
O    0.395775  -0.967498  4.721188
H    -2.246462  -0.233739  1.558833
H    -1.085668  0.766496  3.979544
C    -3.047260  -0.086996  3.973653
C    -3.662924  1.283275  3.673552
C    -5.173001  1.341503  3.923378
C    -5.808917  2.563767  3.247222
N    -5.632934  2.490098  1.788044
H    -3.612083  -0.867135  3.442326
H    -3.129114  -0.325598  5.045047
H    -3.507676  1.552723  2.615210
H    -3.154766  2.054449  4.276209
H    -5.391528  1.355228  5.001457
H    -5.650142  0.431377  3.521586
H    -5.311937  3.478324  3.604161
H    -6.862874  2.638780  3.563319
H    -6.357309  1.901191  1.374519
H    -5.751989  3.411413  1.368117
N    -1.093225  -2.554129  4.172851
C    -2.284387  -3.190494  3.602606
H    -0.442277  -3.175119  4.654007
H    -2.555148  -2.733970  2.646510
H    -3.131771  -3.137912  4.296622
H    -2.045632  -4.242669  3.420544
Ba    2.236816  0.487759  4.049059
