34
Energy: -243347.349393 eV PBE+vdW (tier 2 basis)
C    -0.013864  -0.607088  -0.347527
C    -0.583712  -0.736352  1.029834
O    -0.188700  -1.654121  1.802431
H    -0.417499  0.237944  -0.914660
H    -0.213089  -1.535805  -0.899801
H    1.077161  -0.505357  -0.276629
N    -1.525379  0.153913  1.401543
C    -2.298123  0.182056  2.662475
C    -1.373155  0.564971  3.834434
O    -0.663255  -0.313084  4.408182
H    -1.782269  0.844837  0.702760
H    -3.024208  0.992861  2.530430
C    -3.085196  -1.120930  2.898352
C    -3.763360  -1.239782  4.269154
C    -4.333632  -2.637174  4.539757
C    -3.292958  -3.768622  4.576965
N    -3.862170  -4.981276  5.073105
H    -2.423229  -1.979263  2.712348
H    -3.839179  -1.190875  2.100747
H    -3.054185  -0.984443  5.073409
H    -4.577290  -0.504113  4.341495
H    -5.097599  -2.903762  3.795744
H    -4.849909  -2.617256  5.510606
H    -2.402086  -3.376873  5.185707
H    -2.917592  -3.973452  3.556154
H    -3.305534  -5.821471  4.949802
H    -4.219134  -4.926761  6.024113
N    -1.328300  1.828050  4.240028
C    -2.053004  2.990549  3.713509
H    -0.691001  1.995795  5.018491
H    -1.803112  3.174455  2.661690
H    -1.744772  3.866555  4.290614
H    -3.137150  2.872589  3.830909
Ba    0.042528  -2.631984  4.044964
