34
Energy: -243346.978882 eV PBE+vdW (tier 2 basis)
C    0.067259  -0.919761  0.185579
C    -0.036651  -0.527032  1.622583
O    0.987391  -0.141157  2.268540
H    0.812224  -1.719013  0.077194
H    0.435393  -0.058904  -0.390031
H    -0.883883  -1.253461  -0.241642
N    -1.234314  -0.580041  2.219151
C    -1.503942  -0.084957  3.573691
C    -0.899337  -1.035457  4.632378
O    0.212613  -0.697143  5.157732
H    -2.042418  -0.840129  1.656749
H    -0.894377  0.821593  3.691888
C    -2.995413  0.316270  3.787559
C    -4.005680  -0.079182  2.699252
C    -5.447043  0.303092  3.073713
C    -6.065692  -0.544720  4.192355
N    -7.413951  -0.076780  4.473100
H    -3.019652  1.409106  3.886207
H    -3.321907  -0.067320  4.762655
H    -3.980421  -1.164299  2.493146
H    -3.751694  0.434103  1.757500
H    -6.069332  0.204165  2.171748
H    -5.498495  1.363674  3.361994
H    -5.486474  -0.427510  5.123484
H    -5.993846  -1.619023  3.907493
H    -7.795479  -0.497595  5.318428
H    -8.056960  -0.292061  3.711162
N    -1.475437  -2.168821  5.006806
C    -2.710199  -2.800615  4.536530
H    -0.971296  -2.659284  5.745605
H    -2.653585  -3.866485  4.776253
H    -2.813504  -2.700474  3.452745
H    -3.592950  -2.375693  5.029953
Ba    2.313496  0.182336  4.275280
