34
Energy: -243347.018609 eV PBE+vdW (tier 2 basis)
C    -2.176473  0.871525  -0.329183
C    -1.244882  0.928820  0.834878
O    -0.863129  2.041582  1.320086
H    -3.189227  1.174280  -0.022272
H    -2.215746  -0.123567  -0.785888
H    -1.840989  1.612343  -1.066751
N    -0.807599  -0.212132  1.404986
C    -1.665242  -1.374276  1.638584
C    -2.730269  -0.949159  2.667067
O    -2.602140  0.153892  3.306078
H    -0.067084  -0.079895  2.095651
H    -2.120848  -1.658317  0.665992
C    -0.791899  -2.556130  2.115673
C    0.203655  -3.026527  1.037160
C    -0.265893  -4.158871  0.105481
C    -1.615980  -4.004912  -0.598749
N    -1.801820  -2.676321  -1.226104
H    -1.436513  -3.385390  2.435829
H    -0.250774  -2.237421  3.022345
H    1.112461  -3.377165  1.544496
H    0.522254  -2.157717  0.440923
H    -0.299047  -5.103116  0.669423
H    0.518915  -4.301172  -0.653225
H    -2.436031  -4.151150  0.122740
H    -1.712934  -4.829051  -1.323994
H    -1.000977  -2.473758  -1.830229
H    -2.604352  -2.714674  -1.858305
N    -3.788432  -1.711248  2.900384
C    -4.178329  -2.965955  2.257202
H    -4.403740  -1.367351  3.637015
H    -3.783385  -3.012834  1.238557
H    -5.271390  -3.003603  2.208978
H    -3.820829  -3.830308  2.831064
Ba    -1.753003  2.446484  3.578659
