34
Energy: -243346.557443 eV PBE+vdW (tier 2 basis)
C    0.159300  0.060600  0.170806
C    -0.203236  -0.372722  1.553671
O    0.685680  -0.750009  2.376113
H    0.494066  1.110222  0.176239
H    -0.669078  -0.038506  -0.537665
H    1.009974  -0.541908  -0.169029
N    -1.493491  -0.338682  1.958257
C    -2.412416  0.767158  1.665337
C    -1.728650  2.066849  2.147193
O    -0.868826  1.999296  3.092979
H    -1.664435  -0.795097  2.854887
H    -2.601763  0.813199  0.584527
C    -3.736948  0.484601  2.413673
C    -4.902225  1.441192  2.143062
C    -6.204850  0.979318  2.813833
C    -6.223460  1.111352  4.340717
N    -7.469944  0.571460  4.867056
H    -3.516415  0.452265  3.493899
H    -4.035374  -0.533833  2.119723
H    -5.070847  1.507360  1.057543
H    -4.658280  2.456602  2.495874
H    -6.423333  -0.065291  2.544266
H    -7.030506  1.576819  2.398757
H    -6.022664  2.171983  4.608564
H    -5.405420  0.518624  4.784110
H    -8.271925  1.133688  4.580576
H    -7.471239  0.550339  5.885652
N    -2.009721  3.239599  1.602443
C    -2.881518  3.579392  0.474740
H    -1.537553  4.027810  2.047606
H    -3.162536  2.687049  -0.088187
H    -2.340620  4.263803  -0.188455
H    -3.791953  4.073665  0.833308
Ba    0.964461  0.831067  4.261931
