34
Energy: -243347.228908 eV PBE+vdW (tier 2 basis)
C    -0.270445  -0.242650  -0.096703
C    -0.513475  -0.138766  1.372931
O    0.336856  0.415478  2.136609
H    -0.166019  0.770466  -0.509779
H    -1.069345  -0.764990  -0.632822
H    0.681883  -0.759630  -0.273799
N    -1.652227  -0.634015  1.877306
C    -2.079798  -0.466150  3.273841
C    -1.241708  -1.362304  4.213969
O    -0.292736  -0.806863  4.861581
H    -2.329265  -1.025795  1.226221
H    -1.787448  0.551765  3.570244
C    -3.606293  -0.566169  3.391378
C    -4.144158  -0.423706  4.821000
C    -3.820296  0.904753  5.525497
C    -4.189614  2.167652  4.731784
N    -5.538190  2.062710  4.176401
H    -3.964441  -1.508299  2.954188
H    -4.032302  0.239638  2.774088
H    -3.800117  -1.258809  5.452378
H    -5.233778  -0.528227  4.748379
H    -2.753245  0.959272  5.804418
H    -4.361234  0.910595  6.483757
H    -3.498564  2.298215  3.879271
H    -4.026093  3.045190  5.385791
H    -5.760035  2.873836  3.599623
H    -6.237838  2.044482  4.920482
N    -1.449448  -2.662531  4.360655
C    -2.433930  -3.545696  3.728873
H    -0.830057  -3.099281  5.043566
H    -2.060828  -4.571120  3.807475
H    -2.552985  -3.309399  2.667700
H    -3.403857  -3.485991  4.237666
Ba    1.453029  0.785434  4.261705
