34
Energy: -243347.763229 eV PBE+vdW (tier 2 basis)
C    -0.094725  0.077939  0.969426
C    -1.089081  -0.424060  1.964165
O    -0.790953  -1.307617  2.813231
H    0.601808  0.778001  1.455117
H    -0.555418  0.572537  0.108732
H    0.504730  -0.774056  0.625740
N    -2.350912  0.086158  1.983846
C    -2.703474  1.488075  1.784740
C    -1.773867  2.366727  2.662077
O    -1.243613  1.886163  3.705475
H    -2.999912  -0.442215  2.564520
H    -2.578021  1.768915  0.728079
C    -4.182585  1.706651  2.189605
C    -4.534255  1.290277  3.635974
C    -5.125074  -0.124661  3.809340
C    -4.998174  -0.690023  5.224005
N    -3.655721  -1.329332  5.470169
H    -4.814311  1.167657  1.468377
H    -4.406312  2.771058  2.043261
H    -5.268239  2.004191  4.032250
H    -3.652784  1.426721  4.285581
H    -4.708256  -0.858036  3.094766
H    -6.191402  -0.090880  3.545879
H    -5.792056  -1.428129  5.403778
H    -5.128951  0.107194  5.968592
H    -3.675230  -1.672708  6.438038
H    -3.639858  -2.196315  4.918398
N    -1.601481  3.623525  2.277743
C    -0.832311  4.638853  2.997468
H    -2.052917  3.915324  1.413478
H    -1.502085  5.425561  3.365999
H    -0.094147  5.085618  2.321658
H    -0.321151  4.168846  3.840271
Ba    -1.063560  -0.225584  5.095288
