34
Energy: -243347.31107 eV PBE+vdW (tier 2 basis)
C    -1.209856  1.912525  0.789656
C    -1.117471  0.493977  1.249355
O    -0.127559  -0.231055  0.921571
H    -0.354472  2.468390  1.199824
H    -2.135548  2.410185  1.096463
H    -1.122064  1.952567  -0.303621
N    -2.094043  0.007302  2.026777
C    -2.083166  -1.299387  2.709504
C    -2.459309  -2.414010  1.706313
O    -1.550650  -2.908944  0.967736
H    -2.855085  0.638813  2.267478
H    -1.038599  -1.506735  2.989211
C    -2.927923  -1.230387  3.986736
C    -2.788339  -2.457257  4.896805
C    -3.734180  -2.392326  6.099417
C    -3.589430  -3.586925  7.048646
N    -4.610783  -3.522288  8.088269
H    -3.991061  -1.051762  3.739420
H    -2.610083  -0.333049  4.539805
H    -1.743939  -2.527806  5.243074
H    -2.986389  -3.383960  4.331824
H    -4.781385  -2.351462  5.760378
H    -3.555120  -1.458998  6.658641
H    -2.546491  -3.626673  7.425801
H    -3.749951  -4.517685  6.481921
H    -4.685557  -4.406718  8.588465
H    -4.393320  -2.808753  8.784296
N    -3.719003  -2.804277  1.635324
C    -4.250810  -3.831980  0.741608
H    -4.371268  -2.376633  2.289610
H    -4.790540  -4.581443  1.332011
H    -3.425506  -4.309765  0.209805
H    -4.943564  -3.378875  0.021636
Ba    0.675465  -2.365602  0.120242
