34
Energy: -243345.98626 eV PBE+vdW (tier 2 basis)
C    0.361340  -0.646924  0.045549
C    0.229155  -0.220248  1.476507
O    1.210122  -0.196005  2.244909
H    1.308282  -0.276856  -0.360270
H    -0.470349  -0.316717  -0.587137
H    0.397667  -1.746227  0.019213
N    -1.020326  0.137882  1.899088
C    -1.487398  0.208720  3.291009
C    -0.824591  1.305999  4.121672
O    -1.565941  2.003469  4.941219
H    -1.757666  0.080671  1.205320
H    -2.547063  0.490190  3.223702
C    -1.395587  -1.129137  4.076665
C    -2.293379  -2.261596  3.563981
C    -1.832248  -2.989787  2.293836
C    -2.491750  -4.372962  2.159773
N    -2.133330  -5.231270  3.286943
H    -1.671587  -0.901854  5.120324
H    -0.344919  -1.453606  4.102917
H    -3.327302  -1.896909  3.437182
H    -2.333358  -3.023318  4.358142
H    -0.736942  -3.121842  2.322004
H    -2.055056  -2.414150  1.382821
H    -2.224228  -4.798331  1.175615
H    -3.585680  -4.254370  2.158746
H    -1.204273  -5.636894  3.177358
H    -2.789570  -6.000623  3.404285
N    0.465076  1.469319  4.053660
C    1.232221  2.431682  4.829840
H    0.946727  0.780796  3.359224
H    2.272755  2.394790  4.495773
H    1.205184  2.184120  5.900690
H    0.854862  3.451917  4.675301
Ba    -2.747971  3.208405  6.469980
