34
Energy: -243346.165577 eV PBE+vdW (tier 2 basis)
C    -0.259845  -1.075545  1.827755
C    0.012461  0.069595  2.742767
O    1.039400  -0.017163  3.560139
H    -0.970335  -0.823503  1.035561
H    -0.674415  -1.913548  2.407373
H    0.678769  -1.420954  1.377730
N    -0.710153  1.149742  2.783147
C    -1.870876  1.585065  1.996208
C    -1.884338  3.112086  2.333457
O    -1.103355  3.509456  3.222715
H    -0.460021  1.988369  3.385571
H    -1.658905  1.448071  0.925053
C    -3.176505  0.856483  2.378840
C    -3.735008  1.218923  3.755626
C    -5.077636  0.539906  4.066830
C    -6.187031  0.778928  3.034011
N    -6.314099  2.204805  2.684852
H    -3.007695  -0.228948  2.298923
H    -3.918287  1.098789  1.608177
H    -3.869845  2.308684  3.809708
H    -3.011815  0.956463  4.544550
H    -5.416506  0.897513  5.051481
H    -4.940719  -0.547533  4.174981
H    -7.118301  0.335844  3.428077
H    -5.964466  0.231615  2.104748
H    -7.075608  2.323885  2.014864
H    -6.594814  2.741570  3.508774
N    -2.708809  3.927192  1.675490
C    -3.718934  3.601831  0.667739
H    -2.667362  4.891762  1.998072
H    -3.340172  2.853494  -0.038683
H    -3.932633  4.511123  0.097735
H    -4.644284  3.240596  1.144113
Ba    2.825989  0.010957  4.951883
