34
Energy: -243345.953712 eV PBE+vdW (tier 2 basis)
C    -1.099413  1.081199  -0.322687
C    -0.284292  0.777845  0.884003
O    1.018168  0.888507  0.773053
H    -0.641742  0.590520  -1.190073
H    -1.059438  2.171313  -0.484969
H    -2.153082  0.770958  -0.273869
N    -0.756150  0.545427  2.099228
C    -2.057023  -0.050737  2.445729
C    -2.082292  -1.437236  1.715873
O    -1.421453  -1.614421  0.689195
H    -0.032375  0.448238  2.809058
H    -1.992207  -0.244612  3.526305
C    -3.240069  0.920588  2.227011
C    -4.642408  0.379796  2.557241
C    -5.385264  -0.381945  1.445445
C    -5.554966  0.372582  0.122039
N    -4.335823  0.293855  -0.718492
H    -3.247813  1.283694  1.195144
H    -3.028733  1.781765  2.876902
H    -5.255486  1.252618  2.826311
H    -4.617453  -0.229253  3.477588
H    -6.385588  -0.624227  1.831720
H    -4.912377  -1.352649  1.232077
H    -5.759606  1.436158  0.318499
H    -6.442769  -0.022514  -0.398880
H    -4.210978  -0.673012  -1.029143
H    -4.490206  0.830674  -1.574821
N    -2.811100  -2.385391  2.330533
C    -3.018181  -3.721570  1.782928
H    -3.331385  -2.130793  3.163570
H    -4.007210  -3.806995  1.311590
H    -2.941284  -4.464354  2.584362
H    -2.248084  -3.913177  1.030864
Ba    3.109020  0.754211  -0.096041
