34
Energy: -243345.979425 eV PBE+vdW (tier 2 basis)
C    0.260620  -0.475148  0.186825
C    -0.398177  -0.887807  1.457611
O    -0.238128  -2.124510  1.874045
H    1.281420  -0.873258  0.149553
H    0.286508  0.611191  0.061275
H    -0.296201  -0.898090  -0.662798
N    -1.134032  -0.091476  2.177826
C    -1.572975  1.297767  1.974772
C    -2.108069  1.633880  3.401015
O    -2.461074  0.669453  4.105873
H    -1.608532  -0.410029  3.062411
H    -0.721383  1.925716  1.682830
C    -2.704881  1.318927  0.915135
C    -3.231112  2.680353  0.449590
C    -2.260730  3.566393  -0.350521
C    -1.469842  2.871453  -1.465998
N    -2.313251  1.981953  -2.273858
H    -3.539692  0.731701  1.326526
H    -2.349719  0.780027  0.023980
H    -3.643747  3.251418  1.293661
H    -4.097681  2.447815  -0.184666
H    -1.533966  4.065330  0.308219
H    -2.851872  4.385410  -0.788405
H    -0.667860  2.252542  -1.024817
H    -0.949251  3.652335  -2.049031
H    -3.103958  2.500518  -2.661902
H    -1.791696  1.639098  -3.081262
N    -2.205557  2.900382  3.820840
C    -1.716392  4.133573  3.215655
H    -2.634884  2.980539  4.741405
H    -1.222542  4.736218  3.986395
H    -2.534325  4.721059  2.779786
H    -0.982185  3.918221  2.434867
Ba    -0.060128  -4.245024  2.652521
