34
Energy: -243347.20964 eV PBE+vdW (tier 2 basis)
C    -0.668216  1.549531  0.512823
C    -0.881541  0.235678  1.191103
O    -0.131818  -0.756922  0.934435
H    0.330769  1.922548  0.780640
H    -1.412829  2.305131  0.783523
H    -0.675064  1.407785  -0.575513
N    -1.871141  0.130323  2.087961
C    -2.116871  -1.031291  2.963251
C    -2.831297  -2.136240  2.153420
O    -2.127460  -2.970483  1.500662
H    -2.429841  0.962327  2.265243
H    -1.132301  -1.453521  3.217129
C    -2.788917  -0.567240  4.265251
C    -2.696671  -1.558758  5.435348
C    -3.459685  -2.881566  5.304427
C    -3.394625  -3.718810  6.604240
N    -4.105605  -4.979806  6.615695
H    -3.839245  -0.274980  4.085714
H    -2.278878  0.362349  4.562256
H    -3.064511  -1.028545  6.326466
H    -1.632231  -1.762501  5.640141
H    -3.058966  -3.498162  4.479736
H    -4.520166  -2.686896  5.066248
H    -3.779233  -3.105518  7.434063
H    -2.337594  -3.917675  6.845077
H    -5.114677  -4.878761  6.528698
H    -3.773921  -5.646916  5.922390
N    -4.151233  -2.152597  2.126390
C    -4.978791  -3.134109  1.428829
H    -4.630982  -1.491491  2.732847
H    -4.377002  -3.650487  0.678186
H    -5.816464  -2.621441  0.944197
H    -5.372023  -3.866526  2.146509
Ba    0.088029  -3.121430  0.480615
