34
Energy: -243347.730045 eV PBE+vdW (tier 2 basis)
C    0.261320  -0.194814  0.989965
C    -0.242264  -0.170108  2.395719
O    0.520845  -0.402323  3.372657
H    1.091978  0.511360  0.864053
H    -0.510976  -0.002353  0.239600
H    0.675433  -1.198418  0.811288
N    -1.553680  0.092958  2.645081
C    -2.332036  1.147659  1.996531
C    -1.469504  2.424643  1.900658
O    -0.517163  2.603846  2.720318
H    -1.828611  -0.117883  3.601005
H    -2.633857  0.822394  0.991595
C    -3.616508  1.444447  2.817278
C    -3.434929  2.196276  4.152894
C    -2.977896  1.367516  5.368606
C    -2.535254  2.193695  6.574285
N    -1.267588  2.952341  6.303355
H    -4.139118  0.487783  2.970052
H    -4.277355  2.038350  2.172644
H    -4.405915  2.642531  4.410645
H    -2.760393  3.052296  3.992115
H    -2.145381  0.681015  5.127902
H    -3.796462  0.704195  5.684251
H    -2.339547  1.524032  7.421054
H    -3.338527  2.877827  6.887297
H    -1.511228  3.811307  5.798836
H    -0.920721  3.296458  7.204562
N    -1.752369  3.344346  0.986610
C    -2.806972  3.351179  -0.030374
H    -1.162481  4.175275  1.031788
H    -3.695898  3.882770  0.332719
H    -3.085971  2.333300  -0.317197
H    -2.428226  3.865430  -0.919410
Ba    0.777986  1.745776  4.709985
