34
Energy: -243347.739829 eV PBE+vdW (tier 2 basis)
C    -2.096367  -0.827519  0.493784
C    -1.329670  -0.564742  1.752064
O    -0.096339  -0.232408  1.676962
H    -3.122223  -1.156977  0.684070
H    -1.569583  -1.584385  -0.101881
H    -2.124756  0.090714  -0.109069
N    -1.976646  -0.679078  2.906069
C    -1.385091  -0.624206  4.255871
C    -0.629691  0.685257  4.523600
O    0.623709  0.784605  4.347179
H    -2.906291  -1.232638  2.925208
H    -2.256560  -0.605858  4.919569
C    -0.570667  -1.885030  4.605955
C    -1.232963  -3.212604  4.197990
C    -2.514768  -3.663287  4.924736
C    -3.795423  -2.824467  4.804590
N    -4.084086  -2.377364  3.412637
H    -0.369968  -1.868048  5.687902
H    0.416164  -1.834987  4.117139
H    -0.484947  -3.999708  4.368552
H    -1.399980  -3.214683  3.109791
H    -2.306853  -3.785385  5.998482
H    -2.736694  -4.677475  4.558407
H    -3.741080  -1.922691  5.432416
H    -4.625317  -3.421003  5.213179
H    -4.128280  -3.194596  2.796878
H    -5.022135  -1.970293  3.379940
N    -1.316147  1.727292  4.979975
C    -2.753652  1.820121  5.253324
H    -0.752268  2.550806  5.187330
H    -3.000466  2.874724  5.404990
H    -3.021337  1.271392  6.165862
H    -3.339453  1.451778  4.404197
Ba    2.082835  0.344593  2.447730
