34
Energy: -243347.511736 eV PBE+vdW (tier 2 basis)
C    -0.067737  1.969351  2.084150
C    -0.547797  0.687346  2.664154
O    -0.404902  0.411910  3.897156
H    0.697760  2.426904  2.715455
H    -0.961325  2.628192  2.036049
H    0.306222  1.852598  1.059195
N    -1.213654  -0.154596  1.856104
C    -2.167680  -1.174644  2.314114
C    -1.452411  -2.523433  2.521890
O    -0.679488  -2.649812  3.524446
H    -1.326110  0.152084  0.892586
H    -2.475789  -0.873531  3.327146
C    -3.412465  -1.172170  1.410182
C    -3.997228  0.234457  1.176005
C    -4.322259  1.041656  2.437412
C    -4.540221  2.532988  2.150755
N    -3.304419  3.177005  1.646832
H    -4.164657  -1.824661  1.877705
H    -3.178230  -1.607395  0.423020
H    -4.904867  0.118394  0.566769
H    -3.302610  0.814259  0.547084
H    -3.502654  0.977922  3.172589
H    -5.217386  0.627932  2.926711
H    -4.834004  3.025842  3.086124
H    -5.386503  2.658972  1.455623
H    -3.251711  4.131501  2.002958
H    -3.346543  3.281310  0.632514
N    -1.664554  -3.506800  1.666282
C    -1.069551  -4.841057  1.727291
H    -2.311138  -3.321133  0.902616
H    -0.431703  -5.002669  0.849643
H    -1.865139  -5.595238  1.734056
H    -0.471865  -4.928030  2.636818
Ba    0.273520  -1.368200  5.376164
