34
Energy: -243346.119892 eV PBE+vdW (tier 2 basis)
C    0.842349  0.964477  0.978955
C    0.153784  0.961310  2.301523
O    0.518168  1.848995  3.196979
H    0.848976  1.983738  0.572034
H    0.374897  0.290998  0.255529
H    1.889681  0.657880  1.113027
N    -0.792088  0.122684  2.615151
C    -1.421875  -0.968503  1.864190
C    -2.724270  -1.182781  2.694385
O    -2.769107  -0.700400  3.839463
H    -1.301288  0.166784  3.537068
H    -1.664642  -0.633337  0.845980
C    -0.507775  -2.219656  1.836184
C    -1.012288  -3.406113  1.008854
C    -1.288132  -3.114297  -0.470079
C    -1.412683  -4.404479  -1.299702
N    -0.154012  -5.148492  -1.282810
H    -0.331144  -2.533741  2.875973
H    0.467139  -1.901587  1.433597
H    -1.897206  -3.858136  1.483253
H    -0.232182  -4.181002  1.046350
H    -0.467000  -2.506325  -0.890026
H    -2.208513  -2.520151  -0.616259
H    -1.761809  -4.145286  -2.314834
H    -2.192398  -5.041814  -0.856617
H    -0.299317  -6.143789  -1.438661
H    0.489044  -4.821443  -2.002745
N    -3.706183  -1.879691  2.117257
C    -4.962746  -2.217097  2.782332
H    -3.557187  -2.227729  1.175313
H    -5.808777  -1.917212  2.153540
H    -5.006936  -1.681810  3.734097
H    -5.018951  -3.296319  2.972329
Ba    1.076285  3.359774  4.800398
