34
Energy: -243346.827276 eV PBE+vdW (tier 2 basis)
C    -0.535585  -0.357543  -0.411855
C    -0.375138  0.004870  1.021327
O    0.722109  0.520554  1.428076
H    0.285758  0.093792  -0.977507
H    -1.514169  -0.050769  -0.851565
H    -0.490985  -1.450841  -0.540871
N    -1.344067  -0.200640  1.945006
C    -2.216156  -1.376185  2.028165
C    -1.315088  -2.610288  2.299571
O    -0.047559  -2.528502  2.170017
H    -1.115585  0.223081  2.843365
H    -2.816941  -1.219852  2.938793
C    -3.214764  -1.530139  0.859734
C    -4.207409  -0.359676  0.819606
C    -5.100671  -0.337019  -0.434041
C    -4.564518  0.520997  -1.580327
N    -3.258961  0.042882  -2.088207
H    -3.764718  -2.470620  0.994468
H    -2.685552  -1.625548  -0.093828
H    -3.658210  0.592470  0.884492
H    -4.836872  -0.409863  1.721702
H    -6.086890  0.063046  -0.161263
H    -5.291586  -1.364030  -0.788323
H    -4.419171  1.550419  -1.220670
H    -5.328875  0.570160  -2.373637
H    -2.911422  0.705187  -2.785118
H    -3.396460  -0.831772  -2.601860
N    -1.856727  -3.751111  2.702391
C    -3.253430  -4.066298  3.015504
H    -1.188280  -4.510986  2.827727
H    -3.746871  -4.547473  2.161814
H    -3.806555  -3.166313  3.298761
H    -3.265024  -4.758350  3.864086
Ba    2.119492  -1.311768  2.216594
