34
Energy: -243348.123741 eV PBE+vdW (tier 2 basis)
C    -0.050710  -0.176220  0.319216
C    -0.139107  -0.163364  1.816976
O    0.867534  -0.463541  2.508058
H    -0.990378  0.070808  -0.185499
H    0.280957  -1.170753  -0.006806
H    0.721629  0.538108  0.003693
N    -1.332970  0.179389  2.347772
C    -1.815224  0.302682  3.745504
C    -1.013937  1.348032  4.547341
O    0.199291  1.174411  4.852583
H    -2.046267  0.386485  1.655440
H    -2.823904  0.708756  3.615185
C    -2.017002  -1.037340  4.504122
C    -0.739858  -1.753338  4.932831
C    -0.847222  -3.043477  5.742102
C    0.528061  -3.707273  5.865141
N    1.593248  -2.748359  6.322951
H    -2.624126  -1.685757  3.855532
H    -2.638822  -0.818615  5.386516
H    -0.190983  -1.038585  5.565761
H    -0.149675  -1.971241  4.027080
H    -1.527756  -3.760159  5.260764
H    -1.268738  -2.837710  6.738143
H    0.842975  -4.088321  4.882423
H    0.467303  -4.572621  6.540122
H    1.353821  -2.445719  7.274395
H    2.449958  -3.295401  6.456688
N    -1.647081  2.449665  4.949861
C    -3.033732  2.867193  4.714008
H    -1.063885  3.082743  5.496092
H    -3.239483  2.989659  3.643561
H    -3.175869  3.838818  5.195192
H    -3.747945  2.163616  5.159075
Ba    2.130554  -0.432754  4.635461
