34
Energy: -243347.042612 eV PBE+vdW (tier 2 basis)
C    -0.096993  1.571650  1.805798
C    -0.455488  0.579567  2.864294
O    0.063843  0.643322  4.022368
H    -0.685058  2.494026  1.934119
H    -0.269678  1.191381  0.794260
H    0.957803  1.843525  1.927967
N    -1.363423  -0.383297  2.605390
C    -2.589314  -0.144985  1.846083
C    -3.430028  0.879800  2.637667
O    -3.127317  1.150156  3.854008
H    -1.440740  -1.092036  3.335804
H    -2.352383  0.256619  0.844689
C    -3.352387  -1.466756  1.627284
C    -2.506912  -2.587978  1.000136
C    -1.771344  -2.283986  -0.314904
C    -2.627417  -1.752945  -1.470788
N    -2.771239  -0.274664  -1.418246
H    -4.214669  -1.245183  0.986380
H    -3.767938  -1.815682  2.587138
H    -3.191436  -3.434521  0.839180
H    -1.770124  -2.954433  1.732528
H    -1.295905  -3.221846  -0.634320
H    -0.932456  -1.587686  -0.141608
H    -3.635225  -2.191855  -1.427565
H    -2.188489  -2.083877  -2.424930
H    -1.900999  0.145654  -1.755370
H    -3.467622  0.010888  -2.111217
N    -4.466664  1.474047  2.073614
C    -4.950652  1.365387  0.695162
H    -4.996377  2.084708  2.696087
H    -5.136531  2.375174  0.311607
H    -5.892573  0.802252  0.673214
H    -4.205411  0.870473  0.058932
Ba    -1.574891  1.308842  5.746203
