34
Energy: -243346.004472 eV PBE+vdW (tier 2 basis)
C    0.106234  -1.106239  0.653664
C    -0.201847  -0.384932  1.922032
O    0.769649  -0.194058  2.782414
H    1.073063  -0.770227  0.261244
H    -0.663684  -0.966274  -0.110613
H    0.188804  -2.183698  0.860660
N    -1.387948  0.060219  2.224519
C    -2.658759  0.031722  1.489446
C    -3.472472  1.108318  2.268161
O    -3.011639  1.509843  3.353007
H    -1.575478  0.615954  3.101347
H    -2.490409  0.376000  0.458050
C    -3.297514  -1.378128  1.466723
C    -3.635297  -2.017410  2.819007
C    -4.913698  -1.517137  3.504380
C    -5.389870  -2.472766  4.609028
N    -5.691549  -3.795612  4.062694
H    -2.606679  -2.031353  0.912424
H    -4.201334  -1.325905  0.843807
H    -2.780565  -1.925982  3.511556
H    -3.766614  -3.096111  2.648327
H    -5.716075  -1.424370  2.752005
H    -4.779771  -0.519033  3.944872
H    -6.239628  -2.004231  5.138185
H    -4.589424  -2.592327  5.355604
H    -5.737752  -4.504432  4.792371
H    -6.588770  -3.806544  3.577525
N    -4.618803  1.565798  1.753520
C    -5.280823  1.203415  0.504718
H    -5.094435  2.236272  2.354103
H    -5.828444  2.076059  0.134202
H    -5.992246  0.378699  0.647544
H    -4.551552  0.921114  -0.262072
Ba    2.431343  0.218254  4.279283
