34
Energy: -243347.302337 eV PBE+vdW (tier 2 basis)
C    -0.412587  2.216366  0.239428
C    -0.163708  1.272484  1.378780
O    0.961000  1.139791  1.891003
H    0.011094  3.196540  0.487736
H    -1.470008  2.328113  -0.023653
H    0.132720  1.845877  -0.639945
N    -1.242217  0.563983  1.840769
C    -1.202966  -0.600462  2.731493
C    -0.695632  -0.329966  4.152011
O    -1.279432  -0.953727  5.120222
H    -2.132364  0.738478  1.386808
H    -2.255265  -0.882645  2.875451
C    -0.476271  -1.804189  2.067655
C    -0.431446  -3.115094  2.874749
C    0.812980  -3.297440  3.759136
C    0.832129  -4.590901  4.580440
N    0.230366  -4.414776  5.951841
H    0.546800  -1.499745  1.806210
H    -1.000673  -1.979044  1.119223
H    -0.461006  -3.954439  2.165260
H    -1.377858  -3.231227  3.449741
H    0.975305  -2.434968  4.426953
H    1.687106  -3.304327  3.092740
H    1.860977  -4.961186  4.682527
H    0.262329  -5.379541  4.070340
H    0.948272  -3.966658  6.533977
H    0.139676  -5.348442  6.368646
N    0.328804  0.461218  4.333697
C    0.909171  0.797394  5.626486
H    0.759375  0.818246  3.424765
H    1.421981  1.759609  5.537053
H    1.647100  0.041515  5.931738
H    0.128556  0.873772  6.390818
Ba    -2.050351  -2.881468  6.214826
