34
Energy: -243346.628878 eV PBE+vdW (tier 2 basis)
C    -0.305721  1.838946  0.340139
C    -0.220663  1.173266  1.674667
O    0.916928  1.046488  2.230526
H    0.387867  2.690449  0.367400
H    -1.305925  2.193910  0.090100
H    0.053079  1.171598  -0.456784
N    -1.312898  0.762683  2.374208
C    -2.378205  -0.174325  1.946109
C    -1.828985  -1.576276  2.299589
O    -0.579203  -1.820354  2.129511
H    -1.063538  0.613266  3.353470
H    -3.246562  0.034891  2.585249
C    -2.823932  -0.021003  0.477541
C    -4.025881  -0.882411  0.048747
C    -3.671227  -2.273427  -0.488252
C    -4.903079  -3.142787  -0.776627
N    -5.686090  -3.408607  0.447807
H    -1.978307  -0.222532  -0.195867
H    -3.090899  1.037628  0.359820
H    -4.551227  -0.330188  -0.743871
H    -4.748778  -0.957888  0.874239
H    -3.023865  -2.820490  0.215637
H    -3.092282  -2.163454  -1.419251
H    -4.563996  -4.098034  -1.197352
H    -5.514640  -2.661923  -1.557552
H    -6.524288  -2.828324  0.477219
H    -6.022220  -4.370797  0.452146
N    -2.607679  -2.499399  2.837449
C    -4.040378  -2.490024  3.142398
H    -2.136304  -3.391464  2.991014
H    -4.385496  -1.474379  3.357619
H    -4.195655  -3.106482  4.033999
H    -4.620455  -2.906327  2.290936
Ba    1.776664  -1.253253  2.429543
