34
Energy: -243347.205065 eV PBE+vdW (tier 2 basis)
C    0.031703  -0.968982  0.101417
C    -0.002658  -0.697868  1.570013
O    1.074684  -0.593065  2.236614
H    0.604225  -1.886096  -0.089118
H    0.567210  -0.148008  -0.395817
H    -0.963810  -1.065934  -0.343579
N    -1.191009  -0.556939  2.168202
C    -1.384361  -0.150912  3.564237
C    -1.057456  -1.322848  4.520111
O    0.114470  -1.341840  5.028687
H    -2.032743  -0.621515  1.597683
H    -0.582053  0.565553  3.788688
C    -2.744838  0.573750  3.777860
C    -3.831238  0.337208  2.721929
C    -5.235812  0.737635  3.194476
C    -6.320341  0.059165  2.348845
N    -6.241084  -1.405947  2.501429
H    -2.530196  1.648653  3.839481
H    -3.124259  0.298821  4.772167
H    -3.910845  -0.728569  2.446798
H    -3.593105  0.898568  1.803330
H    -5.361906  1.829351  3.169014
H    -5.371293  0.436218  4.247030
H    -6.164888  0.302355  1.287263
H    -7.303815  0.474464  2.621676
H    -6.683936  -1.868429  1.707681
H    -6.777583  -1.698611  3.319669
N    -1.906336  -2.291320  4.829935
C    -3.280146  -2.548043  4.384089
H    -1.523360  -2.957070  5.501238
H    -3.531507  -3.573689  4.667363
H    -3.378988  -2.458629  3.299140
H    -3.993166  -1.868227  4.864599
Ba    2.377117  -0.863822  4.261452
