34
Energy: -243346.615648 eV PBE+vdW (tier 2 basis)
C    -0.386882  0.369924  0.129695
C    -0.142821  0.071957  1.573304
O    1.040351  0.084036  2.039657
H    -1.221090  1.068685  -0.002656
H    -0.638481  -0.548701  -0.422961
H    0.522710  0.794760  -0.304329
N    -1.159242  -0.223990  2.416315
C    -2.289220  -1.115450  2.115644
C    -1.698480  -2.512084  1.765031
O    -0.456868  -2.753396  1.917940
H    -0.867399  -0.234010  3.392272
H    -2.804832  -1.238955  3.081473
C    -3.335797  -0.580164  1.116849
C    -3.856155  0.817812  1.465830
C    -4.878045  1.317995  0.442019
C    -5.414254  2.719530  0.759355
N    -6.287309  3.174781  -0.317047
H    -4.192420  -1.273585  1.128523
H    -2.945050  -0.605758  0.089996
H    -3.014439  1.527328  1.522688
H    -4.302651  0.801097  2.473791
H    -5.723107  0.611494  0.385563
H    -4.431545  1.344253  -0.564672
H    -4.568256  3.421517  0.822661
H    -5.886680  2.708617  1.762748
H    -7.201926  2.724908  -0.275724
H    -6.450351  4.178857  -0.261854
N    -2.528663  -3.445449  1.335618
C    -2.144911  -4.825353  1.026845
H    -3.504113  -3.187083  1.211342
H    -1.430333  -4.848018  0.195460
H    -3.043643  -5.376576  0.739160
H    -1.697843  -5.303094  1.906386
Ba    1.890867  -2.181634  2.463002
