34
Energy: -243345.86843 eV PBE+vdW (tier 2 basis)
C    -0.598718  2.350944  0.659542
C    -0.519250  1.957070  2.105144
O    0.453671  2.298451  2.806833
H    -0.407779  3.426796  0.570444
H    -1.553209  2.105403  0.181848
H    0.208843  1.837233  0.119262
N    -1.564915  1.229535  2.596829
C    -1.694014  0.454835  3.843505
C    -1.337371  1.171992  5.141885
O    -1.977176  0.793566  6.218173
H    -2.299991  1.031129  1.925708
H    -2.773159  0.266332  3.934836
C    -1.003813  -0.938645  3.781885
C    0.523628  -0.951754  3.669281
C    1.116152  -2.366080  3.756510
C    0.806840  -3.272893  2.559960
N    1.380753  -4.594320  2.773388
H    -1.459707  -1.465764  2.931449
H    -1.314602  -1.500326  4.679756
H    0.965799  -0.339643  4.470626
H    0.835725  -0.480193  2.725843
H    0.772912  -2.870218  4.674657
H    2.208805  -2.273561  3.852724
H    1.156569  -2.772528  1.632782
H    -0.280505  -3.406936  2.448601
H    2.400414  -4.580974  2.765645
H    1.071941  -5.269222  2.076187
N    -0.400343  2.070476  5.182548
C    0.026664  2.770262  6.384652
H    0.094182  2.237605  4.209010
H    0.769276  3.521632  6.102071
H    0.492593  2.076830  7.099668
H    -0.819384  3.282489  6.863509
Ba    -2.957501  0.170301  8.179798
