34
Energy: -243345.942077 eV PBE+vdW (tier 2 basis)
C    -0.227510  -0.931476  -0.991581
C    -0.053035  -0.261426  0.329556
O    1.158818  -0.119198  0.800781
H    0.412460  -0.441459  -1.736879
H    -1.261683  -0.920222  -1.345312
H    0.103076  -1.976890  -0.913567
N    -1.050536  0.190851  1.039634
C    -2.502106  0.176135  0.808600
C    -2.966056  1.299645  1.784116
O    -2.232298  1.529981  2.760865
H    -0.902294  0.666997  1.961449
H    -2.717830  0.421818  -0.239204
C    -3.078430  -1.209618  1.193207
C    -4.582211  -1.398117  0.980032
C    -5.016027  -2.836554  1.280815
C    -6.517055  -3.064322  1.066080
N    -6.865022  -4.454210  1.315113
H    -2.822105  -1.397547  2.247442
H    -2.536313  -1.964115  0.600962
H    -4.848047  -1.148878  -0.060419
H    -5.144623  -0.707442  1.626182
H    -4.756424  -3.088804  2.322473
H    -4.465033  -3.544617  0.642885
H    -6.774601  -2.837038  0.020681
H    -7.086726  -2.346935  1.692386
H    -6.840690  -4.705103  2.302137
H    -7.772699  -4.712678  0.934985
N    -4.110710  1.961300  1.568016
C    -5.031851  1.916948  0.437533
H    -4.322723  2.634243  2.303372
H    -5.232546  2.939053  0.095345
H    -5.982039  1.445449  0.718343
H    -4.601364  1.357334  -0.396939
Ba    3.260606  0.174502  1.652786
