34
Energy: -243347.792566 eV PBE+vdW (tier 2 basis)
C    0.425011  0.037110  0.969149
C    -0.365378  0.444390  2.168906
O    -0.022253  1.426865  2.881429
H    0.021999  -0.836539  0.448762
H    1.439511  -0.207494  1.318715
H    0.531292  0.876926  0.270827
N    -1.475542  -0.258573  2.523591
C    -2.507130  -0.715795  1.593878
C    -2.780952  0.397345  0.553700
O    -2.576783  1.611241  0.847736
H    -1.806165  -0.040061  3.460023
H    -2.172327  -1.626584  1.074406
C    -3.810964  -1.050147  2.367893
C    -4.620411  0.137761  2.928978
C    -4.131732  0.757898  4.251506
C    -4.798445  2.081984  4.618491
N    -4.427434  3.182183  3.665545
H    -3.549843  -1.762124  3.166021
H    -4.454311  -1.609763  1.675859
H    -5.646542  -0.218761  3.097811
H    -4.710132  0.909444  2.148037
H    -3.039797  0.933566  4.262551
H    -4.301400  0.045078  5.071816
H    -4.467657  2.390609  5.618012
H    -5.891262  1.961521  4.666760
H    -5.036632  3.111700  2.843608
H    -4.711613  4.067729  4.096658
N    -3.267263  0.009612  -0.617017
C    -3.663612  0.891610  -1.714234
H    -3.376724  -0.990879  -0.768756
H    -3.107893  0.624081  -2.620579
H    -3.440643  1.924934  -1.440459
H    -4.737523  0.785409  -1.910195
Ba    -1.775114  3.249149  2.605113
