34
Energy: -243347.240435 eV PBE+vdW (tier 2 basis)
C    -0.975244  -0.925129  -0.889189
C    -0.406950  -0.254846  0.322944
O    0.755860  0.256115  0.275298
H    -0.212884  -0.968364  -1.671907
H    -1.825544  -0.341921  -1.270439
H    -1.346511  -1.935965  -0.677910
N    -1.106679  -0.163408  1.478936
C    -1.887568  -1.258039  2.072478
C    -0.959014  -2.492537  2.242613
O    0.281615  -2.422177  1.910038
H    -0.650007  0.446971  2.155178
H    -2.095220  -0.921777  3.100455
C    -3.257565  -1.538045  1.405786
C    -4.426286  -0.817774  2.090631
C    -4.792013  -1.305891  3.500602
C    -5.170143  -2.789422  3.607461
N    -3.998343  -3.658908  3.931434
H    -3.434227  -2.620960  1.384325
H    -3.218365  -1.226798  0.356750
H    -5.308047  -0.932326  1.442976
H    -4.223666  0.264354  2.120073
H    -5.644267  -0.703788  3.843418
H    -3.989083  -1.085447  4.226742
H    -5.593476  -3.145426  2.657603
H    -5.955137  -2.917377  4.366241
H    -3.766343  -3.525494  4.920491
H    -4.297025  -4.636666  3.868593
N    -1.489072  -3.562057  2.779759
C    -0.725721  -4.776629  3.052228
H    -2.519958  -3.541338  3.143003
H    -1.411041  -5.530293  3.451045
H    0.064824  -4.592445  3.791796
H    -0.269907  -5.166135  2.133922
Ba    2.358665  -1.333196  1.266602
