34
Energy: -243348.392476 eV PBE+vdW (tier 2 basis)
C    -0.096493  1.202115  0.927806
C    -0.379565  -0.047202  1.703364
O    0.560887  -0.808940  2.055777
H    -0.989568  1.793326  0.700535
H    0.398283  0.926715  -0.013680
H    0.612168  1.822447  1.491905
N    -1.669461  -0.315930  1.995795
C    -2.220757  -1.513604  2.664158
C    -1.870295  -1.499147  4.167216
O    -0.720057  -1.822573  4.571842
H    -2.348168  0.365125  1.669123
H    -3.310657  -1.405476  2.580242
C    -1.817814  -2.816318  1.940480
C    -2.075166  -4.112494  2.715247
C    -1.530832  -5.361477  2.002235
C    -0.035228  -5.379533  1.682817
N    0.834201  -5.185765  2.896241
H    -0.761785  -2.744082  1.647512
H    -2.364027  -2.835702  0.986175
H    -3.155417  -4.249205  2.869372
H    -1.643483  -4.046679  3.726605
H    -2.062787  -5.506500  1.050105
H    -1.776371  -6.245498  2.610932
H    0.227248  -4.597354  0.953700
H    0.200630  -6.337671  1.199261
H    1.721999  -5.664907  2.711085
H    0.426511  -5.732470  3.663228
N    -2.839747  -1.137547  5.001234
C    -2.709721  -1.043462  6.454455
H    -3.742329  -0.893815  4.602529
H    -3.536629  -1.582977  6.929589
H    -2.740320  0.007506  6.768283
H    -1.758345  -1.486455  6.756983
Ba    1.463273  -2.520138  3.610027
