34
Energy: -243345.713156 eV PBE+vdW (tier 2 basis)
C    -0.168888  1.361880  -0.075837
C    -0.207398  0.966382  1.366045
O    0.758977  1.355615  2.154853
H    -0.163324  2.457568  -0.159235
H    -1.025151  0.974324  -0.636600
H    0.752716  0.983327  -0.539105
N    -1.199981  0.241163  1.800204
C    -1.498959  -0.284327  3.138318
C    -2.458204  -1.462041  2.773743
O    -3.111350  -1.333034  1.729047
H    -1.966510  -0.085867  1.165418
H    -0.571095  -0.629852  3.613596
C    -2.168673  0.837898  3.975810
C    -2.547579  0.503378  5.427939
C    -3.923804  -0.146595  5.601813
C    -4.229454  -0.514176  7.056962
N    -5.416886  -1.355513  7.130848
H    -3.057777  1.179899  3.424686
H    -1.461993  1.683062  3.969842
H    -2.531273  1.445929  5.996039
H    -1.768000  -0.125606  5.889585
H    -4.019417  -1.057871  4.996708
H    -4.695830  0.544524  5.226239
H    -4.295991  0.412332  7.662774
H    -3.388438  -1.091746  7.474262
H    -6.262686  -0.865180  6.840519
H    -5.574719  -1.722428  8.067871
N    -2.535134  -2.556293  3.546181
C    -1.858090  -2.889306  4.791252
H    -3.219317  -3.230246  3.204013
H    -1.472487  -3.913897  4.732178
H    -2.544882  -2.820264  5.645726
H    -1.013545  -2.216920  4.966951
Ba    2.626347  2.344561  3.032605
