34
Energy: -243345.639366 eV PBE+vdW (tier 2 basis)
C    1.545976  1.373409  1.135244
C    2.040417  0.279821  2.016379
O    3.231093  -0.195025  1.756686
H    0.539720  1.709768  1.372601
H    1.540105  1.015036  0.098329
H    2.247624  2.218274  1.209591
N    1.427185  -0.198385  3.085213
C    0.007705  -0.117640  3.498957
C    -0.797156  -0.878933  2.402736
O    -0.471780  -0.726084  1.223436
H    1.968787  -0.906494  3.578514
H    -0.015959  -0.663070  4.450822
C    -0.480946  1.321121  3.787957
C    -1.777943  1.421062  4.609263
C    -3.069582  1.477960  3.785740
C    -4.313447  1.704584  4.656829
N    -4.234096  2.978969  5.364699
H    -0.619984  1.876934  2.852045
H    0.336735  1.813848  4.334070
H    -1.732087  2.343728  5.203596
H    -1.826293  0.607003  5.350825
H    -3.219344  0.566937  3.187386
H    -2.992056  2.302376  3.056794
H    -4.383553  0.906565  5.412229
H    -5.213154  1.611078  4.020459
H    -4.862657  3.022393  6.163954
H    -4.439183  3.772966  4.759232
N    -1.805599  -1.692603  2.780558
C    -2.313821  -2.040490  4.102876
H    -2.300683  -2.090715  1.984420
H    -1.531095  -1.963204  4.863989
H    -2.655000  -3.081242  4.082704
H    -3.157224  -1.402747  4.399543
Ba    5.153577  -0.821671  0.678805
