34
Energy: -243346.690114 eV PBE+vdW (tier 2 basis)
C    0.429261  0.234414  0.811740
C    0.012297  -0.028101  2.222306
O    0.860438  -0.356183  3.110051
H    1.357295  -0.311310  0.611977
H    0.637492  1.306114  0.662575
H    -0.339780  -0.066694  0.090970
N    -1.281979  0.105089  2.580308
C    -2.160253  1.170473  2.109449
C    -1.590076  2.508472  2.646737
O    -0.681602  2.500712  3.544167
H    -1.512995  -0.262313  3.503003
H    -2.129171  1.198316  1.009592
C    -3.615842  0.918284  2.569135
C    -4.409319  -0.030410  1.659441
C    -3.834238  -1.439660  1.502946
C    -4.717936  -2.359576  0.649717
N    -4.056340  -3.648146  0.453170
H    -4.141585  1.879976  2.634572
H    -3.584950  0.533460  3.603195
H    -4.518592  0.439269  0.667103
H    -5.428764  -0.090203  2.069842
H    -3.694178  -1.899159  2.497490
H    -2.840734  -1.421628  1.028018
H    -4.860642  -1.898310  -0.339123
H    -5.722753  -2.427615  1.109715
H    -4.445931  -4.139567  -0.349970
H    -4.190955  -4.260839  1.257770
N    -2.041270  3.658043  2.169721
C    -3.047298  3.897935  1.131519
H    -1.643751  4.487519  2.611178
H    -4.013957  4.154585  1.583553
H    -3.170638  3.020095  0.491742
H    -2.713434  4.736748  0.511536
Ba    1.159305  1.419442  4.795922
