34
Energy: -243347.316157 eV PBE+vdW (tier 2 basis)
C    -0.092175  -0.846483  0.009365
C    -0.178059  -0.383729  1.427152
O    0.839569  0.097392  2.015568
H    0.195266  0.006272  -0.621718
H    -1.029784  -1.267733  -0.367490
H    0.704308  -1.596156  -0.084142
N    -1.352039  -0.476344  2.065267
C    -1.639023  0.080677  3.398006
C    -1.010890  -0.796280  4.503288
O    0.144544  -0.460306  4.931361
H    -2.147134  -0.832781  1.539765
H    -1.070059  1.020907  3.470401
C    -3.125256  0.424029  3.543825
C    -3.504136  1.731622  2.833316
C    -4.985952  2.110378  2.986578
C    -5.430180  2.496482  4.401691
N    -5.455421  1.338560  5.320934
H    -3.396743  0.512902  4.606337
H    -3.745271  -0.398849  3.154803
H    -3.264106  1.663615  1.759066
H    -2.882668  2.550416  3.235301
H    -5.621803  1.290723  2.611046
H    -5.186225  2.964461  2.323845
H    -6.405233  3.008265  4.330350
H    -4.724905  3.234395  4.814773
H    -6.262617  0.750586  5.101308
H    -5.617188  1.665875  6.274658
N    -1.603284  -1.861937  5.019642
C    -2.899720  -2.476272  4.715358
H    -1.065814  -2.301385  5.767104
H    -2.878284  -3.500680  5.098116
H    -3.071041  -2.520150  3.635864
H    -3.718029  -1.931592  5.201706
Ba    2.191661  0.463845  3.993492
