34
Energy: -243347.357543 eV PBE+vdW (tier 2 basis)
C    0.661590  -0.734545  2.058255
C    0.573239  0.217033  3.208544
O    1.621372  0.654806  3.774169
H    0.736837  -0.179057  1.109849
H    -0.205650  -1.400318  1.995282
H    1.576688  -1.327125  2.163865
N    -0.634962  0.641020  3.642168
C    -1.717701  1.022183  2.737480
C    -1.248281  2.231829  1.886712
O    -0.150063  2.838017  2.162693
H    -0.600951  1.178968  4.508846
H    -1.898893  0.193715  2.039658
C    -3.010470  1.305535  3.535736
C    -3.909269  0.070076  3.713582
C    -4.987113  -0.140171  2.637638
C    -4.557091  -0.327343  1.178231
N    -4.275619  0.960221  0.470589
H    -3.570874  2.111070  3.044754
H    -2.717663  1.710830  4.517556
H    -4.426684  0.156071  4.678652
H    -3.281840  -0.831987  3.801559
H    -5.717785  0.685045  2.687862
H    -5.554659  -1.037199  2.922715
H    -5.352758  -0.874572  0.651666
H    -3.656152  -0.957228  1.109064
H    -4.212768  0.761988  -0.532549
H    -5.104041  1.556855  0.560970
N    -2.034043  2.561474  0.894146
C    -1.788604  3.685779  -0.003767
H    -2.917986  1.946098  0.745907
H    -2.629926  3.763310  -0.698337
H    -0.867747  3.534679  -0.581775
H    -1.705805  4.624407  0.557897
Ba    2.019248  3.043184  3.241992
