34
Energy: -243348.271505 eV PBE+vdW (tier 2 basis)
C    -0.080004  0.742095  0.658355
C    -0.584643  0.031898  1.876133
O    -0.370587  -1.199114  2.037260
H    -0.312063  1.811986  0.642832
H    -0.515606  0.269138  -0.232291
H    1.007806  0.608762  0.591386
N    -1.272749  0.760355  2.780504
C    -1.932646  0.270125  4.008302
C    -0.869542  -0.182175  5.031830
O    -0.442462  -1.370958  5.034819
H    -1.409169  1.740896  2.554725
H    -2.445269  1.146343  4.424466
C    -2.995625  -0.803838  3.721734
C    -3.680735  -1.374274  4.970840
C    -4.527901  -2.629834  4.704557
C    -3.791311  -3.969457  4.633262
N    -2.968170  -4.176004  3.385134
H    -2.553325  -1.605199  3.116532
H    -3.746791  -0.344702  3.062496
H    -4.329394  -0.597956  5.401784
H    -2.938608  -1.611082  5.749373
H    -5.145202  -2.495476  3.800096
H    -5.249978  -2.731659  5.526924
H    -4.535020  -4.774672  4.711616
H    -3.121824  -4.076831  5.501799
H    -2.927386  -5.188251  3.221407
H    -3.520302  -3.834475  2.590772
N    -0.409417  0.700231  5.913399
C    -0.766341  2.114397  6.065621
H    0.292688  0.328258  6.552305
H    -0.171416  2.524596  6.886148
H    -1.825628  2.235218  6.324162
H    -0.530666  2.686312  5.159854
Ba    -0.303098  -3.258513  3.427401
