34
Energy: -243348.161056 eV PBE+vdW (tier 2 basis)
C    1.144439  -0.361865  3.019151
C    0.025346  0.506995  2.545255
O    0.133785  1.764879  2.528172
H    1.373389  -0.113672  4.064454
H    2.045220  -0.134218  2.433685
H    0.926834  -1.432330  2.944889
N    -1.112564  -0.083397  2.123881
C    -2.243166  0.676064  1.589233
C    -3.138270  1.213545  2.724480
O    -2.928696  2.395796  3.122135
H    -1.163169  -1.098845  2.137727
H    -1.786038  1.584888  1.189509
C    -2.930182  -0.022048  0.402028
C    -2.251743  0.363576  -0.927384
C    -2.720090  1.698661  -1.546995
C    -2.645386  2.974417  -0.697216
N    -1.262435  3.393134  -0.267863
H    -3.992067  0.263790  0.372345
H    -2.913370  -1.114282  0.538317
H    -2.450132  -0.419533  -1.670750
H    -1.156043  0.346753  -0.791936
H    -3.773009  1.589559  -1.849991
H    -2.160788  1.861333  -2.480774
H    -3.278388  2.874385  0.199986
H    -3.080937  3.803363  -1.268480
H    -0.609192  2.625057  -0.452722
H    -0.944406  4.135023  -0.897002
N    -4.074254  0.428517  3.240271
C    -4.976415  0.793766  4.333497
H    -4.189394  -0.497578  2.835898
H    -4.825329  0.115698  5.181968
H    -6.016587  0.718951  3.995179
H    -4.763675  1.819988  4.640780
Ba    -1.032289  3.966631  2.514274
