34
Energy: -243347.273353 eV PBE+vdW (tier 2 basis)
C    -1.604862  -1.642996  0.368939
C    -1.567773  -0.397472  1.198070
O    -1.131940  0.700886  0.677135
H    -2.190035  -1.470468  -0.544463
H    -2.028971  -2.496105  0.907371
H    -0.581027  -1.895803  0.059950
N    -1.992453  -0.456372  2.438577
C    -1.974127  0.545544  3.502302
C    -2.515410  -0.280057  4.721001
O    -2.989082  -1.400308  4.500239
H    -2.399049  -1.333247  2.839706
H    -0.929221  0.834088  3.698848
C    -2.801959  1.823071  3.238279
C    -4.244744  1.612249  2.737061
C    -4.412870  1.732266  1.212993
C    -4.271254  3.168366  0.700475
N    -3.882029  3.197101  -0.746678
H    -2.234998  2.462642  2.540155
H    -2.814587  2.390557  4.178436
H    -4.905712  2.344528  3.221658
H    -4.615354  0.629507  3.060095
H    -5.400524  1.347073  0.921158
H    -3.681354  1.080959  0.705918
H    -3.493011  3.714965  1.265278
H    -5.202906  3.726670  0.871260
H    -4.498431  2.559315  -1.261701
H    -4.102187  4.120885  -1.134549
N    -2.437056  0.297443  5.926874
C    -2.892914  -0.351186  7.157016
H    -1.961008  1.189132  6.014571
H    -2.036899  -0.677860  7.760679
H    -3.493598  -1.223346  6.886469
H    -3.502183  0.347839  7.740538
Ba    -1.183727  2.612753  -0.684355
