34
Energy: -243346.837369 eV PBE+vdW (tier 2 basis)
C    0.182020  0.259032  0.565284
C    -0.009964  0.135356  2.042413
O    0.984820  -0.011195  2.820076
H    0.368050  1.308984  0.288962
H    -0.683086  -0.097376  -0.003976
H    1.072556  -0.313095  0.282123
N    -1.248592  0.200371  2.573017
C    -2.272176  1.136032  2.121940
C    -1.798598  2.568659  2.498748
O    -0.717428  2.745457  3.150071
H    -1.301303  -0.051217  3.560885
H    -2.341168  1.079490  1.025203
C    -3.641195  0.770918  2.731154
C    -4.138836  -0.620685  2.331815
C    -4.330530  -0.833830  0.827794
C    -5.207027  -2.065977  0.535693
N    -6.538790  -1.888483  1.115059
H    -4.378040  1.521749  2.407264
H    -3.578518  0.865277  3.828779
H    -5.116171  -0.775669  2.813536
H    -3.469868  -1.396584  2.738443
H    -3.366006  -0.958868  0.305866
H    -4.819452  0.051792  0.383862
H    -4.745476  -2.950477  0.999470
H    -5.209277  -2.250595  -0.552738
H    -7.155249  -1.380623  0.481131
H    -6.985557  -2.784561  1.300225
N    -2.561196  3.576018  2.110347
C    -2.321644  4.995497  2.369841
H    -3.414650  3.342783  1.606540
H    -2.394559  5.553642  1.429527
H    -1.324198  5.122901  2.794968
H    -3.071740  5.379154  3.072692
Ba    1.396448  1.991549  4.189842
