34
Energy: -243346.090115 eV PBE+vdW (tier 2 basis)
C    0.527281  -0.355372  0.060707
C    0.195523  -0.162775  1.501071
O    1.159352  -0.293057  2.385570
H    1.420507  0.229642  -0.192377
H    -0.291197  -0.068606  -0.604924
H    0.764332  -1.413948  -0.119017
N    -0.997922  0.127218  1.930750
C    -2.276089  0.310131  1.229587
C    -3.083398  1.098726  2.303246
O    -2.714831  1.017827  3.486572
H    -1.202382  0.287974  2.949463
H    -2.129481  0.933102  0.334610
C    -2.869767  -1.069724  0.859597
C    -4.284263  -1.061940  0.245916
C    -5.459619  -1.222174  1.225344
C    -5.508321  -2.553507  1.985527
N    -4.507018  -2.608664  3.072230
H    -2.883572  -1.699361  1.763283
H    -2.168792  -1.524695  0.143617
H    -4.329691  -1.896924  -0.469105
H    -4.432478  -0.161926  -0.376301
H    -6.388793  -1.130481  0.644006
H    -5.487766  -0.399877  1.957503
H    -5.293931  -3.380361  1.291338
H    -6.539366  -2.711738  2.346465
H    -4.793404  -1.985043  3.830133
H    -4.499340  -3.545281  3.478896
N    -4.111111  1.835013  1.868699
C    -5.006798  2.575425  2.752612
H    -4.336654  1.807025  0.879478
H    -5.183597  3.576067  2.343580
H    -4.536249  2.658970  3.735684
H    -5.968592  2.055393  2.857105
Ba    2.773648  -0.511083  3.959028
