34
Energy: -243346.204558 eV PBE+vdW (tier 2 basis)
C    1.024918  0.201139  0.658115
C    0.292074  -0.249984  1.877800
O    0.876021  -0.132994  3.044898
H    1.981735  -0.333345  0.582621
H    1.249314  1.274030  0.736465
H    0.448683  0.028969  -0.256110
N    -0.904281  -0.752184  1.768363
C    -1.794316  -1.324733  2.782117
C    -2.921451  -1.939998  1.877289
O    -2.649373  -2.073468  0.672157
H    -1.318181  -1.026014  0.833120
H    -1.278515  -2.185276  3.242709
C    -2.271161  -0.371369  3.882137
C    -3.201489  0.757507  3.421377
C    -4.080693  1.334954  4.543603
C    -4.829319  0.298344  5.393472
N    -5.467078  -0.752929  4.570074
H    -1.398400  0.045252  4.420604
H    -2.786701  -1.002362  4.619682
H    -3.853153  0.371009  2.625132
H    -2.622876  1.569403  2.956973
H    -4.805268  2.022895  4.082960
H    -3.481455  1.957117  5.227100
H    -5.549158  0.832681  6.034741
H    -4.134506  -0.208677  6.080943
H    -5.988660  -1.385292  5.180969
H    -6.172855  -0.329501  3.961293
N    -4.058534  -2.321415  2.456383
C    -5.116721  -2.948205  1.663000
H    -4.361166  -1.889092  3.352388
H    -5.881699  -3.326571  2.347324
H    -4.706217  -3.781731  1.083861
H    -5.572801  -2.234517  0.963028
Ba    1.979786  0.126673  5.000488
