34
Energy: -243348.044414 eV PBE+vdW (tier 2 basis)
C    -0.437578  -0.979775  0.100051
C    -0.833227  -0.294932  1.367327
O    -0.256030  0.759462  1.752657
H    -0.504199  -0.263977  -0.729966
H    -1.049924  -1.857709  -0.130309
H    0.614993  -1.286102  0.172312
N    -1.835852  -0.824786  2.100083
C    -2.322187  -0.186628  3.320297
C    -1.403745  -0.450695  4.532357
O    -0.650951  0.504042  4.891796
H    -2.308530  -1.651946  1.746068
H    -2.151913  0.881142  3.155387
C    -3.836319  -0.326705  3.549312
C    -4.622969  0.813019  2.871375
C    -4.112563  2.220848  3.263670
C    -3.250502  2.903132  2.188480
N    -2.219809  3.812862  2.792717
H    -4.025784  -0.289016  4.632384
H    -4.202590  -1.307432  3.213104
H    -5.676858  0.704106  3.154200
H    -4.598436  0.695542  1.777080
H    -3.537468  2.152100  4.204974
H    -4.963952  2.872712  3.498543
H    -3.897169  3.457385  1.493220
H    -2.714504  2.161754  1.577229
H    -1.969613  4.516929  2.089600
H    -2.673758  4.361782  3.530713
N    -1.387991  -1.609143  5.178616
C    -2.197878  -2.805160  4.942189
H    -0.749040  -1.636869  5.973314
H    -1.653209  -3.670350  5.331967
H    -2.359989  -2.967611  3.872574
H    -3.165186  -2.738656  5.455905
Ba    0.184749  2.461323  3.535495
