34
Energy: -243347.1865 eV PBE+vdW (tier 2 basis)
C    -1.870951  -2.865649  1.220520
C    -1.551444  -1.701896  2.097945
O    -0.733152  -0.804952  1.724883
H    -0.947298  -3.293335  0.813212
H    -2.464574  -2.498995  0.368838
H    -2.444303  -3.646141  1.731394
N    -2.171690  -1.599868  3.281596
C    -2.134064  -0.401239  4.132405
C    -0.780427  -0.308810  4.870344
O    0.106226  0.461785  4.373940
H    -2.872144  -2.302819  3.505331
H    -2.109244  0.464696  3.452555
C    -3.403687  -0.273067  4.996914
C    -4.582984  0.390524  4.267249
C    -5.079884  -0.334652  3.013818
C    -6.325121  0.304820  2.387920
N    -6.647210  -0.366054  1.127373
H    -3.153575  0.324125  5.885969
H    -3.702750  -1.264437  5.371766
H    -4.307819  1.427782  4.012972
H    -5.404654  0.474786  4.994032
H    -5.307666  -1.388850  3.255941
H    -4.310714  -0.352818  2.224650
H    -6.109345  1.360483  2.164031
H    -7.147555  0.305084  3.128197
H    -7.157940  -1.233871  1.294353
H    -7.259264  0.214696  0.555303
N    -0.505196  -0.994046  5.970398
C    -1.318849  -1.961253  6.712497
H    0.418146  -0.795544  6.356372
H    -0.639250  -2.611942  7.270990
H    -1.904587  -2.586458  6.033023
H    -1.985054  -1.456958  7.422827
Ba    0.901498  0.941897  2.111738
