34
Energy: -243348.252044 eV PBE+vdW (tier 2 basis)
C    -0.418375  0.583992  -0.364797
C    -0.712848  0.089809  1.020568
O    -0.162375  -0.959826  1.445703
H    0.664824  0.720626  -0.477144
H    -0.925950  1.519600  -0.621165
H    -0.719286  -0.191972  -1.082132
N    -1.577368  0.817399  1.753625
C    -2.181774  0.598909  3.091037
C    -1.148613  0.641278  4.228691
O    -0.190557  -0.173470  4.315468
H    -1.937283  1.638584  1.276730
H    -2.802895  1.496321  3.213161
C    -3.193109  -0.575601  3.163464
C    -2.719871  -2.037117  3.271901
C    -2.555687  -2.569672  4.704011
C    -2.038830  -4.009602  4.769999
N    -0.536459  -4.084012  4.730331
H    -3.818677  -0.464776  2.266512
H    -3.861730  -0.359860  4.011345
H    -1.819553  -2.187661  2.655681
H    -3.480935  -2.659521  2.778802
H    -3.540139  -2.537994  5.193149
H    -1.907583  -1.920210  5.315508
H    -2.420730  -4.587126  3.917393
H    -2.409493  -4.504843  5.677588
H    -0.280178  -5.046328  4.486123
H    -0.208005  -3.991286  5.698303
N    -1.340689  1.572003  5.159855
C    -0.494372  1.726341  6.343532
H    -2.107495  2.226794  5.041216
H    -0.953263  2.466040  7.004535
H    0.507571  2.070502  6.058807
H    -0.408390  0.771667  6.874682
Ba    0.931119  -2.146987  3.303515
