34
Energy: -243346.403554 eV PBE+vdW (tier 2 basis)
C    -0.571339  1.258390  0.977025
C    -0.236037  0.927462  2.391948
O    0.810076  1.493546  2.888988
H    0.302870  1.041232  0.348666
H    -0.762471  2.336125  0.890955
H    -1.436109  0.701011  0.607360
N    -1.021891  0.097714  3.061721
C    -0.791847  -0.626986  4.321544
C    -0.303354  0.180647  5.514389
O    -0.711387  -0.224820  6.705912
H    -1.815425  -0.381682  2.516236
H    -1.786675  -1.001376  4.602800
C    0.141678  -1.850157  4.104509
C    -0.225374  -2.735395  2.904979
C    -1.642329  -3.359211  2.898611
C    -2.553497  -2.884668  1.763148
N    -3.016787  -1.478967  1.939370
H    0.124141  -2.445044  5.030963
H    1.171772  -1.484108  3.978625
H    0.524981  -3.536361  2.873107
H    -0.069023  -2.165972  1.976592
H    -2.151727  -3.203181  3.865492
H    -1.553533  -4.449491  2.802581
H    -3.408877  -3.570588  1.667820
H    -2.003194  -2.932392  0.813255
H    -3.789683  -1.463934  2.610125
H    -3.429892  -1.150256  1.063426
N    0.522358  1.160846  5.357348
C    1.016354  1.871724  6.514974
H    0.816406  1.387943  3.977553
H    1.684149  2.682254  6.204966
H    1.610882  1.209332  7.177767
H    0.192377  2.343070  7.089246
Ba    -0.671448  -0.037487  8.962597
