34
Energy: -243345.979989 eV PBE+vdW (tier 2 basis)
C    -0.840011  -1.654376  2.743268
C    -0.878104  -0.934586  4.048864
O    -0.401618  -1.539582  5.108200
H    0.172594  -2.039319  2.566939
H    -1.136295  -1.025721  1.899438
H    -1.516197  -2.520169  2.786718
N    -1.362720  0.268056  4.189837
C    -1.943882  1.210424  3.225671
C    -1.777687  2.556068  3.997943
O    -1.633208  2.500600  5.230147
H    -1.342207  0.771360  5.112513
H    -1.348381  1.220329  2.301250
C    -3.416064  0.841308  2.919636
C    -4.122886  1.749646  1.891790
C    -4.979819  2.874578  2.492397
C    -6.325965  2.387973  3.041009
N    -7.021053  3.476544  3.715159
H    -3.971445  0.829531  3.869635
H    -3.411030  -0.195546  2.552952
H    -4.766609  1.115224  1.264739
H    -3.381497  2.163940  1.188585
H    -5.168740  3.630051  1.713974
H    -4.451971  3.395550  3.304547
H    -6.165712  1.590421  3.784528
H    -6.903294  1.928005  2.213294
H    -7.315345  4.206765  3.066770
H    -7.847563  3.156107  4.216517
N    -1.790763  3.680732  3.277518
C    -1.748520  5.016427  3.868383
H    -1.944077  3.609986  2.276868
H    -1.102101  5.661907  3.264608
H    -1.347160  4.938866  4.882195
H    -2.755647  5.452390  3.914651
Ba    0.467638  -2.519977  6.975756
