34
Energy: -243347.292235 eV PBE+vdW (tier 2 basis)
C    -0.001351  -0.895878  -0.120784
C    0.125861  -0.153554  1.169612
O    0.737535  0.958214  1.220775
H    -0.569249  -0.272922  -0.826697
H    -0.503663  -1.863344  -0.018814
H    0.993482  -1.048473  -0.558448
N    -0.431990  -0.678899  2.268506
C    -0.555651  -0.011762  3.577575
C    0.788449  -0.100985  4.337035
O    1.691358  0.759976  4.092322
H    -0.919712  -1.566031  2.163734
H    -0.701130  1.061370  3.378237
C    -1.783367  -0.542223  4.324212
C    -2.131016  0.264916  5.585415
C    -3.181368  -0.418500  6.470027
C    -4.567042  -0.569415  5.831560
N    -5.453424  -1.276446  6.747723
H    -1.654737  -1.611965  4.575038
H    -2.628039  -0.514089  3.620359
H    -2.487281  1.262448  5.280195
H    -1.224050  0.435784  6.187593
H    -3.280051  0.166408  7.397053
H    -2.829594  -1.415915  6.779813
H    -4.499141  -1.179156  4.916019
H    -4.925946  0.432750  5.513787
H    -6.327910  -1.536676  6.294189
H    -5.698302  -0.698399  7.552148
N    0.962886  -1.081917  5.203978
C    2.165811  -1.321675  5.999544
H    0.171549  -1.702631  5.362326
H    1.897243  -1.357596  7.061816
H    2.878350  -0.512102  5.829235
H    2.617033  -2.279745  5.713365
Ba    2.331225  2.368166  2.368821
