34
Energy: -243347.389402 eV PBE+vdW (tier 2 basis)
C    -0.311355  1.681861  0.256921
C    -0.329462  0.769703  1.452932
O    0.637280  -0.055643  1.617618
H    0.055036  2.681122  0.539688
H    -1.303886  1.813540  -0.192456
H    0.377258  1.277095  -0.490613
N    -1.268154  0.782710  2.422450
C    -2.168004  1.923532  2.578051
C    -1.523908  2.904360  3.584765
O    -0.538536  2.524124  4.286847
H    -2.087128  -0.647016  2.294618
H    -2.299339  2.469700  1.629481
C    -3.573912  1.470090  3.039064
C    -3.632419  0.593838  4.316493
C    -4.209706  -0.820400  4.122379
C    -3.257361  -1.890469  3.601307
N    -2.690529  -1.563489  2.239811
H    -4.038078  0.947862  2.188386
H    -4.200791  2.358394  3.179814
H    -4.259644  1.101798  5.058755
H    -2.636895  0.522814  4.785061
H    -5.105590  -0.775277  3.482051
H    -4.569804  -1.199350  5.089792
H    -3.759969  -2.862561  3.528464
H    -2.391890  -2.012146  4.267411
H    -2.098927  -2.324668  1.886150
H    -3.441719  -1.425123  1.553341
N    -1.988000  4.143898  3.719775
C    -3.059603  4.824245  2.993351
H    -1.509098  4.687002  4.438093
H    -4.002607  4.790687  3.554534
H    -3.208787  4.378560  2.005353
H    -2.774815  5.872518  2.854870
Ba    0.935049  0.526274  4.029119
