34
Energy: -243346.560793 eV PBE+vdW (tier 2 basis)
C    0.054520  1.258257  -0.258419
C    0.102974  -0.083111  0.393580
O    0.965212  -0.934099  0.003273
H    -0.546170  1.989693  0.282133
H    -0.296728  1.181783  -1.296910
H    1.093944  1.614105  -0.312076
N    -0.673951  -0.419534  1.458682
C    -2.149332  -0.400636  1.562375
C    -2.605097  -1.796376  1.075055
O    -1.968750  -2.360510  0.117166
H    -0.278242  -1.229140  1.939209
H    -2.390778  -0.292572  2.628171
C    -2.859916  0.730355  0.790828
C    -4.381682  0.729745  0.949596
C    -5.042365  1.998528  0.403055
C    -6.563738  1.978218  0.606202
N    -6.901572  1.750887  2.018214
H    -2.598536  0.677973  -0.276736
H    -2.462957  1.678585  1.180712
H    -4.664564  0.653252  2.008722
H    -4.818660  -0.144415  0.438432
H    -4.825678  2.127042  -0.668905
H    -4.617479  2.878603  0.914472
H    -6.994513  1.149890  0.022946
H    -6.986721  2.907606  0.186801
H    -6.767762  2.606726  2.559733
H    -7.889371  1.515873  2.112273
N    -3.623535  -2.425050  1.640537
C    -4.468030  -2.054334  2.781533
H    -3.859606  -3.310699  1.191264
H    -4.657825  -2.958381  3.369940
H    -5.422657  -1.637523  2.438447
H    -3.969855  -1.318697  3.417297
Ba    0.105358  -2.994858  -1.033038
