34
Energy: -243346.89422 eV PBE+vdW (tier 2 basis)
C    -2.165025  4.445061  -0.822867
C    -1.391892  3.249543  -0.369467
O    -0.123586  3.229240  -0.426695
H    -1.605732  4.939111  -1.625114
H    -2.261059  5.170864  0.000582
H    -3.170219  4.189883  -1.174045
N    -2.038627  2.178324  0.140241
C    -3.176904  2.265211  1.055919
C    -2.726961  3.101887  2.278257
O    -1.489273  3.271450  2.530443
H    -1.455180  1.352227  0.277870
H    -4.016034  2.778444  0.561400
C    -3.591381  0.825315  1.433805
C    -4.849809  0.678327  2.295036
C    -5.240941  -0.791204  2.540434
C    -4.386246  -1.537429  3.568479
N    -2.982053  -1.707255  3.132747
H    -2.756936  0.311617  1.940695
H    -3.753826  0.304577  0.477106
H    -5.693362  1.192620  1.804336
H    -4.706003  1.154936  3.278630
H    -5.244330  -1.339489  1.583755
H    -6.280984  -0.813304  2.895298
H    -4.882221  -2.496725  3.795200
H    -4.373325  -0.966171  4.509662
H    -2.946971  -2.404904  2.385134
H    -2.444703  -2.117420  3.898512
N    -3.664029  3.625696  3.048379
C    -3.408682  4.378707  4.278664
H    -4.633313  3.448260  2.796342
H    -2.876417  3.755105  5.006744
H    -4.368812  4.684643  4.701557
H    -2.813556  5.273650  4.062412
Ba    0.877865  3.277979  1.830735
