34
Energy: -243347.26019 eV PBE+vdW (tier 2 basis)
C    0.183938  -0.289731  -0.216040
C    0.126287  -0.104325  1.266187
O    1.137179  0.327717  1.903127
H    1.039447  -0.925104  -0.477937
H    0.359506  0.690773  -0.681711
H    -0.730009  -0.722112  -0.636172
N    -1.017807  -0.390746  1.898052
C    -1.344818  -0.101358  3.303820
C    -0.750413  -1.181053  4.238649
O    0.505435  -1.188317  4.445868
H    -1.788999  -0.735209  1.330050
H    -0.796562  0.815136  3.573736
C    -2.851562  0.168364  3.447931
C    -3.802583  -0.843574  2.769464
C    -5.198966  -0.878583  3.405387
C    -5.219370  -1.491305  4.812435
N    -6.578685  -1.599138  5.297696
H    -3.050464  1.170332  3.043299
H    -3.066907  0.247847  4.523170
H    -3.387787  -1.868717  2.782913
H    -3.913332  -0.585366  1.704427
H    -5.860361  -1.468883  2.754418
H    -5.633229  0.130884  3.446053
H    -4.676196  -0.843014  5.520483
H    -4.658715  -2.464019  4.777266
H    -7.121084  -2.297734  4.791286
H    -6.628567  -1.818767  6.290129
N    -1.544482  -2.051345  4.832439
C    -1.085349  -3.087425  5.759174
H    -2.545587  -2.005820  4.640426
H    -1.963026  -3.603485  6.156809
H    -0.524251  -2.636791  6.585985
H    -0.444531  -3.811204  5.241128
Ba    2.587878  -0.101996  3.783262
