34
Energy: -243347.068486 eV PBE+vdW (tier 2 basis)
C    0.749404  0.404724  0.395399
C    0.373984  -0.163838  1.722210
O    0.929651  -1.227824  2.137581
H    1.089035  -0.386413  -0.280334
H    1.604033  1.081413  0.557307
H    -0.044079  0.993567  -0.071558
N    -0.539948  0.444661  2.514919
C    -1.854742  0.956677  2.063574
C    -2.407385  -0.001274  0.978299
O    -2.041178  -1.237552  1.026101
H    -0.541420  0.063939  3.459604
H    -2.515550  0.722145  2.916532
C    -1.969188  2.488359  1.930261
C    -1.141596  3.272597  0.899422
C    -1.503996  3.176456  -0.591199
C    -2.855403  3.768460  -1.003193
N    -4.026669  2.995016  -0.484365
H    -1.693067  2.867328  2.925360
H    -3.039175  2.717133  1.838889
H    -0.077188  3.030831  1.035341
H    -1.216473  4.330782  1.194272
H    -1.446499  2.140915  -0.964620
H    -0.734027  3.728110  -1.150767
H    -2.912712  3.770974  -2.098583
H    -2.918280  4.819589  -0.685354
H    -4.457265  3.490256  0.298446
H    -4.755413  2.964590  -1.199683
N    -3.295426  0.424743  0.118309
C    -3.952353  -0.474329  -0.827452
H    -3.566635  1.480387  -0.003302
H    -4.502950  -1.263794  -0.301334
H    -3.223820  -0.939627  -1.503948
H    -4.658643  0.114343  -1.420111
Ba    -0.639505  -3.095379  1.725899
