34
Energy: -243347.96149 eV PBE+vdW (tier 2 basis)
C    -0.742992  -0.817671  -0.289131
C    -0.564662  -0.381595  1.130536
O    0.593124  -0.135092  1.588290
H    -0.389914  -0.010755  -0.947029
H    -1.780771  -1.054454  -0.545520
H    -0.111731  -1.692452  -0.489826
N    -1.655927  -0.245094  1.894474
C    -1.719802  0.338642  3.247911
C    -1.322095  -0.726060  4.292714
O    -0.075022  -1.006275  4.408620
H    -2.550396  -0.461806  1.460798
H    -0.936908  1.112171  3.298825
C    -3.092061  0.982961  3.445909
C    -3.219054  1.806907  4.744382
C    -4.645001  1.835467  5.319030
C    -5.004115  0.648242  6.212919
N    -4.895274  -0.666397  5.516601
H    -3.858537  0.195782  3.405641
H    -3.284081  1.635512  2.581923
H    -2.884933  2.832758  4.538697
H    -2.536091  1.421289  5.518844
H    -5.378176  1.933061  4.501351
H    -4.768625  2.740803  5.929018
H    -6.014506  0.798013  6.622575
H    -4.315166  0.614909  7.070255
H    -5.188247  -1.401234  6.166200
H    -5.586399  -0.705429  4.761634
N    -2.237348  -1.324991  5.016347
C    -1.888364  -2.353950  5.994226
H    -3.277237  -1.019989  5.040175
H    -2.812137  -2.712336  6.456796
H    -1.230042  -1.949933  6.774254
H    -1.382621  -3.197568  5.509583
Ba    2.090110  -0.635436  3.427978
