34
Energy: -243347.851297 eV PBE+vdW (tier 2 basis)
C    2.565378  1.174338  2.244773
C    1.487996  1.240512  3.279921
O    1.489822  2.205736  4.124189
H    2.453965  0.321114  1.570487
H    3.544525  1.118795  2.738725
H    2.555194  2.102605  1.657829
N    0.548085  0.303173  3.295831
C    -0.607182  0.386241  4.197988
C    -0.188935  0.130484  5.661215
O    -0.090260  1.115722  6.459308
H    0.525297  -0.442303  2.495537
H    -0.929761  1.439554  4.204831
C    -1.818902  -0.415483  3.664497
C    -1.900676  -1.948648  3.775776
C    -0.833381  -2.828251  3.099309
C    -0.647168  -2.600102  1.591674
N    0.424477  -1.602183  1.313003
H    -1.933556  -0.107316  2.613738
H    -2.701587  -0.009628  4.179080
H    -2.872574  -2.220111  3.336443
H    -2.002191  -2.240701  4.832809
H    -1.131260  -3.873020  3.261383
H    0.158660  -2.738865  3.581946
H    -1.580956  -2.227852  1.148821
H    -0.425257  -3.553636  1.093428
H    1.325295  -2.087156  1.285713
H    0.299915  -1.218255  0.373279
N    0.084722  -1.103268  6.054658
C    0.498730  -1.478759  7.406207
H    -0.008272  -1.844541  5.364949
H    0.161572  -2.500240  7.606036
H    0.043195  -0.798636  8.131348
H    1.591829  -1.440656  7.504460
Ba    0.983262  3.299335  6.186810
