34
Energy: -243345.7438 eV PBE+vdW (tier 2 basis)
C    -0.089042  2.161308  -0.540430
C    0.388332  0.873608  0.035993
O    1.220877  0.176720  -0.700479
H    0.780409  2.829000  -0.649036
H    -0.852696  2.654782  0.055552
H    -0.512408  1.972918  -1.534150
N    0.158553  0.425479  1.258985
C    -0.984212  0.703416  2.156120
C    -2.241307  0.221632  1.366629
O    -2.284738  0.431365  0.147777
H    0.662811  -0.432742  1.476258
H    -0.806117  0.056838  3.024626
C    -1.031506  2.158136  2.676735
C    -2.036177  2.419804  3.813610
C    -3.412781  2.911569  3.350371
C    -4.407031  3.062531  4.509203
N    -4.832758  1.748574  5.029798
H    -1.247847  2.856096  1.858730
H    -0.012406  2.383730  3.022751
H    -1.598477  3.191210  4.463924
H    -2.145956  1.530973  4.451910
H    -3.847456  2.232691  2.599170
H    -3.296448  3.887093  2.851405
H    -5.260669  3.672712  4.174948
H    -3.927600  3.626510  5.322634
H    -4.944684  1.777623  6.042040
H    -5.748821  1.500244  4.656430
N    -3.208618  -0.432262  2.032542
C    -3.309365  -0.826671  3.438225
H    -4.010016  -0.647152  1.442298
H    -2.322775  -1.070072  3.848824
H    -3.917203  -1.736675  3.488329
H    -3.780426  -0.042518  4.056113
Ba    2.216101  -0.764542  -2.516530
