34
Energy: -243347.421832 eV PBE+vdW (tier 2 basis)
C    -0.496214  -0.565984  0.123101
C    -0.438414  -0.517646  1.617186
O    0.618807  -0.865955  2.224804
H    -1.437814  -0.192796  -0.292429
H    -0.354920  -1.608198  -0.196836
H    0.337897  0.011981  -0.294886
N    -1.529935  -0.103471  2.274364
C    -1.810651  -0.122533  3.728151
C    -1.029335  0.961118  4.485781
O    0.225418  0.869552  4.652538
H    -2.321685  0.142580  1.687388
H    -2.878139  0.129965  3.793307
C    -1.667182  -1.498556  4.399813
C    -2.546682  -2.568416  3.746163
C    -2.698651  -3.842373  4.590554
C    -3.209642  -3.604464  6.019261
N    -4.318804  -2.638755  6.037988
H    -1.983819  -1.358374  5.443777
H    -0.616239  -1.833021  4.424169
H    -2.151643  -2.836723  2.754826
H    -3.545100  -2.134247  3.586557
H    -1.745295  -4.391503  4.642548
H    -3.393954  -4.508975  4.058509
H    -2.402954  -3.189474  6.645285
H    -3.456309  -4.584343  6.463892
H    -5.139420  -3.036036  5.575339
H    -4.610327  -2.463332  7.000207
N    -1.733337  1.961323  4.996105
C    -1.198989  3.056794  5.803570
H    -2.736178  1.962929  4.826331
H    -1.761703  3.124747  6.741759
H    -1.296489  4.003878  5.258556
H    -0.145929  2.864598  6.019023
Ba    2.155648  -0.480269  4.034805
