34
Energy: -243346.690152 eV PBE+vdW (tier 2 basis)
C    -0.761894  1.691048  -0.832745
C    -0.774125  0.660122  0.249123
O    0.197535  -0.143073  0.399586
H    -0.273874  2.612483  -0.476384
H    -1.767987  1.948820  -1.180248
H    -0.166539  1.312121  -1.670637
N    -1.816988  0.589220  1.104818
C    -2.470553  1.761291  1.685532
C    -1.408012  2.534657  2.501259
O    -0.299265  1.970988  2.797639
H    -1.806504  -0.229884  1.713560
H    -2.844479  2.404213  0.875069
C    -3.653740  1.309421  2.567131
C    -4.795500  0.666432  1.773075
C    -5.914811  0.164065  2.688765
C    -7.075620  -0.485206  1.922696
N    -8.046128  -1.033935  2.862663
H    -4.033820  2.175665  3.125299
H    -3.270812  0.611006  3.332054
H    -4.411491  -0.172345  1.169521
H    -5.193656  1.402001  1.054389
H    -6.303080  1.000807  3.293281
H    -5.523037  -0.576675  3.403082
H    -6.684727  -1.318946  1.319397
H    -7.494135  0.250025  1.205768
H    -8.636926  -0.306189  3.264439
H    -8.666290  -1.702581  2.409125
N    -1.648240  3.773010  2.903794
C    -2.826098  4.612135  2.668060
H    -0.915650  4.180154  3.485515
H    -3.489636  4.599388  3.542169
H    -3.380065  4.274992  1.787934
H    -2.490716  5.640063  2.494335
Ba    1.491119  0.306660  2.456116
