34
Energy: -243346.86443 eV PBE+vdW (tier 2 basis)
C    0.827562  1.401121  0.293377
C    0.542414  0.644811  1.549989
O    1.454801  0.421418  2.401667
H    0.105677  1.192224  -0.502173
H    1.837247  1.140777  -0.045878
H    0.828028  2.484390  0.493555
N    -0.714110  0.214170  1.808037
C    -1.912302  1.035776  1.590899
C    -1.670015  2.389115  2.286543
O    -0.919027  2.425197  3.327744
H    -0.782470  -0.415589  2.608349
H    -2.084067  1.178332  0.515913
C    -3.109716  0.277392  2.218895
C    -4.505701  0.864348  1.995807
C    -5.066307  0.694585  0.580134
C    -6.389447  1.448973  0.387844
N    -6.186558  2.914197  0.420434
H    -2.914453  0.192925  3.301677
H    -3.068967  -0.743091  1.806065
H    -4.536620  1.925023  2.289220
H    -5.179142  0.353838  2.700515
H    -5.227493  -0.374794  0.374376
H    -4.351205  1.047426  -0.182585
H    -7.084947  1.163395  1.190124
H    -6.856963  1.124335  -0.552969
H    -6.263462  3.299618  -0.520874
H    -6.921491  3.367702  0.961383
N    -2.216960  3.500102  1.826914
C    -3.012026  3.722433  0.614314
H    -2.056722  4.318314  2.415105
H    -2.659091  3.076182  -0.196331
H    -2.865972  4.764000  0.311307
H    -4.092058  3.534743  0.778330
Ba    1.092509  1.682894  4.510993
