34
Energy: -243347.42041 eV PBE+vdW (tier 2 basis)
C    0.521469  0.239474  0.495422
C    -0.014042  0.352951  1.886194
O    0.633920  0.983349  2.779380
H    0.599475  1.250222  0.069740
H    -0.102463  -0.374423  -0.162296
H    1.537261  -0.174932  0.521543
N    -1.194192  -0.212914  2.163729
C    -1.974005  -0.049652  3.403893
C    -1.436120  -0.997409  4.497000
O    -0.364153  -0.690417  5.110084
H    -1.667770  -0.689802  1.399406
H    -1.766490  0.964750  3.778237
C    -3.469305  -0.175075  3.093911
C    -4.031624  0.942970  2.202040
C    -3.931206  2.361513  2.786041
C    -4.450749  2.513793  4.224007
N    -5.730383  1.824316  4.401865
H    -4.034612  -0.162946  4.038198
H    -3.669102  -1.148238  2.610051
H    -5.087623  0.695030  2.037035
H    -3.562421  0.927458  1.205657
H    -4.500176  3.030367  2.122986
H    -2.895217  2.739251  2.743353
H    -4.470562  3.591574  4.469766
H    -3.737686  2.059878  4.936399
H    -6.063249  1.922293  5.361065
H    -6.451523  2.243968  3.812066
N    -2.111271  -2.100052  4.765429
C    -1.754546  -3.105242  5.764947
H    -2.976969  -2.244200  4.248941
H    -2.580158  -3.220896  6.477091
H    -0.854841  -2.785188  6.294179
H    -1.571482  -4.067966  5.272257
Ba    1.495617  0.884518  5.031758
