34
Energy: -243347.60865 eV PBE+vdW (tier 2 basis)
C    -0.682999  -0.532776  -0.855937
C    -0.477278  -0.513482  0.624189
O    0.596440  -0.916094  1.149337
H    -1.732906  -0.673871  -1.135032
H    -0.074609  -1.336556  -1.283903
H    -0.331525  0.413312  -1.296820
N    -1.457174  -0.039855  1.438943
C    -2.289764  1.116860  1.158780
C    -1.370823  2.338970  0.903584
O    -0.136571  2.278987  1.187954
H    -1.280490  -0.203211  2.428182
H    -2.843746  0.938844  0.224967
C    -3.353622  1.301663  2.284570
C    -2.992061  1.000939  3.756126
C    -2.316875  2.078952  4.623333
C    -0.841679  2.407807  4.388553
N    0.096598  1.234858  4.533626
H    -4.178615  0.629117  2.015637
H    -3.764203  2.317758  2.217611
H    -2.474189  0.028009  3.849974
H    -3.956133  0.790987  4.240830
H    -2.439026  1.778003  5.675365
H    -2.878812  3.020626  4.524896
H    -0.534448  3.178461  5.106372
H    -0.701318  2.844487  3.391638
H    0.598809  1.332792  5.420386
H    -0.457549  0.384139  4.676365
N    -1.877435  3.438921  0.357101
C    -3.241730  3.710269  -0.102295
H    -1.201571  4.192375  0.231777
H    -3.774586  2.783054  -0.331308
H    -3.186236  4.308215  -1.018005
H    -3.804944  4.274940  0.651711
Ba    1.767935  1.018032  2.282785
