34
Energy: -243347.007087 eV PBE+vdW (tier 2 basis)
C    -1.435390  -0.112711  -0.664640
C    -0.811006  -0.124650  0.679473
O    0.375020  -0.552403  0.875887
H    -1.738822  0.895959  -0.979681
H    -2.380523  -0.716925  -0.633846
H    -0.737261  -0.518356  -1.401416
N    -1.512724  0.286620  1.765653
C    -2.371739  1.461906  1.812137
C    -1.469362  2.654425  2.240234
O    -0.203994  2.564003  2.126475
H    -1.089937  0.023670  2.655748
H    -2.676964  1.681346  0.778169
C    -3.642867  1.216390  2.644063
C    -4.465080  0.047477  2.079289
C    -5.102007  0.325892  0.710858
C    -5.468301  -0.941594  -0.069218
N    -4.265243  -1.729743  -0.426891
H    -4.267164  2.124619  2.641650
H    -3.366248  1.025997  3.692837
H    -5.248030  -0.207449  2.806658
H    -3.807778  -0.833236  2.019693
H    -4.423857  0.914149  0.069373
H    -6.004407  0.941565  0.842219
H    -5.973207  -0.644524  -0.996854
H    -6.196405  -1.537932  0.504593
H    -4.119284  -2.485980  0.242759
H    -4.413441  -2.193528  -1.323534
N    -2.060394  3.752096  2.677615
C    -1.389066  4.995088  3.058048
H    -3.072763  3.723573  2.774659
H    -1.961887  5.843227  2.668236
H    -0.382267  5.009486  2.634796
H    -1.330164  5.075857  4.151007
Ba    1.851265  1.248094  1.660620
