34
Energy: -243347.213135 eV PBE+vdW (tier 2 basis)
C    1.305277  2.732481  2.326378
C    0.166284  2.204117  3.137077
O    -0.554890  2.989178  3.827962
H    0.902734  3.417187  1.566043
H    1.883321  1.948637  1.826177
H    1.973081  3.323175  2.966179
N    -0.081346  0.889096  3.105062
C    -1.248833  0.204764  3.680328
C    -1.052903  -0.018718  5.197706
O    -1.223763  0.966202  5.984497
H    0.530753  0.311538  2.532159
H    -2.088292  0.915635  3.625941
C    -1.618915  -1.029943  2.829708
C    -0.496834  -1.996935  2.414396
C    -1.036516  -3.211254  1.644982
C    0.084231  -4.172743  1.190716
N    -0.323329  -5.350481  0.453761
H    -2.098148  -0.650296  1.915561
H    -2.411648  -1.575275  3.364191
H    0.095974  -2.361308  3.274078
H    0.234939  -1.485366  1.763049
H    -1.599748  -2.865089  0.763588
H    -1.754613  -3.759506  2.276717
H    0.650565  -4.505933  2.076810
H    0.801997  -3.614642  0.567041
H    -0.775466  -5.129523  -0.431736
H    -0.938480  -5.962621  0.986900
N    -0.738261  -1.223066  5.638510
C    -0.540389  -1.599103  7.037502
H    -0.618359  -1.951436  4.936811
H    0.519471  -1.816402  7.220922
H    -1.131262  -2.495493  7.257113
H    -0.863734  -0.779157  7.682023
Ba    -1.537901  3.388280  5.996845
