34
Energy: -243347.168469 eV PBE+vdW (tier 2 basis)
C    -1.290637  -1.330949  0.787918
C    -1.247528  -0.038381  1.541445
O    -0.954500  1.053298  0.916977
H    -0.294829  -1.532941  0.369481
H    -1.990982  -1.252795  -0.054737
H    -1.584311  -2.176916  1.416952
N    -1.522290  -0.051209  2.824719
C    -1.463516  1.017834  3.820933
C    -1.792160  0.238891  5.136040
O    -2.278884  -0.893571  5.025171
H    -1.839262  -0.921010  3.309925
H    -0.435615  1.408904  3.859143
C    -2.438822  2.196760  3.589485
C    -3.900459  1.824737  3.268668
C    -4.245525  1.824708  1.769805
C    -4.297869  3.228477  1.160389
N    -4.076466  3.190117  -0.321734
H    -2.016121  2.838034  2.797079
H    -2.403679  2.819418  4.491889
H    -4.571021  2.528165  3.782126
H    -4.139540  0.838246  3.689371
H    -5.218333  1.335335  1.617454
H    -3.516268  1.206416  1.219897
H    -3.516542  3.878541  1.596921
H    -5.253155  3.714373  1.405664
H    -4.682667  2.466024  -0.722003
H    -4.425787  4.061453  -0.735347
N    -1.554042  0.819580  6.322613
C    -0.905887  2.090458  6.624636
H    -1.837808  0.243784  7.113373
H    -1.636758  2.894911  6.788990
H    -0.218230  2.383915  5.823990
H    -0.312788  1.975104  7.538224
Ba    -1.345284  2.852924  -0.541221
