34
Energy: -243346.944845 eV PBE+vdW (tier 2 basis)
C    -1.397627  -0.582655  -0.560730
C    -0.316952  -0.190894  0.397045
O    0.535825  -1.046760  0.793149
H    -1.193265  -1.585861  -0.944412
H    -1.465153  0.122992  -1.396821
H    -2.380536  -0.589261  -0.064704
N    -0.244967  1.070622  0.875805
C    -1.401149  1.870237  1.297354
C    -2.175201  1.060843  2.345269
O    -1.653240  0.034072  2.902900
H    0.612688  1.261399  1.392836
H    -0.944034  2.740194  1.852885
C    -2.248576  2.508162  0.167506
C    -2.698400  3.949570  0.487841
C    -1.694888  5.056502  0.108514
C    -0.250562  4.887996  0.586030
N    -0.162735  4.551096  2.025581
H    -3.119955  1.878300  -0.063098
H    -1.634377  2.518955  -0.743377
H    -2.943685  4.044890  1.560287
H    -3.636382  4.151514  -0.046574
H    -2.092513  6.012606  0.481498
H    -1.670359  5.155443  -0.986929
H    0.301577  5.807846  0.335967
H    0.243581  4.076967  0.026411
H    0.805782  4.636850  2.339970
H    -0.684777  5.236413  2.577497
N    -3.379018  1.479176  2.701824
C    -4.194680  0.870571  3.753762
H    -3.748046  2.300913  2.229672
H    -3.660761  0.884994  4.711263
H    -4.448671  -0.164305  3.494967
H    -5.117725  1.447594  3.851400
Ba    0.045418  -1.722021  3.111337
