34
Energy: -243348.081538 eV PBE+vdW (tier 2 basis)
C    0.180862  0.354622  0.935481
C    -0.373730  0.402739  2.321579
O    0.139037  1.140886  3.208834
H    0.194892  1.371473  0.520968
H    -0.382316  -0.301115  0.263426
H    1.224371  0.014181  0.978408
N    -1.451528  -0.358308  2.610234
C    -2.085789  -0.327338  3.926276
C    -1.360331  -1.265069  4.915451
O    -0.512657  -0.747568  5.698560
H    -1.853045  -0.930129  1.871876
H    -1.834528  0.667180  4.309988
C    -3.629477  -0.373704  3.897692
C    -4.176790  1.009028  4.296845
C    -3.793183  1.412645  5.743892
C    -3.326197  2.853965  5.937895
N    -1.997790  3.139735  5.288929
H    -4.008875  -1.134978  4.593555
H    -3.991447  -0.655265  2.898706
H    -5.267821  1.019284  4.183586
H    -3.803832  1.746710  3.566121
H    -3.015696  0.739511  6.145610
H    -4.658537  1.256870  6.402222
H    -3.208657  3.056911  7.010206
H    -4.087435  3.554619  5.562054
H    -2.137976  3.144168  4.271966
H    -1.779222  4.120978  5.495597
N    -1.635998  -2.561783  4.900144
C    -1.008109  -3.569893  5.755747
H    -2.354740  -2.884791  4.257070
H    -1.773251  -4.068195  6.362710
H    -0.284248  -3.078623  6.409552
H    -0.498444  -4.317311  5.136060
Ba    0.401215  1.610248  5.652450
