34
Energy: -243347.74836 eV PBE+vdW (tier 2 basis)
C    0.373996  1.379354  0.783338
C    -0.241337  0.477634  1.802864
O    0.460387  -0.262500  2.544751
H    0.690480  2.320777  1.258441
H    -0.303939  1.614770  -0.043569
H    1.278346  0.897717  0.394388
N    -1.592502  0.449287  1.959779
C    -2.472343  1.607145  1.926752
C    -1.913312  2.686026  2.890617
O    -1.054661  2.371570  3.770541
H    -1.916889  -0.306547  2.560618
H    -2.481886  2.033756  0.913468
C    -3.927800  1.160445  2.261496
C    -4.107647  0.163940  3.420692
C    -3.793940  0.690376  4.833998
C    -3.461521  -0.387871  5.864133
N    -2.151884  -1.076371  5.584544
H    -4.335514  0.707805  1.347697
H    -4.531931  2.057701  2.451563
H    -3.546653  -0.764490  3.207549
H    -5.153656  -0.172402  3.390888
H    -4.662829  1.251910  5.206183
H    -2.972302  1.420434  4.812705
H    -4.273927  -1.127810  5.925517
H    -3.376418  0.072157  6.857062
H    -1.951243  -1.673862  6.394248
H    -2.301803  -1.759050  4.833649
N    -2.326784  3.942295  2.778598
C    -3.282767  4.529622  1.837131
H    -1.921219  4.578485  3.465250
H    -3.369954  3.923758  0.931054
H    -2.924228  5.524253  1.552173
H    -4.272750  4.631672  2.300062
Ba    0.145515  0.483025  4.947376
