34
Energy: -243346.074424 eV PBE+vdW (tier 2 basis)
C    -0.887954  -0.544864  -0.265215
C    -1.032629  0.354627  0.915991
O    -0.714177  1.617004  0.782740
H    -1.434793  -1.485382  -0.152017
H    0.176146  -0.784285  -0.409769
H    -1.235102  -0.029445  -1.168220
N    -1.454244  -0.057858  2.079647
C    -1.927328  -1.369821  2.533017
C    -2.640834  -0.991026  3.870124
O    -2.500675  0.163786  4.303862
H    -1.604834  0.603723  2.884417
H    -2.669802  -1.756623  1.818796
C    -0.794803  -2.399375  2.731792
C    0.239658  -2.031981  3.798452
C    1.354304  -3.076540  3.901636
C    2.368439  -2.769159  5.007323
N    3.466055  -3.725078  4.973823
H    -0.299706  -2.567407  1.762743
H    -1.265676  -3.362424  2.982962
H    -0.258215  -1.918818  4.774936
H    0.682656  -1.047877  3.568896
H    1.895632  -3.155098  2.945955
H    0.910133  -4.069319  4.085134
H    1.840202  -2.727779  5.982306
H    2.795361  -1.766876  4.844515
H    3.175642  -4.668354  5.229021
H    4.238357  -3.456423  5.580294
N    -3.346050  -1.956153  4.467064
C    -4.045889  -1.783296  5.738738
H    -3.403924  -2.863738  4.016091
H    -3.650073  -2.480788  6.486758
H    -5.118963  -1.966483  5.607513
H    -3.891557  -0.757209  6.081796
Ba    -0.260423  3.843108  0.552343
