34
Energy: -243347.782563 eV PBE+vdW (tier 2 basis)
C    -0.522623  1.581358  -0.693287
C    -0.813050  1.578772  0.776326
O    -0.050797  0.949750  1.572289
H    -1.197004  2.218880  -1.274350
H    -0.606845  0.548984  -1.062376
H    0.513109  1.897808  -0.868349
N    -1.892873  2.251168  1.197485
C    -2.557711  2.257234  2.511348
C    -1.797052  2.940365  3.653972
O    -0.533807  2.838901  3.814258
H    -2.410042  2.724579  0.462654
H    -3.442206  2.883725  2.347208
C    -3.075425  0.866609  2.954182
C    -4.360677  0.441080  2.231339
C    -5.562566  1.398034  2.346390
C    -5.974759  1.834450  3.762096
N    -5.375572  3.144392  4.164708
H    -3.261803  0.910231  4.036895
H    -2.291212  0.110835  2.805921
H    -4.648631  -0.540050  2.636779
H    -4.151267  0.264938  1.164819
H    -6.416818  0.888563  1.880616
H    -5.414608  2.298334  1.724606
H    -5.665216  1.084664  4.504472
H    -7.071675  1.888377  3.816322
H    -5.779285  3.875243  3.570570
H    -5.718933  3.370354  5.103274
N    -2.576487  3.573686  4.503812
C    -2.098501  4.207450  5.727586
H    -3.631535  3.478436  4.350032
H    -2.873451  4.888631  6.091143
H    -1.185580  4.779413  5.530987
H    -1.891918  3.460911  6.507269
Ba    1.361622  1.408482  3.479082
