34
Energy: -243347.497317 eV PBE+vdW (tier 2 basis)
C    0.067193  0.635937  0.108624
C    -0.115102  0.687679  1.590871
O    0.804168  1.145141  2.339902
H    0.198882  1.662271  -0.262693
H    -0.775006  0.174197  -0.416777
H    0.987738  0.088375  -0.130736
N    -1.269983  0.255638  2.109953
C    -1.698977  0.401666  3.514071
C    -1.010104  -0.671187  4.387147
O    0.158505  -0.451128  4.838671
H    -1.982165  -0.065194  1.457413
H    -1.300347  1.363282  3.874534
C    -3.226523  0.454183  3.574628
C    -3.790166  0.850460  4.947657
C    -5.310012  1.088005  4.938505
C    -5.769960  2.377797  4.249496
N    -5.513150  2.364022  2.794430
H    -3.664504  -0.504860  3.238196
H    -3.582668  1.203409  2.845663
H    -3.290108  1.775416  5.282975
H    -3.551706  0.085192  5.703921
H    -5.657237  1.122799  5.980936
H    -5.821544  0.221714  4.485539
H    -5.217272  3.228925  4.675985
H    -6.832276  2.543292  4.498137
H    -6.207054  1.774249  2.329565
H    -5.657696  3.299517  2.412126
N    -1.661051  -1.793822  4.631897
C    -1.169437  -2.916731  5.427634
H    -2.604230  -1.864879  4.255070
H    -1.911489  -3.170575  6.193257
H    -0.230481  -2.634070  5.908243
H    -1.007809  -3.790631  4.784223
Ba    2.097838  0.949725  4.366401
