34
Energy: -243347.255272 eV PBE+vdW (tier 2 basis)
C    0.827721  2.970402  2.209691
C    -0.174008  2.117591  2.918280
O    -1.260901  2.615057  3.347522
H    1.089304  3.832756  2.836044
H    0.361699  3.367954  1.296649
H    1.741243  2.432595  1.935831
N    0.094806  0.815543  3.077598
C    -0.834334  -0.208265  3.586522
C    -0.882515  -0.156008  5.129731
O    -1.601635  0.727402  5.694408
H    0.975731  0.475541  2.698172
H    -1.844104  0.086546  3.259235
C    -0.501383  -1.573917  2.972916
C    -0.748926  -1.636891  1.456453
C    -0.395595  -2.996569  0.833495
C    -1.274708  -4.169865  1.317528
N    -1.068746  -5.451233  0.667580
H    -1.122079  -2.328652  3.476288
H    0.552288  -1.839009  3.180575
H    -0.172430  -0.847914  0.947348
H    -1.811738  -1.412111  1.263673
H    0.666675  -3.229335  1.017536
H    -0.500035  -2.907009  -0.257941
H    -2.335374  -3.893773  1.190533
H    -1.131730  -4.329551  2.399644
H    -0.119875  -5.802760  0.789356
H    -1.261455  -5.412755  -0.332630
N    -0.174624  -1.035322  5.816422
C    -0.106614  -1.131908  7.274138
H    0.350373  -1.723786  5.281145
H    -0.349111  -2.155816  7.581165
H    -0.823784  -0.436979  7.715652
H    0.906175  -0.886597  7.617270
Ba    -2.793310  2.804641  5.206170
