34
Energy: -243345.909548 eV PBE+vdW (tier 2 basis)
C    1.855819  0.236707  1.732129
C    0.997340  0.042978  2.936120
O    1.503491  0.010823  4.081495
H    2.628048  0.982482  1.947412
H    1.296786  0.522290  0.833926
H    2.366506  -0.730851  1.537932
N    -0.343991  -0.119134  2.723897
C    -1.387301  -0.718857  3.576326
C    -1.486492  -0.182618  5.000051
O    -2.681091  -0.181293  5.547011
H    -0.618683  -0.063866  1.747947
H    -2.332282  -0.402178  3.112056
C    -1.402524  -2.282611  3.589916
C    -0.079046  -2.989207  3.930171
C    0.814430  -3.219336  2.697846
C    2.311713  -3.316693  3.008469
N    3.091378  -2.996141  1.804121
H    -1.751046  -2.609231  2.598669
H    -2.196679  -2.580138  4.294157
H    -0.313810  -3.952913  4.402648
H    0.474540  -2.419140  4.692372
H    0.687088  -2.400677  1.976776
H    0.476660  -4.123842  2.168386
H    2.542963  -4.305246  3.446468
H    2.572555  -2.566600  3.770186
H    2.963339  -3.712060  1.086313
H    4.089603  -2.990127  2.017274
N    -0.435334  0.200294  5.653800
C    -0.449355  0.688514  7.023509
H    0.521161  0.119150  5.052101
H    0.565418  0.993923  7.294046
H    -0.767990  -0.100353  7.720474
H    -1.109533  1.561996  7.125660
Ba    -4.662071  -0.111830  6.640477
