34
Energy: -243346.96892 eV PBE+vdW (tier 2 basis)
C    -0.236531  -0.144782  0.409722
C    -0.255466  -0.133528  1.890409
O    0.805408  0.104606  2.561349
H    0.771239  0.091823  0.057281
H    -0.972407  0.593013  -0.015100
H    -0.539397  -1.121780  0.005262
N    -1.392226  -0.371339  2.592003
C    -2.410697  -1.371471  2.261317
C    -1.710545  -2.762028  2.236634
O    -0.514467  -2.896954  2.648215
H    -1.299571  -0.161092  3.583505
H    -3.078226  -1.389303  3.138130
C    -3.286309  -1.050575  1.031332
C    -3.882960  0.360965  1.086887
C    -4.537352  0.809827  -0.227280
C    -3.602449  0.889499  -1.439199
N    -2.369812  1.649886  -1.143339
H    -4.111328  -1.780014  0.993961
H    -2.709165  -1.193913  0.109327
H    -3.093492  1.076071  1.355199
H    -4.628535  0.409319  1.894970
H    -4.984920  1.800470  -0.054013
H    -5.378378  0.148221  -0.484412
H    -4.172847  1.316118  -2.280682
H    -3.297340  -0.118219  -1.763732
H    -1.841523  1.788473  -2.007208
H    -2.610730  2.591314  -0.822335
N    -2.408967  -3.799678  1.809681
C    -1.920200  -5.180586  1.791745
H    -3.353145  -3.626782  1.475410
H    -2.724801  -5.826570  1.431599
H    -1.631246  -5.496477  2.800917
H    -1.058525  -5.273817  1.120069
Ba    1.654986  -1.996990  3.466670
