34
Energy: -243346.734035 eV PBE+vdW (tier 2 basis)
C    0.287685  2.143355  1.353687
C    -0.347672  1.241670  2.362289
O    0.068836  1.211169  3.562456
H    -0.186505  3.137531  1.375265
H    0.217791  1.753180  0.332724
H    1.340503  2.279961  1.624489
N    -1.390321  0.457447  2.015285
C    -2.479428  0.896835  1.151549
C    -3.291896  1.971426  1.936961
O    -2.952355  2.317029  3.114057
H    -1.662324  -0.226461  2.722442
H    -2.049338  1.392827  0.268684
C    -3.338516  -0.296412  0.690267
C    -4.014215  -1.085393  1.816835
C    -4.972941  -2.152300  1.277719
C    -5.614418  -3.005606  2.377099
N    -6.608350  -3.899115  1.796711
H    -2.690828  -0.953460  0.092209
H    -4.102709  0.072649  -0.011020
H    -4.574549  -0.399155  2.478122
H    -3.256236  -1.584941  2.448066
H    -4.431023  -2.808027  0.576629
H    -5.777180  -1.676149  0.696291
H    -6.137264  -2.344335  3.086950
H    -4.812711  -3.514722  2.953941
H    -6.173254  -4.665984  1.283583
H    -7.197403  -4.319039  2.513893
N    -4.331239  2.517086  1.331579
C    -5.199230  3.539552  1.921913
H    -4.561407  2.188722  0.397069
H    -5.916389  3.863098  1.163362
H    -4.605679  4.402440  2.244509
H    -5.746052  3.129923  2.779977
Ba    -1.518982  2.242443  5.132534
