34
Energy: -243347.513124 eV PBE+vdW (tier 2 basis)
C    -0.169896  0.387787  -0.009442
C    -0.375661  -0.351411  1.285066
O    0.652358  -0.658312  1.992748
H    -0.328579  1.467859  0.134138
H    -0.855688  0.061927  -0.801350
H    0.864272  0.249284  -0.338924
N    -1.569493  -0.687163  1.807688
C    -2.806912  -0.082054  1.328254
C    -3.160501  1.088788  2.287506
O    -2.468817  1.293197  3.326328
H    -1.504932  -2.349979  1.815343
H    -2.675657  0.373049  0.330622
C    -3.950769  -1.116022  1.224122
C    -3.914634  -2.008269  -0.041825
C    -3.418287  -3.458775  0.079026
C    -1.918931  -3.703535  0.200442
N    -1.393127  -3.412950  1.588601
H    -4.907317  -0.577447  1.227316
H    -3.968246  -1.720840  2.145487
H    -3.348926  -1.498402  -0.838374
H    -4.941866  -2.075368  -0.422749
H    -3.724277  -3.987306  -0.835577
H    -3.949146  -3.981430  0.893099
H    -1.341521  -3.070233  -0.486147
H    -1.675617  -4.750010  -0.018829
H    -1.893597  -3.977439  2.284515
H    -0.394903  -3.644390  1.657055
N    -4.188345  1.865182  1.963513
C    -4.666273  3.006733  2.743595
H    -4.679976  1.662442  1.097166
H    -5.728842  2.875007  2.978730
H    -4.537983  3.932745  2.169969
H    -4.091710  3.068751  3.670184
Ba    -0.366839  0.205416  4.112217
