34
Energy: -243346.666851 eV PBE+vdW (tier 2 basis)
C    -0.534178  3.873433  2.149620
C    0.398771  2.727907  2.379232
O    1.656435  2.913115  2.379751
H    -1.185446  3.705174  1.280442
H    0.043380  4.789042  1.998759
H    -1.194815  4.007135  3.016622
N    -0.066617  1.473951  2.584798
C    -1.180517  0.861241  1.846970
C    -0.810022  0.905485  0.336572
O    0.355274  1.268584  -0.038744
H    0.661113  0.825199  2.880657
H    -1.144020  -0.203495  2.127744
C    -2.597613  1.381695  2.230225
C    -3.637680  0.291034  2.519828
C    -4.118299  -0.563228  1.343699
C    -5.368975  -1.392395  1.711548
N    -6.475557  -0.510270  2.072263
H    -2.972413  2.077447  1.464262
H    -2.473370  1.970819  3.147721
H    -4.529799  0.787210  2.929981
H    -3.257334  -0.365269  3.319796
H    -3.339843  -1.266738  0.993907
H    -4.404967  0.091779  0.495551
H    -5.124191  -2.022805  2.578688
H    -5.595059  -2.081671  0.879984
H    -7.052865  -0.278266  1.265253
H    -7.089561  -0.940939  2.760158
N    -1.724205  0.529343  -0.534371
C    -1.514940  0.452617  -1.980694
H    -2.632680  0.233188  -0.167807
H    -0.719476  -0.263945  -2.218687
H    -1.249259  1.437340  -2.382809
H    -2.446404  0.118453  -2.444736
Ba    2.653782  2.102999  0.283234
