34
Energy: -243347.447 eV PBE+vdW (tier 2 basis)
C    1.127127  0.418575  0.363094
C    0.612459  0.107150  1.732763
O    1.242023  -0.701438  2.479087
H    1.136951  -0.510298  -0.224604
H    2.166602  0.763744  0.433801
H    0.533376  1.168199  -0.169865
N    -0.519778  0.705719  2.128116
C    -1.330070  0.473977  3.347054
C    -0.632924  1.011302  4.609503
O    0.343409  0.391303  5.129626
H    -0.941842  1.327492  1.444284
H    -2.229539  1.084262  3.184596
C    -1.811037  -0.974679  3.513118
C    -2.815294  -1.140767  4.662432
C    -3.491416  -2.521998  4.697469
C    -4.556877  -2.752562  3.618430
N    -3.983904  -2.788061  2.257866
H    -0.959586  -1.663739  3.654186
H    -2.296735  -1.298540  2.577809
H    -3.599931  -0.370833  4.565327
H    -2.324617  -0.949815  5.631508
H    -3.973628  -2.645607  5.677768
H    -2.728571  -3.318500  4.638460
H    -5.281734  -1.925539  3.653848
H    -5.119727  -3.666455  3.874036
H    -3.582426  -3.709832  2.074764
H    -4.727181  -2.676900  1.567262
N    -1.126196  2.116117  5.150410
C    -0.639078  2.753589  6.373107
H    -1.910313  2.560200  4.679736
H    -1.495007  3.038092  6.994541
H    -0.060346  3.653103  6.127125
H    -0.006531  2.049742  6.918832
Ba    1.894891  -1.431061  4.673789
