34
Energy: -243347.602207 eV PBE+vdW (tier 2 basis)
C    -0.239594  -1.950720  1.437629
C    -1.146568  -1.117194  2.292648
O    -2.223356  -1.612266  2.749229
H    0.590165  -1.388201  0.997039
H    -0.811633  -2.437984  0.638747
H    0.175499  -2.753482  2.064773
N    -0.772499  0.143943  2.540010
C    -1.262490  1.122330  3.524413
C    -2.773922  1.402181  3.520404
O    -3.574363  0.964965  2.625122
H    0.098226  0.424314  2.095405
H    -1.043874  0.717851  4.525698
C    -0.444737  2.427416  3.317896
C    0.928019  2.428457  4.017328
C    0.970223  3.050301  5.422692
C    0.112970  2.429879  6.530468
N    -1.313418  2.874152  6.490688
H    -1.036879  3.282493  3.662136
H    -0.334875  2.573557  2.231940
H    1.631741  2.993778  3.391248
H    1.336174  1.403944  4.059798
H    0.735577  4.125825  5.350407
H    2.014996  3.010573  5.761659
H    0.560330  2.690679  7.501081
H    0.127631  1.330497  6.470498
H    -2.431404  2.430268  5.270184
H    -1.766961  2.563468  7.354958
N    -3.171507  2.138646  4.535444
C    -4.544327  2.593068  4.715216
H    -1.326892  3.897295  6.548961
H    -4.538405  3.468349  5.372378
H    -5.164666  1.818506  5.189387
H    -4.989330  2.873734  3.754243
Ba    -4.541850  -1.180623  2.159273
