34
Energy: -243345.83171 eV PBE+vdW (tier 2 basis)
C    0.444736  1.272643  0.531849
C    0.025758  -0.015896  1.161895
O    0.928801  -0.942572  1.368438
H    1.211376  1.757465  1.152065
H    -0.394142  1.964589  0.408295
H    0.885666  1.076031  -0.455193
N    -1.221024  -0.196586  1.489444
C    -1.889228  -1.341013  2.115909
C    -3.381787  -1.030863  1.770737
O    -3.658068  0.162082  1.572727
H    -1.960927  0.533616  1.330899
H    -1.529041  -2.274509  1.661511
C    -1.643383  -1.320871  3.645383
C    -2.142459  -2.552609  4.401890
C    -1.998291  -2.422858  5.925411
C    -3.049454  -1.496568  6.558090
N    -4.403740  -1.941034  6.214635
H    -0.558839  -1.197917  3.810320
H    -2.115888  -0.409127  4.039632
H    -1.610837  -3.450523  4.045548
H    -3.212169  -2.706409  4.207344
H    -0.991262  -2.070778  6.204055
H    -2.102272  -3.424941  6.369263
H    -2.930903  -0.469637  6.179983
H    -2.856379  -1.443634  7.644418
H    -4.667034  -2.761989  6.761593
H    -5.089840  -1.219199  6.431061
N    -4.297681  -2.006209  1.713499
C    -4.154279  -3.452536  1.811863
H    -5.237139  -1.651844  1.538040
H    -3.100187  -3.742408  1.788260
H    -4.658778  -3.925441  0.960572
H    -4.598483  -3.830523  2.741757
Ba    2.799206  -2.203906  1.640169
