34
Energy: -243346.514498 eV PBE+vdW (tier 2 basis)
C    -0.400130  0.623313  0.255045
C    -0.290165  0.372937  1.723940
O    0.836462  0.522797  2.298388
H    -1.371926  1.030968  -0.035819
H    -0.240931  -0.308943  -0.309028
H    0.396115  1.320182  -0.028512
N    -1.347752  0.014940  2.492467
C    -2.332692  -1.042133  2.210743
C    -1.602110  -2.398801  2.379326
O    -0.325358  -2.449253  2.360752
H    -1.122929  0.088248  3.485143
H    -3.079138  -0.958811  3.015850
C    -3.086646  -0.938309  0.871946
C    -3.921316  0.345811  0.751678
C    -4.474204  0.567864  -0.660892
C    -5.507633  -0.465638  -1.122264
N    -5.896446  -0.190803  -2.500813
H    -3.746764  -1.812006  0.801372
H    -2.390638  -1.040019  0.028217
H    -3.313495  1.215985  1.043497
H    -4.747310  0.305739  1.480775
H    -3.653714  0.589193  -1.397092
H    -4.933407  1.567621  -0.694196
H    -6.346548  -0.480535  -0.394509
H    -5.066015  -1.476001  -1.109525
H    -6.484603  -0.933649  -2.876094
H    -6.436390  0.672697  -2.568781
N    -2.300235  -3.510818  2.553809
C    -3.749912  -3.696371  2.667886
H    -1.735773  -4.358711  2.608251
H    -4.239142  -2.780359  3.010579
H    -3.937869  -4.484265  3.404783
H    -4.178992  -4.003278  1.705656
Ba    1.952650  -1.597543  2.803566
