34
Energy: -243347.227106 eV PBE+vdW (tier 2 basis)
C    -2.332270  -3.296609  0.035937
C    -1.653309  -2.321564  0.940601
O    -0.495203  -1.876920  0.666597
H    -1.689775  -4.175961  -0.102968
H    -2.456999  -2.832309  -0.952455
H    -3.311560  -3.620131  0.403193
N    -2.289476  -1.914330  2.047005
C    -1.805934  -0.850501  2.940444
C    -0.624300  -1.344693  3.801010
O    0.552680  -1.038733  3.411921
H    -3.233310  -2.260400  2.205145
H    -1.343733  -0.090131  2.293594
C    -2.968172  -0.180356  3.684371
C    -3.795743  0.763195  2.799092
C    -3.036056  1.969861  2.223825
C    -2.213009  2.771056  3.244249
N    -2.981534  3.021482  4.463837
H    -2.567590  0.399433  4.529337
H    -3.629183  -0.942621  4.120922
H    -4.617387  1.125141  3.429981
H    -4.272087  0.208484  1.974965
H    -3.777925  2.633518  1.754729
H    -2.372693  1.668027  1.394064
H    -1.835354  3.681710  2.742516
H    -1.314422  2.199004  3.540579
H    -3.797183  3.603626  4.264953
H    -2.425639  3.539946  5.143822
N    -0.773377  -2.063087  4.903831
C    -1.985914  -2.570782  5.553021
H    0.106655  -2.272404  5.375597
H    -1.697984  -3.421171  6.178266
H    -2.710494  -2.923551  4.813720
H    -2.444248  -1.804585  6.189604
Ba    1.685973  -0.990685  1.254298
