34
Energy: -243345.91565 eV PBE+vdW (tier 2 basis)
C    0.102868  0.091988  0.049621
C    -0.045406  0.034967  1.532386
O    1.024775  -0.177605  2.257555
H    0.887162  0.814470  -0.211417
H    -0.822312  0.367028  -0.463348
H    0.426942  -0.891036  -0.320332
N    -1.186400  0.188016  2.145388
C    -2.549542  0.413942  1.637835
C    -3.228514  1.019376  2.900865
O    -2.758002  0.688631  4.002835
H    -1.261315  0.156009  3.189648
H    -2.524424  1.128858  0.805574
C    -3.153460  -0.941340  1.184818
C    -4.585340  -0.928754  0.630314
C    -5.700235  -1.111267  1.666299
C    -7.081768  -1.264116  1.013756
N    -7.127088  -2.444493  0.153390
H    -3.086242  -1.637928  2.035204
H    -2.472670  -1.329943  0.411877
H    -4.674351  -1.761228  -0.082017
H    -4.758551  -0.022135  0.028633
H    -5.740425  -0.280699  2.385814
H    -5.487619  -2.013431  2.264301
H    -7.289862  -0.384121  0.385479
H    -7.850496  -1.268199  1.808384
H    -7.230084  -3.305541  0.689550
H    -7.892098  -2.404520  -0.516983
N    -4.256161  1.871287  2.780519
C    -4.903965  2.411987  1.591232
H    -4.631901  2.166266  3.680525
H    -5.094068  3.480279  1.744186
H    -5.859328  1.908841  1.391597
H    -4.262823  2.305480  0.711798
Ba    2.864780  -0.529442  3.558026
