34
Energy: -243346.6779 eV PBE+vdW (tier 2 basis)
C    0.866485  2.027390  1.123806
C    0.416324  1.059222  2.169381
O    1.121003  0.836606  3.201716
H    0.498849  1.770063  0.124747
H    1.961587  2.054199  1.119808
H    0.515484  3.043137  1.367371
N    -0.769287  0.423837  2.039045
C    -1.988916  1.073915  1.561533
C    -2.319135  2.221144  2.555647
O    -1.728037  2.295431  3.682583
H    -0.924169  -0.322412  2.717868
H    -1.800556  1.515265  0.571141
C    -3.109200  0.017270  1.435259
C    -4.401285  0.473029  0.744809
C    -5.354080  -0.699089  0.455670
C    -4.914037  -1.611870  -0.695218
N    -5.814371  -2.755046  -0.786495
H    -3.346599  -0.379903  2.436710
H    -2.666027  -0.811261  0.863607
H    -4.157438  0.984538  -0.203701
H    -4.936696  1.195707  1.379739
H    -6.345540  -0.284595  0.219865
H    -5.490239  -1.311743  1.360480
H    -3.905166  -2.012114  -0.501794
H    -4.835112  -1.004728  -1.621605
H    -6.739334  -2.475568  -1.114867
H    -5.466470  -3.449702  -1.445912
N    -3.225331  3.111272  2.194264
C    -3.686122  4.221963  3.031549
H    -3.670149  2.987621  1.287555
H    -4.460359  4.766677  2.485503
H    -2.857280  4.905544  3.250699
H    -4.106465  3.845038  3.971289
Ba    0.108531  1.759371  5.252698
