34
Energy: -243346.811367 eV PBE+vdW (tier 2 basis)
C    -1.258555  -0.801417  -0.612117
C    -0.267901  -0.130635  0.282164
O    0.970111  -0.394381  0.206582
H    -2.253107  -0.878828  -0.160302
H    -0.884627  -1.801470  -0.858171
H    -1.350073  -0.247585  -1.559943
N    -0.676272  0.799456  1.176409
C    -1.707479  1.799965  0.913958
C    -1.287250  2.616896  -0.331449
O    -0.080865  2.576324  -0.740042
H    0.036475  1.087771  1.846489
H    -2.658440  1.289379  0.704516
C    -1.890276  2.710746  2.153764
C    -0.802899  3.759687  2.426216
C    0.606466  3.269299  2.788402
C    1.443377  4.354951  3.503637
N    0.810476  4.709555  4.762481
H    -2.010279  2.041993  3.019687
H    -2.852502  3.228569  2.050263
H    -1.141178  4.347168  3.293004
H    -0.739313  4.472538  1.587473
H    1.172498  2.957344  1.879345
H    0.554943  2.387093  3.451739
H    1.480310  5.250875  2.866014
H    2.485124  3.995633  3.604175
H    1.120581  4.123802  5.535812
H    0.977023  5.678640  5.022578
N    -2.176681  3.368547  -0.961338
C    -3.599633  3.561697  -0.669396
H    -1.797373  3.910066  -1.738365
H    -4.129251  3.707647  -1.616231
H    -3.750086  4.447605  -0.039468
H    -4.022006  2.684173  -0.171456
Ba    2.195490  1.621145  -0.562575
