34
Energy: -243346.067706 eV PBE+vdW (tier 2 basis)
C    -1.169164  0.038987  0.216828
C    -0.740456  0.209718  1.632634
O    0.465014  0.234464  1.968711
H    -0.385651  0.399856  -0.455116
H    -2.116360  0.547497  -0.002505
H    -1.324207  -1.048974  0.037855
N    -1.734833  0.314928  2.569924
C    -1.615962  0.022531  4.005744
C    -0.734825  1.019342  4.757879
O    -1.129002  1.452529  5.930354
H    -2.681547  0.281377  2.207639
H    -2.628222  0.152532  4.412723
C    -1.135819  -1.416718  4.345390
C    -2.138395  -2.543202  4.036668
C    -2.412359  -2.863835  2.559477
C    -1.191310  -3.343970  1.768527
N    -1.459725  -3.279076  0.327075
H    -0.918974  -1.438516  5.426004
H    -0.172832  -1.589732  3.845261
H    -3.094247  -2.323221  4.539842
H    -1.751246  -3.449494  4.527642
H    -2.851491  -2.000411  2.038437
H    -3.188580  -3.643720  2.527048
H    -0.905606  -4.350345  2.128204
H    -0.322824  -2.694149  1.961548
H    -0.667691  -3.647251  -0.201427
H    -2.259778  -3.864586  0.079824
N    0.410656  1.359278  4.247438
C    1.372224  2.253707  4.871682
H    0.598646  0.884955  3.261337
H    2.217625  2.384963  4.190485
H    1.751838  1.829906  5.812788
H    0.927817  3.241289  5.061524
Ba    -1.653739  2.304821  7.964338
