34
Energy: -243347.584251 eV PBE+vdW (tier 2 basis)
C    0.678672  -0.735231  -0.109689
C    0.410918  -0.554688  1.349456
O    1.390706  -0.562090  2.179207
H    1.157168  -1.710302  -0.274043
H    1.390259  0.030021  -0.446920
H    -0.230356  -0.677332  -0.714920
N    -0.839733  -0.387110  1.766000
C    -1.094103  -0.084908  3.174037
C    -0.657359  -1.221864  4.121413
O    0.241129  -0.940377  4.984725
H    -1.641469  -0.167320  1.038234
H    -0.392686  0.717920  3.456455
C    -2.485004  0.533329  3.444977
C    -3.805088  -0.238739  3.286175
C    -4.303636  -0.646439  1.885365
C    -4.167268  0.408978  0.781688
N    -2.872130  0.257303  0.053648
H    -2.515180  1.451862  2.837894
H    -2.442025  0.888792  4.485235
H    -4.565070  0.431889  3.714833
H    -3.813969  -1.116315  3.948634
H    -5.365017  -0.908178  1.991159
H    -3.822598  -1.571697  1.532126
H    -4.203592  1.424011  1.200344
H    -5.010448  0.333492  0.081622
H    -2.677531  1.106220  -0.483331
H    -2.978792  -0.481878  -0.646606
N    -1.132974  -2.460752  4.081246
C    -2.046570  -3.105175  3.141596
H    -0.763101  -3.056719  4.822495
H    -1.629458  -4.080525  2.865362
H    -2.148199  -2.500954  2.239915
H    -3.031485  -3.261587  3.597185
Ba    2.527474  -0.393855  4.295573
