34
Energy: -243346.868029 eV PBE+vdW (tier 2 basis)
C    0.134643  -0.347657  0.232769
C    -0.182339  0.243252  1.556159
O    0.704010  0.919226  2.183941
H    -0.607638  -0.058523  -0.559942
H    0.116455  -1.446639  0.266907
H    1.132855  -0.016985  -0.070143
N    -1.393897  0.113182  2.153033
C    -2.214940  -1.100018  2.205559
C    -1.433807  -2.156615  3.032481
O    -0.194082  -1.989754  3.285247
H    -1.478451  0.710144  2.974727
H    -3.100447  -0.817263  2.796679
C    -2.728959  -1.613913  0.842873
C    -3.544168  -0.547192  0.101931
C    -3.913207  -0.932898  -1.337383
C    -2.733738  -1.128458  -2.295392
N    -1.795899  0.011884  -2.257194
H    -3.357080  -2.496047  1.024429
H    -1.892168  -1.970840  0.231822
H    -2.985439  0.398762  0.089998
H    -4.469186  -0.348386  0.665078
H    -4.569376  -0.143349  -1.735042
H    -4.519852  -1.851167  -1.345265
H    -3.140720  -1.311822  -3.303549
H    -2.163370  -2.033833  -2.031871
H    -2.292130  0.880392  -2.472864
H    -1.100012  -0.092340  -2.998248
N    -2.057912  -3.227833  3.501728
C    -3.474158  -3.596571  3.422821
H    -1.453552  -3.879926  4.001295
H    -4.105545  -2.711492  3.303476
H    -3.750863  -4.091822  4.359422
H    -3.651983  -4.290366  2.591639
Ba    1.813339  -0.593913  3.733490
