34
Energy: -243346.915298 eV PBE+vdW (tier 2 basis)
C    0.965765  1.766975  0.678436
C    0.467323  0.507158  1.313673
O    0.895072  -0.624699  0.921482
H    1.766105  1.525923  -0.026151
H    1.346040  2.461055  1.438109
H    0.161612  2.288825  0.138196
N    -0.456090  0.547176  2.297943
C    -1.634183  1.424301  2.320119
C    -2.397992  1.217628  1.010080
O    -2.166688  0.199903  0.267920
H    -0.584345  -0.340654  2.782539
H    -2.246628  0.981222  3.150358
C    -1.354561  2.861924  2.806461
C    -2.557646  3.664094  3.350277
C    -3.564653  2.950313  4.270925
C    -2.971906  2.197052  5.471040
N    -2.619814  0.795318  5.122400
H    -0.853763  3.460323  2.033173
H    -0.626635  2.736858  3.619617
H    -3.112476  4.154836  2.529133
H    -2.125677  4.516141  3.896043
H    -4.201063  2.250620  3.700748
H    -4.254448  3.720136  4.643534
H    -3.684908  2.233425  6.308185
H    -2.059745  2.700237  5.821724
H    -1.966917  0.423655  5.814853
H    -3.455861  0.212366  5.203334
N    -3.347369  2.080705  0.688246
C    -4.226806  1.956186  -0.474465
H    -3.475224  2.882118  1.303160
H    -4.942555  2.781983  -0.454996
H    -4.774721  1.007188  -0.441971
H    -3.648533  2.008945  -1.404867
Ba    -0.843909  -1.750679  -0.410170
