34
Energy: -243345.970331 eV PBE+vdW (tier 2 basis)
C    -0.647070  -1.483485  -0.322915
C    -0.233090  -0.871817  0.972434
O    0.985034  -1.092052  1.406085
H    0.046935  -1.166971  -1.113285
H    -1.666396  -1.216777  -0.614371
H    -0.578153  -2.577536  -0.247094
N    -1.018782  -0.124742  1.695001
C    -2.418013  0.284829  1.511775
C    -2.494071  1.494505  2.492430
O    -1.673274  1.505609  3.427931
H    -0.707545  0.306075  2.601740
H    -2.589934  0.576698  0.468373
C    -3.362775  -0.867261  1.951692
C    -4.846980  -0.703057  1.620254
C    -5.193531  -0.756239  0.129777
C    -6.710031  -0.830389  -0.114173
N    -7.270291  -2.048565  0.467619
H    -3.228182  -1.005430  3.035014
H    -2.996130  -1.789251  1.472195
H    -5.248628  0.212562  2.079532
H    -5.384027  -1.528574  2.109822
H    -4.719965  -1.644988  -0.323841
H    -4.799760  0.114674  -0.420676
H    -6.902897  -0.726650  -1.197256
H    -7.194628  0.030556  0.370506
H    -8.265271  -1.956969  0.661715
H    -7.152527  -2.853670  -0.146312
N    -3.419445  2.449102  2.337282
C    -4.355517  2.690492  1.245456
H    -3.397812  3.144338  3.082071
H    -4.268925  3.734017  0.920159
H    -5.390056  2.504270  1.560471
H    -4.131337  2.048074  0.390345
Ba    3.076904  -1.419627  2.240614
