34
Energy: -243347.174395 eV PBE+vdW (tier 2 basis)
C    -1.164855  1.038390  -0.309786
C    -0.634957  0.603487  1.025972
O    0.583471  0.612867  1.276373
H    -0.804495  2.053168  -0.520055
H    -2.256873  1.015398  -0.389891
H    -0.736060  0.384030  -1.080719
N    -1.566086  0.220488  1.953182
C    -1.403846  -0.449677  3.250389
C    -0.397664  0.130744  4.241360
O    -0.544160  -0.230722  5.474016
H    -2.532430  0.288747  1.650330
H    -2.366139  -0.286933  3.758643
C    -1.245386  -1.995496  3.124120
C    0.118623  -2.534896  2.657348
C    1.241681  -2.664256  3.707558
C    1.247182  -3.935308  4.558860
N    0.086746  -4.059403  5.513131
H    -2.021076  -2.316474  2.415476
H    -1.548796  -2.432409  4.090283
H    0.484466  -1.902124  1.838165
H    -0.041395  -3.525534  2.204172
H    1.295556  -1.766543  4.348652
H    2.202704  -2.667262  3.172760
H    2.162659  -3.963843  5.166652
H    1.281835  -4.817541  3.901908
H    0.223688  -4.928504  6.041951
H    -0.757143  -4.250039  4.962386
N    0.571195  0.913280  3.848780
C    1.554837  1.518862  4.736160
H    0.706019  0.937072  2.786417
H    2.000899  2.376567  4.224239
H    2.359861  0.807811  4.975469
H    1.079815  1.860879  5.661985
Ba    -0.275767  -1.851744  7.148639
