34
Energy: -243347.393524 eV PBE+vdW (tier 2 basis)
C    0.774479  0.232655  0.499178
C    0.308964  0.404741  1.908393
O    0.983214  1.095548  2.734206
H    0.809481  1.221576  0.020035
H    0.131606  -0.425834  -0.093921
H    1.799017  -0.160899  0.494687
N    -0.840864  -0.172935  2.279239
C    -1.532237  0.031501  3.564491
C    -0.864606  -0.826606  4.660938
O    0.152198  -0.365734  5.270215
H    -1.345821  -0.701871  1.571113
H    -1.347853  1.073529  3.864951
C    -3.043092  -0.164560  3.377266
C    -3.900101  0.188070  4.598949
C    -3.780301  1.638922  5.079178
C    -4.956452  2.033742  5.992417
N    -6.220184  1.914126  5.268063
H    -3.254963  -1.195980  3.039873
H    -3.341469  0.481073  2.536189
H    -3.695758  -0.498091  5.437142
H    -4.952817  0.026724  4.323646
H    -3.771400  2.318694  4.209018
H    -2.837446  1.811621  5.627805
H    -4.764350  3.040556  6.404183
H    -4.987920  1.347988  6.852433
H    -7.002949  1.768342  5.902464
H    -6.427305  2.757072  4.733246
N    -1.361551  -2.022442  4.920254
C    -0.852046  -2.967918  5.911993
H    -2.198165  -2.293711  4.407823
H    -1.662761  -3.251718  6.593106
H    -0.046299  -2.496695  6.478462
H    -0.475928  -3.868377  5.410807
Ba    1.886284  1.325301  4.963245
