34
Energy: -243346.024685 eV PBE+vdW (tier 2 basis)
C    0.191459  -0.630538  0.182582
C    0.112399  -0.038566  1.548236
O    1.215566  0.037387  2.259425
H    0.976934  -0.122897  -0.392446
H    -0.752332  -0.564468  -0.364911
H    0.475587  -1.689521  0.261404
N    -0.989349  0.409090  2.076445
C    -2.373567  0.462399  1.578733
C    -2.953676  1.581755  2.491872
O    -2.417812  1.720572  3.609773
H    -1.022440  0.836980  3.037863
H    -2.385784  0.752323  0.520645
C    -3.035853  -0.924899  1.782643
C    -4.529843  -1.044618  1.436544
C    -5.484524  -0.809863  2.613567
C    -6.958842  -0.828447  2.189638
N    -7.313003  0.379474  1.418188
H    -2.870787  -1.221223  2.830513
H    -2.458475  -1.630854  1.166364
H    -4.695402  -2.065470  1.061393
H    -4.792756  -0.383520  0.598553
H    -5.273694  0.148528  3.113864
H    -5.319784  -1.592430  3.371208
H    -7.589623  -0.954428  3.083976
H    -7.141303  -1.711163  1.559353
H    -8.018149  0.162874  0.714905
H    -7.741633  1.073039  2.031761
N    -3.954090  2.353873  2.060845
C    -4.655806  2.368605  0.777141
H    -4.272285  3.018786  2.763865
H    -4.905594  3.408004  0.537281
H    -5.579098  1.765355  0.819371
H    -4.009779  1.990610  -0.022313
Ba    3.066442  0.233566  3.553330
