34
Energy: -243347.961354 eV PBE+vdW (tier 2 basis)
C    -1.680947  1.499528  -0.691156
C    -1.648518  2.115567  0.672220
O    -0.967911  3.186548  0.854064
H    -2.265754  0.577015  -0.727133
H    -0.657075  1.289457  -1.026214
H    -2.105368  2.226152  -1.397615
N    -2.334851  1.540672  1.650908
C    -2.502166  2.135835  2.982435
C    -1.239969  1.904020  3.840442
O    -0.266856  2.715938  3.751913
H    -2.969563  0.673261  1.428668
H    -2.555963  3.230424  2.859737
C    -3.815331  1.659049  3.619614
C    -5.085644  2.068436  2.827427
C    -5.926394  0.920206  2.243722
C    -5.427096  0.264608  0.957154
N    -4.134036  -0.457272  1.130947
H    -3.858760  2.083016  4.631878
H    -3.802836  0.564317  3.747259
H    -4.816551  2.768195  2.019597
H    -5.730823  2.641456  3.504824
H    -6.927654  1.315574  2.021318
H    -6.089397  0.149601  3.016313
H    -5.271014  1.031671  0.182932
H    -6.206556  -0.413724  0.579552
H    -4.241505  -1.170725  1.857734
H    -3.930641  -0.987045  0.279347
N    -1.201673  0.858096  4.650060
C    -0.081991  0.496413  5.518141
H    -2.026503  0.264402  4.678752
H    0.559006  1.369206  5.663525
H    0.502476  -0.317367  5.069685
H    -0.472764  0.164225  6.485584
Ba    0.595637  4.390246  2.186365
