34
Energy: -243346.86002 eV PBE+vdW (tier 2 basis)
C    -0.029565  1.642422  0.463305
C    -0.371768  0.474295  1.328853
O    0.467758  -0.005201  2.149740
H    -0.576023  1.639956  -0.485880
H    1.048841  1.629783  0.270792
H    -0.254789  2.583857  0.989190
N    -1.606253  -0.078149  1.273034
C    -2.844501  0.678440  1.121625
C    -2.939055  1.707454  2.280484
O    -2.203577  1.589132  3.309160
H    -1.701799  -0.965345  1.766804
H    -2.821213  1.224222  0.166490
C    -4.061943  -0.278438  1.123877
C    -4.470438  -0.898497  2.467698
C    -3.493170  -1.865499  3.151839
C    -4.192667  -2.778485  4.185467
N    -5.170365  -3.616223  3.512992
H    -3.853299  -1.062710  0.380271
H    -4.921437  0.278458  0.724903
H    -5.381623  -1.486120  2.279832
H    -4.763901  -0.109413  3.179479
H    -2.685738  -1.313072  3.688719
H    -2.996330  -2.513479  2.407384
H    -4.717093  -2.146986  4.918099
H    -3.422100  -3.340342  4.746608
H    -4.774016  -4.494008  3.181969
H    -5.966276  -3.839564  4.105483
N    -3.826939  2.678659  2.145528
C    -4.131582  3.712181  3.135409
H    -4.366741  2.700245  1.282526
H    -4.011314  4.702201  2.680364
H    -3.449267  3.611793  3.981730
H    -5.166405  3.601598  3.481891
Ba    -0.378852  0.352016  4.452708
