34
Energy: -243347.225749 eV PBE+vdW (tier 2 basis)
C    1.583468  -0.316020  1.284074
C    0.900693  -0.110073  2.595842
O    1.545426  0.304217  3.608468
H    2.000043  0.644317  0.948843
H    0.919853  -0.706651  0.505891
H    2.429867  -1.002684  1.416272
N    -0.413209  -0.360864  2.688603
C    -1.228635  -0.057241  3.873304
C    -0.939513  -1.066195  5.008355
O    -0.158160  -0.687912  5.943114
H    -0.902689  -0.647435  1.843654
H    -0.850941  0.892567  4.278567
C    -2.700490  0.159418  3.490315
C    -3.621325  0.455524  4.678620
C    -3.272702  1.714002  5.482313
C    -4.446278  2.166304  6.371859
N    -5.613512  2.477914  5.549998
H    -3.080801  -0.701097  2.921930
H    -2.715510  1.015582  2.797376
H    -3.673699  -0.414562  5.354973
H    -4.639322  0.596448  4.286961
H    -3.022738  2.536817  4.789504
H    -2.388038  1.556350  6.124685
H    -4.106936  3.000971  7.011423
H    -4.716270  1.344828  7.052467
H    -6.478844  2.387705  6.078610
H    -5.580903  3.434124  5.197846
N    -1.439304  -2.292597  5.039244
C    -2.328531  -2.980016  4.098558
H    -1.172108  -2.820697  5.870192
H    -2.219173  -4.056208  4.261819
H    -2.050083  -2.765292  3.062899
H    -3.376225  -2.704087  4.270268
Ba    1.948218  0.541303  5.992769
