34
Energy: -243347.355524 eV PBE+vdW (tier 2 basis)
C    -0.394622  -0.955678  -0.314467
C    -0.222843  -0.593614  1.124822
O    0.900480  -0.193335  1.563000
H    -0.189866  -0.065135  -0.925702
H    -1.396547  -1.326936  -0.553103
H    0.348470  -1.713377  -0.594604
N    -1.280623  -0.686140  1.940579
C    -1.333434  -0.216252  3.338583
C    -0.632261  -1.248557  4.248274
O    0.623501  -1.156386  4.429302
H    -2.159987  -0.993848  1.530701
H    -0.708486  0.688382  3.395356
C    -2.774598  0.176033  3.702025
C    -2.919184  1.068020  4.941149
C    -2.607466  0.451520  6.308224
C    -3.107427  1.351979  7.454633
N    -4.558303  1.512877  7.377507
H    -3.417624  -0.718702  3.790560
H    -3.169934  0.728198  2.835121
H    -3.964206  1.409357  4.981193
H    -2.311885  1.977711  4.796577
H    -1.527858  0.269438  6.447515
H    -3.110045  -0.527831  6.401963
H    -2.644658  2.345319  7.355168
H    -2.750154  0.937928  8.414090
H    -4.861146  2.390878  7.794115
H    -5.045937  0.768109  7.874095
N    -1.353405  -2.219374  4.777149
C    -0.859103  -3.268726  5.665027
H    -2.359366  -2.173325  4.630510
H    -1.224317  -4.242022  5.318671
H    -1.223120  -3.091592  6.685374
H    0.232623  -3.260693  5.663452
Ba    2.583273  -0.243796  3.295896
