34
Energy: -243347.445585 eV PBE+vdW (tier 2 basis)
C    -0.146763  -1.367373  0.674592
C    -0.526774  -0.197348  1.520436
O    0.147511  0.112137  2.542262
H    0.903485  -1.212397  0.383321
H    -0.744196  -1.461914  -0.234882
H    -0.167984  -2.300840  1.251337
N    -1.560404  0.626607  1.166074
C    -2.981891  0.297937  0.939171
C    -3.739997  1.137221  2.006309
O    -3.214099  1.326924  3.141287
H    -1.468198  1.520023  1.648843
H    -3.283184  0.612962  -0.070560
C    -3.350454  -1.198670  1.141405
C    -3.125307  -1.657396  2.584970
C    -2.941074  -3.136075  2.904772
C    -2.613969  -3.320680  4.390362
N    -1.420654  -2.511648  4.831659
H    -2.778297  -1.810300  0.432896
H    -4.403581  -1.322088  0.854293
H    -3.916106  -1.246825  3.233224
H    -2.177667  -1.196863  2.901412
H    -2.142498  -3.570391  2.282243
H    -3.850055  -3.711000  2.678931
H    -2.452059  -4.386558  4.603377
H    -3.466456  -2.996754  5.004622
H    -1.231522  -2.780647  5.803315
H    -0.600200  -2.867058  4.325870
N    -4.941833  1.585094  1.672813
C    -5.844780  2.332428  2.548373
H    -5.254581  1.419762  0.718547
H    -6.773215  1.767897  2.696817
H    -6.083486  3.298828  2.088998
H    -5.354123  2.497242  3.509954
Ba    -1.311373  0.385657  4.642707
