34
Energy: -243346.592595 eV PBE+vdW (tier 2 basis)
C    0.021558  -0.297051  3.173840
C    -0.942959  -0.561906  4.283775
O    -0.525955  -0.700491  5.477105
H    -0.328760  0.509179  2.518927
H    0.154079  -1.193105  2.547633
H    0.991772  -0.029503  3.601973
N    -2.272037  -0.669418  4.054206
C    -2.891662  -1.400533  2.938153
C    -2.419075  -2.880609  3.034953
O    -1.771856  -3.294097  4.051478
H    -2.818573  -0.677126  4.913802
H    -3.966257  -1.410145  3.181764
C    -2.756241  -0.762579  1.542247
C    -3.177363  0.712826  1.505852
C    -2.954238  1.362007  0.134482
C    -3.863300  0.841875  -0.984704
N    -3.499985  1.474512  -2.247509
H    -3.408323  -1.326926  0.857535
H    -1.735640  -0.882932  1.152097
H    -2.611680  1.273540  2.265545
H    -4.237220  0.796731  1.798480
H    -1.905539  1.240547  -0.181653
H    -3.112090  2.445862  0.242027
H    -4.921843  0.981888  -0.679580
H    -3.719755  -0.243448  -1.118947
H    -4.003155  1.058222  -3.029877
H    -3.732866  2.468262  -2.244813
N    -2.737699  -3.698160  2.047919
C    -2.427415  -5.129758  2.016758
H    -3.232542  -3.303878  1.252011
H    -1.342344  -5.287092  1.995060
H    -2.867503  -5.557962  1.112705
H    -2.852110  -5.631048  2.894148
Ba    -0.594237  -3.042737  6.216207
