34
Energy: -243347.702754 eV PBE+vdW (tier 2 basis)
C    -0.226616  -2.385639  2.373844
C    0.260246  -1.075570  2.903165
O    1.412080  -0.958820  3.405475
H    0.397196  -2.717931  1.533063
H    -1.277750  -2.375864  2.071375
H    -0.097046  -3.130252  3.172195
N    -0.547433  0.016921  2.857703
C    -1.358380  0.390565  1.696668
C    -0.511520  0.220173  0.414494
O    0.755488  0.235616  0.480932
H    -0.200051  0.794357  3.413889
H    -2.238240  -0.265258  1.644023
C    -1.855060  1.861114  1.829658
C    -0.885120  2.966850  1.373483
C    0.403229  3.127480  2.202724
C    1.597213  3.675410  1.417642
N    2.876632  3.222245  2.048778
H    -2.166566  2.005224  2.875471
H    -2.775916  1.951767  1.239507
H    -1.438316  3.915620  1.376530
H    -0.616997  2.794850  0.318823
H    0.715117  2.147864  2.600339
H    0.212810  3.744191  3.093377
H    1.549108  4.770894  1.335252
H    1.582736  3.279331  0.390667
H    3.658918  3.682126  1.571313
H    2.921501  3.594172  3.003808
N    -1.122472  0.083227  -0.756154
C    -2.556801  0.071137  -1.054868
H    -0.491806  0.023092  -1.555292
H    -3.129682  -0.349998  -0.223217
H    -2.721102  -0.558421  -1.934809
H    -2.920827  1.083413  -1.272562
Ba    2.894324  0.377072  1.839274
