34
Energy: -243347.13232 eV PBE+vdW (tier 2 basis)
C    -0.097756  -0.422814  -0.159317
C    -0.142263  -0.409114  1.333144
O    0.919263  -0.534151  2.018204
H    0.526006  0.415455  -0.500677
H    -1.085696  -0.342798  -0.624224
H    0.390186  -1.344545  -0.502333
N    -1.326210  -0.251341  1.943093
C    -1.495003  -0.066519  3.392546
C    -1.271421  -1.403241  4.138980
O    -0.128839  -1.589327  4.674061
H    -2.145894  -0.111445  1.356616
H    -0.651703  0.554362  3.731495
C    -2.786471  0.698515  3.703414
C    -3.005502  0.927439  5.205425
C    -4.307881  1.676289  5.515823
C    -5.583827  0.860988  5.272909
N    -6.755577  1.676370  5.553803
H    -3.652254  0.190254  3.258033
H    -2.709410  1.672417  3.195586
H    -2.154178  1.500370  5.605737
H    -3.004644  -0.036371  5.744030
H    -4.365517  2.606423  4.930379
H    -4.283137  1.984679  6.571754
H    -5.519457  -0.082182  5.862730
H    -5.648672  0.563089  4.212677
H    -7.617352  1.215865  5.266009
H    -6.842306  1.883047  6.548994
N    -2.188258  -2.356182  4.221498
C    -3.556648  -2.410419  3.698256
H    -1.887551  -3.161938  4.770236
H    -3.859925  -3.461064  3.669430
H    -3.605830  -2.016606  2.678901
H    -4.251158  -1.861850  4.347492
Ba    2.179708  -1.188093  3.989550
