34
Energy: -243347.31441 eV PBE+vdW (tier 2 basis)
C    -0.119566  1.119560  0.461974
C    -0.217560  0.273812  1.692536
O    0.477864  -0.780350  1.795244
H    -0.726808  2.029600  0.503108
H    -0.439566  0.517490  -0.400305
H    0.929330  1.392705  0.289184
N    -1.059874  0.671544  2.658243
C    -1.486007  -0.027040  3.891859
C    -0.369007  -0.072331  4.945275
O    0.651172  -0.811233  4.772880
H    -1.564751  1.530729  2.460023
H    -2.291997  0.602703  4.284811
C    -2.099571  -1.421178  3.665992
C    -2.711630  -1.985430  4.949809
C    -3.505553  -3.277805  4.739501
C    -4.313913  -3.660853  5.988461
N    -5.243872  -2.583930  6.347049
H    -1.356529  -2.117709  3.242373
H    -2.875037  -1.311950  2.893426
H    -3.409556  -1.251487  5.385341
H    -1.927076  -2.157387  5.707336
H    -2.840993  -4.113095  4.465931
H    -4.199582  -3.144435  3.892858
H    -3.626841  -3.809140  6.835667
H    -4.800679  -4.635067  5.808103
H    -6.080319  -2.620597  5.762792
H    -5.567076  -2.692455  7.307556
N    -0.492251  0.632690  6.060148
C    -1.592445  1.508459  6.485155
H    0.273501  0.506598  6.722192
H    -1.785679  2.292427  5.744218
H    -1.289946  1.994587  7.416628
H    -2.505648  0.931545  6.676000
Ba    1.786723  -2.252089  3.179337
