34
Energy: -243348.009161 eV PBE+vdW (tier 2 basis)
C    -0.347973  -1.399401  0.005046
C    -0.737975  -0.558000  1.176084
O    -0.174445  0.547442  1.408558
H    0.712269  -1.671864  0.096875
H    -0.444468  -0.803298  -0.912102
H    -0.944884  -2.311999  -0.093536
N    -1.722098  -1.002703  1.989018
C    -2.186695  -0.207539  3.121688
C    -1.265168  -0.365304  4.349799
O    -0.481075  0.599378  4.600386
H    -2.172281  -1.886760  1.768673
H    -1.969149  0.820322  2.814312
C    -3.714037  -0.226809  3.356646
C    -4.312858  1.102402  2.863479
C    -3.825161  2.319528  3.689488
C    -3.471831  3.574167  2.893773
N    -2.237388  3.406354  2.049065
H    -3.935637  -0.361839  4.424365
H    -4.177598  -1.075699  2.833839
H    -5.408017  1.046422  2.894826
H    -4.060004  1.216842  1.795507
H    -2.954148  2.045851  4.310524
H    -4.603072  2.595990  4.414086
H    -3.274962  4.401730  3.587553
H    -4.321782  3.880451  2.264962
H    -2.076886  4.306220  1.582650
H    -2.469641  2.779909  1.269796
N    -1.269957  -1.451995  5.109729
C    -2.065782  -2.670317  4.980573
H    -0.603255  -1.425140  5.882441
H    -2.607336  -2.857748  5.915425
H    -1.410074  -3.525351  4.774023
H    -2.796355  -2.576512  4.174276
Ba    0.267198  2.423250  3.023084
