34
Energy: -243347.475869 eV PBE+vdW (tier 2 basis)
C    1.138292  0.816743  0.818482
C    0.497781  0.720436  2.165190
O    1.070224  1.205673  3.190361
H    1.247664  1.879888  0.560704
H    0.567614  0.317399  0.028722
H    2.149479  0.392086  0.858269
N    -0.696086  0.123956  2.264122
C    -1.554629  0.092196  3.461223
C    -1.076611  -1.017472  4.421751
O    -0.076071  -0.794275  5.174401
H    -1.110045  -0.228715  1.404105
H    -1.382004  1.035598  4.003456
C    -3.031072  0.040612  3.060891
C    -3.500468  1.319461  2.355043
C    -5.009204  1.337202  2.065816
C    -5.898969  1.070034  3.287258
N    -5.449929  1.841313  4.457846
H    -3.618360  -0.069845  3.984195
H    -3.233541  -0.841060  2.424504
H    -2.957006  1.469871  1.409150
H    -3.250854  2.170750  3.006024
H    -5.258921  0.605875  1.281966
H    -5.253729  2.322818  1.641776
H    -5.856565  0.003190  3.559202
H    -6.946675  1.261298  2.997544
H    -5.598047  2.839764  4.295450
H    -6.029063  1.610932  5.266123
N    -1.725821  -2.167904  4.431656
C    -1.414858  -3.322817  5.272161
H    -2.536900  -2.241413  3.820839
H    -2.283722  -3.567589  5.894688
H    -0.561973  -3.084730  5.910846
H    -1.174262  -4.186004  4.639815
Ba    1.713430  0.837217  5.488356
