34
Energy: -243347.375541 eV PBE+vdW (tier 2 basis)
C    1.797398  3.161209  3.019333
C    1.238593  2.236776  4.051746
O    1.442427  2.447678  5.288555
H    1.350210  4.155150  3.165756
H    1.602245  2.833230  1.993183
H    2.879169  3.272714  3.165769
N    0.505232  1.196041  3.642718
C    -0.290816  0.302093  4.501649
C    0.632927  -0.756459  5.146403
O    1.305076  -0.444406  6.179769
H    0.341567  1.112020  2.641676
H    -0.662529  0.909260  5.342564
C    -1.494120  -0.260726  3.730270
C    -2.595580  0.749148  3.374656
C    -2.283699  1.789902  2.291033
C    -3.577279  2.366983  1.682211
N    -4.362107  1.305406  1.054174
H    -1.939882  -1.047686  4.357212
H    -1.147618  -0.754126  2.802838
H    -2.940647  1.251596  4.293142
H    -3.451778  0.165925  3.002386
H    -1.706907  1.319719  1.472023
H    -1.678274  2.625220  2.678226
H    -3.311592  3.194524  1.001558
H    -4.179502  2.811048  2.488741
H    -5.354321  1.532798  1.040028
H    -4.081768  1.155272  0.085586
N    0.697412  -1.957611  4.599800
C    1.514703  -3.073799  5.073289
H    0.103108  -2.128002  3.791009
H    0.879249  -3.956688  5.207567
H    1.975164  -2.805351  6.026251
H    2.294737  -3.304130  4.336947
Ba    2.059170  1.513752  7.425963
