34
Energy: -243346.77172 eV PBE+vdW (tier 2 basis)
C    -0.815244  0.095929  -0.807800
C    -0.353048  -0.242521  0.572052
O    0.799021  -0.733951  0.774320
H    -1.905743  0.105303  -0.901110
H    -0.390855  -0.636180  -1.504813
H    -0.429081  1.083435  -1.106912
N    -1.154504  0.001836  1.633466
C    -1.941263  1.229361  1.795478
C    -0.964573  2.420233  1.660584
O    0.273545  2.237249  1.936624
H    -0.820794  -0.397356  2.511382
H    -2.713842  1.279549  1.016361
C    -2.615619  1.183101  3.189424
C    -3.608129  2.304600  3.476197
C    -4.213728  2.241257  4.880947
C    -5.083266  3.473492  5.166838
N    -4.304525  4.713846  5.014205
H    -1.820755  1.182390  3.956173
H    -3.118087  0.204803  3.250408
H    -4.420881  2.277860  2.731731
H    -3.128482  3.290483  3.396509
H    -3.404831  2.187296  5.629647
H    -4.819019  1.331461  5.009533
H    -5.543544  3.359608  6.162733
H    -5.911521  3.506103  4.443380
H    -4.931847  5.513309  4.928440
H    -3.750438  4.888129  5.854319
N    -1.373833  3.615430  1.269518
C    -2.695561  4.079402  0.837742
H    -0.643649  4.328659  1.289363
H    -3.349668  3.236966  0.602992
H    -2.567761  4.693260  -0.060825
H    -3.161443  4.682417  1.627269
Ba    2.297293  0.840559  1.961539
