34
Energy: -243347.215019 eV PBE+vdW (tier 2 basis)
C    -0.384466  0.171830  -0.021992
C    -0.217099  -0.074526  1.438718
O    0.758139  -0.796628  1.862934
H    -0.749986  -0.740387  -0.516048
H    0.600086  0.393505  -0.452880
H    -1.071471  0.994290  -0.241825
N    -1.048065  0.430730  2.340300
C    -2.443411  0.852306  2.244438
C    -2.815110  1.135144  3.727172
O    -2.141263  0.601899  4.632707
H    -0.822889  0.274730  3.335354
H    -2.531568  1.781259  1.662317
C    -3.345725  -0.243468  1.598065
C    -3.056275  -1.699598  1.999987
C    -3.525217  -2.159041  3.400684
C    -2.537270  -3.048570  4.154640
N    -1.342692  -2.288948  4.685913
H    -3.241755  -0.155329  0.508095
H    -4.395280  0.006078  1.811759
H    -1.973356  -1.888976  1.886365
H    -3.523777  -2.343405  1.243132
H    -4.460127  -2.725202  3.294980
H    -3.774969  -1.304395  4.044029
H    -2.185148  -3.863246  3.494279
H    -3.050370  -3.540255  4.991203
H    -1.210084  -2.571124  5.662221
H    -1.612311  -1.290642  4.756858
N    -3.869788  1.924170  3.934414
C    -4.394455  2.268950  5.255315
H    -4.317429  2.349382  3.127316
H    -4.373951  3.356573  5.391245
H    -3.765905  1.797742  6.014789
H    -5.427054  1.913761  5.357234
Ba    0.972166  -2.704986  3.295555
