34
Energy: -243345.857118 eV PBE+vdW (tier 2 basis)
C    -0.320377  1.302484  -0.356454
C    -0.219927  0.867434  1.069571
O    0.952088  0.889226  1.656157
H    0.026508  2.340590  -0.453597
H    -1.344479  1.239047  -0.737219
H    0.326041  0.671729  -0.982254
N    -1.288641  0.472794  1.699001
C    -1.477971  0.004362  3.077572
C    -2.827700  -0.762589  2.937231
O    -3.599865  -0.354843  2.055607
H    -2.232841  0.448554  1.241051
H    -0.649932  -0.658341  3.362012
C    -1.557028  1.232535  4.021438
C    -1.888864  0.958276  5.498616
C    -3.383073  1.025321  5.840249
C    -3.676008  0.626910  7.291973
N    -3.490727  -0.822294  7.498725
H    -2.295512  1.929088  3.595886
H    -0.581676  1.741750  3.946510
H    -1.370181  1.719103  6.101750
H    -1.474347  -0.007443  5.823679
H    -3.972240  0.380315  5.170200
H    -3.745190  2.051073  5.669454
H    -4.689286  0.967554  7.559458
H    -2.985704  1.161660  7.961169
H    -3.231993  -1.014422  8.465993
H    -4.376283  -1.308999  7.352520
N    -3.095497  -1.814755  3.720722
C    -2.292735  -2.446887  4.764911
H    -4.019845  -2.207214  3.549316
H    -2.502275  -3.522176  4.754186
H    -2.530038  -2.036021  5.760829
H    -1.223316  -2.319234  4.561889
Ba    3.107921  1.188972  2.301337
