34
Energy: -243347.525122 eV PBE+vdW (tier 2 basis)
C    0.612241  -0.090610  0.987081
C    -0.453697  0.787214  1.584153
O    -0.165595  1.344061  2.727840
H    0.259483  -0.654068  0.117506
H    0.953297  -0.813046  1.739447
H    1.490976  0.510990  0.713529
N    -1.590350  0.955817  0.942935
C    -2.573037  1.839472  1.596590
C    -2.964466  1.309304  2.988610
O    -2.741739  1.991038  4.037281
H    -1.371083  0.914366  -0.659424
H    -2.098789  2.815607  1.798775
C    -3.861176  2.085779  0.759297
C    -3.714276  2.056805  -0.764161
C    -2.608610  2.952213  -1.366284
C    -1.769789  2.205834  -2.393356
N    -1.107027  0.994277  -1.748390
H    -4.273417  3.052385  1.083111
H    -4.625250  1.341601  1.023825
H    -4.685228  2.333540  -1.195359
H    -3.564227  1.010535  -1.071809
H    -1.946105  3.357102  -0.586496
H    -3.042754  3.828320  -1.865128
H    -0.978992  2.833975  -2.817673
H    -2.387039  1.839148  -3.221895
H    -1.378476  0.123811  -2.214868
H    -0.087406  1.057402  -1.818057
N    -3.545048  0.116309  3.046012
C    -4.021922  -0.536237  4.262104
H    -3.661466  -0.381829  2.167250
H    -4.977603  -1.028869  4.054209
H    -4.169924  0.216924  5.040366
H    -3.304835  -1.292255  4.609312
Ba    -0.460672  2.489084  4.760667
