34
Energy: -243347.701588 eV PBE+vdW (tier 2 basis)
C    -0.518284  -1.322795  1.029546
C    -0.271310  -0.379675  2.159198
O    0.888763  -0.163209  2.600306
H    0.176950  -1.133532  0.203715
H    -1.551155  -1.322020  0.668780
H    -0.294821  -2.334591  1.403906
N    -1.319274  0.251731  2.760677
C    -2.424538  0.908424  2.068467
C    -1.887141  1.639316  0.817143
O    -0.688385  2.041157  0.774484
H    -1.065071  0.677672  3.650700
H    -3.179792  0.170914  1.757473
C    -3.100201  1.892154  3.062177
C    -2.197834  2.974151  3.686655
C    -2.038658  4.284022  2.899801
C    -0.921079  5.176320  3.446632
N    0.427636  4.840990  2.862827
H    -3.532364  1.268314  3.857508
H    -3.954028  2.364833  2.557132
H    -1.197396  2.561645  3.925980
H    -2.612376  3.220831  4.674269
H    -2.985309  4.839650  2.955809
H    -1.863209  4.104552  1.828213
H    -0.844671  5.065531  4.536842
H    -1.150343  6.232986  3.253061
H    1.124995  5.330952  3.434532
H    0.477528  5.333077  1.962532
N    -2.748341  1.834252  -0.172010
C    -2.472504  2.555246  -1.413987
H    -3.687227  1.459097  -0.055174
H    -2.793080  1.946505  -2.266796
H    -1.399654  2.747029  -1.485494
H    -3.019490  3.506406  -1.429545
Ba    1.442823  2.276601  2.098606
