34
Energy: -243346.623378 eV PBE+vdW (tier 2 basis)
C    0.196605  1.101231  0.295456
C    0.139998  0.191243  1.479977
O    1.124465  -0.577500  1.724856
H    -0.310600  0.643538  -0.568085
H    1.248166  1.246069  0.026897
H    -0.273972  2.069460  0.486542
N    -0.914270  0.160529  2.331286
C    -2.339988  0.087333  1.976391
C    -2.591282  -1.332697  1.399471
O    -1.621607  -2.075131  1.029765
H    -0.691670  -0.368475  3.175151
H    -2.875372  0.140850  2.935962
C    -2.872913  1.249191  1.103057
C    -4.404835  1.351132  0.996780
C    -5.172649  1.313322  2.320459
C    -6.680488  1.542133  2.152647
N    -7.380170  1.183480  3.384268
H    -2.457088  1.193197  0.089579
H    -2.484590  2.167186  1.568127
H    -4.790089  0.581497  0.307684
H    -4.614013  2.302727  0.486155
H    -4.758852  2.061630  3.017365
H    -5.070042  0.344015  2.848292
H    -7.056815  0.886124  1.351743
H    -6.849321  2.580086  1.806981
H    -7.254199  1.897716  4.102799
H    -8.384749  1.116491  3.223721
N    -3.842400  -1.748709  1.331389
C    -4.267200  -3.048914  0.810398
H    -4.562959  -1.120926  1.688303
H    -4.001026  -3.852203  1.509281
H    -3.799558  -3.239093  -0.161564
H    -5.353461  -3.033056  0.689385
Ba    0.693311  -2.919598  1.138347
