34
Energy: -243347.80007 eV PBE+vdW (tier 2 basis)
C    0.006977  -1.138598  0.620497
C    -0.114341  -0.470824  1.952830
O    0.810920  0.327606  2.341969
H    0.947195  -1.703776  0.577547
H    0.060279  -0.369843  -0.162463
H    -0.826587  -1.813195  0.407764
N    -1.182624  -0.712372  2.702578
C    -1.409178  0.001756  3.960472
C    -0.411982  -0.447512  5.047361
O    0.522924  0.356567  5.370323
H    -2.016848  -1.319733  2.317962
H    -1.142508  1.058507  3.795567
C    -2.885685  -0.021425  4.388625
C    -3.826182  0.739220  3.418099
C    -4.836249  -0.110224  2.627843
C    -4.324582  -0.886868  1.415803
N    -3.396736  -1.997625  1.778302
H    -2.928429  0.442348  5.383935
H    -3.238300  -1.050646  4.526787
H    -3.233670  1.347617  2.714918
H    -4.401206  1.461722  4.010915
H    -5.617297  0.566165  2.252249
H    -5.360904  -0.796227  3.314456
H    -3.778256  -0.211889  0.739022
H    -5.187442  -1.271676  0.852549
H    -3.869100  -2.626467  2.434242
H    -3.223246  -2.570893  0.948453
N    -0.480744  -1.631935  5.642419
C    -1.408019  -2.743958  5.426498
H    0.222335  -1.767326  6.368846
H    -0.883044  -3.673959  5.667227
H    -1.721087  -2.789742  4.380032
H    -2.285684  -2.659189  6.079350
Ba    2.116605  1.545564  3.938582
