34
Energy: -243347.107253 eV PBE+vdW (tier 2 basis)
C    -0.604752  0.576208  -0.111652
C    -0.433814  0.462215  1.367444
O    0.674493  0.743808  1.919302
H    0.156596  -0.032553  -0.616674
H    -0.427282  1.620033  -0.406833
H    -1.597746  0.272517  -0.458545
N    -1.477330  0.064490  2.108630
C    -1.498016  0.054193  3.579054
C    -0.653949  -1.115224  4.132822
O    0.534707  -0.849577  4.512517
H    -2.359443  -0.105987  1.630807
H    -0.938444  0.944947  3.905154
C    -2.930714  0.192250  4.111588
C    -3.475369  1.621577  3.963807
C    -4.924198  1.762298  4.447088
C    -5.968174  1.117170  3.527930
N    -7.291171  1.222470  4.128739
H    -2.933739  -0.090604  5.175122
H    -3.594501  -0.522441  3.604650
H    -3.407272  1.948407  2.911729
H    -2.830040  2.303910  4.539660
H    -5.152029  2.834885  4.540264
H    -5.033730  1.341257  5.458439
H    -5.756912  0.041016  3.407049
H    -5.877488  1.568909  2.515837
H    -7.987748  0.704144  3.595481
H    -7.608063  2.191754  4.166682
N    -1.100712  -2.358970  4.225227
C    -2.390165  -2.940315  3.839019
H    -0.431567  -3.000858  4.651045
H    -2.241206  -4.014502  3.694257
H    -2.746549  -2.517588  2.895415
H    -3.142231  -2.792795  4.623356
Ba    2.364140  0.517386  3.649724
