34
Energy: -243347.363796 eV PBE+vdW (tier 2 basis)
C    0.090872  1.424089  0.642302
C    -0.299842  0.130347  1.252691
O    0.472351  -0.879847  1.208736
H    -0.357693  2.289418  1.144921
H    -0.307590  1.405000  -0.405631
H    1.178710  1.528438  0.609904
N    -1.531144  0.049905  1.792433
C    -2.341855  -1.147109  2.101492
C    -1.860985  -1.850541  3.377588
O    -0.764793  -2.493213  3.394653
H    -2.053373  0.920870  1.776083
H    -3.341658  -0.744085  2.301912
C    -2.483826  -2.152250  0.934371
C    -3.464083  -1.718116  -0.172547
C    -3.120798  -0.450386  -0.968701
C    -1.865808  -0.555896  -1.840634
N    -1.359591  0.779174  -2.192732
H    -2.849199  -3.099151  1.360278
H    -1.491681  -2.367679  0.510453
H    -4.462325  -1.597968  0.276292
H    -3.560158  -2.566186  -0.867484
H    -3.018294  0.418943  -0.300452
H    -3.982339  -0.214964  -1.610804
H    -2.095165  -1.186701  -2.718216
H    -1.058039  -1.075211  -1.297043
H    -0.636934  0.710207  -2.911357
H    -2.103415  1.346638  -2.605071
N    -2.623492  -1.824414  4.462711
C    -3.915074  -1.157025  4.671597
H    -2.252140  -2.358125  5.248580
H    -3.842563  -0.080738  4.477561
H    -4.194097  -1.292168  5.720145
H    -4.700187  -1.603497  4.049332
Ba    1.335058  -2.863904  2.225913
