34
Energy: -243346.061727 eV PBE+vdW (tier 2 basis)
C    -0.983965  -1.998382  0.526110
C    -0.703084  -1.148911  1.727690
O    -0.041249  -1.574247  2.694309
H    -0.162744  -2.704700  0.373998
H    -1.147620  -1.411795  -0.385749
H    -1.899820  -2.576878  0.725271
N    -1.219672  0.119322  1.719345
C    -1.499869  0.943447  2.904885
C    -0.253574  1.420002  3.643000
O    -0.217510  2.649471  4.087791
H    -1.760692  0.367267  0.897599
H    -1.983906  1.850082  2.517634
C    -2.469527  0.263572  3.913385
C    -3.794523  -0.145237  3.270584
C    -4.702663  -0.946602  4.209360
C    -5.813544  -1.675618  3.440145
N    -5.241340  -2.654067  2.507563
H    -2.638827  0.963556  4.748622
H    -1.972074  -0.619206  4.340955
H    -3.602422  -0.786009  2.396988
H    -4.329189  0.746768  2.902339
H    -5.152322  -0.297045  4.975438
H    -4.101388  -1.695702  4.751586
H    -6.392960  -0.947492  2.852993
H    -6.515505  -2.120589  4.166895
H    -5.919995  -2.925199  1.797471
H    -4.971258  -3.508879  2.995314
N    0.710714  0.577151  3.875937
C    1.927792  0.877325  4.613536
H    0.511387  -0.420433  3.475154
H    2.573770  -0.004692  4.589947
H    1.704151  1.112339  5.664094
H    2.471087  1.714607  4.153243
Ba    -0.021127  4.751262  4.932338
