34
Energy: -243346.001287 eV PBE+vdW (tier 2 basis)
C    0.289528  -0.104095  0.769956
C    -0.255473  0.317240  2.092205
O    0.585447  0.492931  3.085266
H    1.077596  0.594497  0.459200
H    -0.474265  -0.151864  -0.010456
H    0.752098  -1.096400  0.867341
N    -1.521760  0.521993  2.315093
C    -2.701787  0.409935  1.445137
C    -3.726788  1.270632  2.247121
O    -3.518340  1.386913  3.469499
H    -1.889174  0.832400  3.251894
H    -2.482447  0.836359  0.457454
C    -3.140217  -1.071579  1.338944
C    -4.286986  -1.344959  0.364363
C    -4.628871  -2.837953  0.246688
C    -5.180483  -3.468248  1.532416
N    -6.300725  -2.685624  2.064342
H    -3.412823  -1.409402  2.349861
H    -2.256304  -1.656366  1.035226
H    -4.029486  -0.957778  -0.633835
H    -5.190534  -0.823094  0.705408
H    -3.749787  -3.412843  -0.084973
H    -5.376758  -2.948734  -0.553764
H    -4.399771  -3.498623  2.308754
H    -5.432282  -4.522650  1.316937
H    -7.119503  -2.768093  1.459314
H    -6.585304  -3.031649  2.980020
N    -4.773455  1.836970  1.637757
C    -5.117841  1.917419  0.222460
H    -5.395949  2.317165  2.286109
H    -5.336505  2.960524  -0.035122
H    -5.998279  1.303744  -0.004890
H    -4.288136  1.577741  -0.402627
Ba    1.969143  0.855511  4.850032
