34
Energy: -243347.258082 eV PBE+vdW (tier 2 basis)
C    1.281897  1.604798  0.960864
C    0.875554  0.238138  1.412301
O    1.459834  -0.795135  0.964316
H    1.445574  2.271396  1.815905
H    0.496551  2.062304  0.339043
H    2.198593  1.532896  0.369553
N    -0.140464  0.080019  2.292427
C    -1.406917  0.833117  2.244711
C    -1.980224  0.696268  0.804784
O    -1.594561  -0.304217  0.090229
H    -0.223868  -0.873986  2.638447
H    -2.088716  0.244013  2.879541
C    -1.368348  2.256433  2.828498
C    -2.678127  2.607507  3.561854
C    -2.991263  4.106924  3.615326
C    -3.085955  4.781162  2.244657
N    -3.883408  3.965275  1.287990
H    -0.527086  2.313679  3.531102
H    -1.155527  2.982199  2.031990
H    -2.631805  2.210101  4.585631
H    -3.522689  2.084428  3.086258
H    -2.234955  4.640201  4.209640
H    -3.940921  4.238974  4.155245
H    -2.088857  4.915155  1.800182
H    -3.506694  5.790071  2.366641
H    -4.827905  3.834388  1.663467
H    -4.015120  4.505822  0.429140
N    -2.855074  1.562956  0.355823
C    -3.483144  1.406516  -0.955410
H    -3.179580  2.462348  0.882384
H    -2.750360  1.528508  -1.763992
H    -4.250560  2.179115  -1.057635
H    -3.955181  0.421331  -1.048805
Ba    -0.028043  -2.029667  -0.591387
