34
Energy: -243345.947147 eV PBE+vdW (tier 2 basis)
C    0.146310  -0.969516  0.738711
C    -0.250853  -0.321582  2.022147
O    0.667948  -0.135946  2.937306
H    1.111320  -0.570484  0.405137
H    -0.595580  -0.832563  -0.053281
H    0.274958  -2.049692  0.903378
N    -1.468158  0.063476  2.284728
C    -2.695069  0.047672  1.478195
C    -3.567265  1.082005  2.254778
O    -3.170534  1.442543  3.378382
H    -1.716320  0.577942  3.172261
H    -2.475886  0.440017  0.473956
C    -3.305457  -1.368818  1.350156
C    -3.729058  -2.072565  2.648595
C    -5.073920  -1.626428  3.232626
C    -5.533650  -2.504623  4.401505
N    -6.786126  -2.003171  4.954076
H    -2.563808  -1.986506  0.821886
H    -4.162732  -1.303682  0.665902
H    -2.937695  -1.973117  3.411231
H    -3.782430  -3.148751  2.424002
H    -5.839599  -1.659661  2.438742
H    -5.038706  -0.589975  3.594158
H    -4.777905  -2.468370  5.201509
H    -5.582914  -3.560267  4.065491
H    -7.579479  -2.181763  4.338922
H    -6.999974  -2.415222  5.860351
N    -4.686665  1.552265  1.695016
C    -5.282487  1.223185  0.404589
H    -5.206495  2.186496  2.298669
H    -5.829057  2.098794  0.039711
H    -5.984117  0.381764  0.485194
H    -4.512807  0.982456  -0.336615
Ba    2.233182  0.314541  4.532877
