34
Energy: -243346.701818 eV PBE+vdW (tier 2 basis)
C    -0.276178  -0.118070  -0.422336
C    -0.188433  -0.038619  1.067516
O    0.932671  -0.121639  1.660487
H    -0.150554  0.881544  -0.868188
H    -1.230616  -0.529194  -0.767947
H    0.547877  -0.741681  -0.786152
N    -1.303254  0.145097  1.805726
C    -2.380482  1.056107  1.433928
C    -1.816893  2.507165  1.521879
O    -0.627692  2.716713  1.927742
H    -1.168340  0.031549  2.811180
H    -2.655475  0.865025  0.384866
C    -3.612462  0.828733  2.327382
C    -4.234428  -0.562826  2.148158
C    -5.506819  -0.763689  2.980997
C    -5.276285  -0.869074  4.492612
N    -6.556423  -0.975146  5.181161
H    -4.370386  1.590959  2.091334
H    -3.328590  1.009957  3.377629
H    -3.496784  -1.341200  2.403111
H    -4.472704  -0.704549  1.081887
H    -5.996344  -1.686309  2.634052
H    -6.224771  0.048648  2.788200
H    -4.786010  0.044997  4.868022
H    -4.570772  -1.706147  4.686874
H    -7.023888  -1.856272  4.965382
H    -6.442173  -0.941090  6.193064
N    -2.621767  3.488112  1.152714
C    -2.312701  4.917928  1.168325
H    -3.559185  3.229918  0.850414
H    -2.503363  5.342949  0.176098
H    -1.262947  5.058823  1.432346
H    -2.947770  5.427383  1.903505
Ba    1.645119  2.025257  2.628221
