34
Energy: -243346.790344 eV PBE+vdW (tier 2 basis)
C    -1.209052  1.062539  0.929659
C    -0.327488  0.593006  2.041022
O    0.926456  0.805143  1.993691
H    -2.126903  1.525082  1.308496
H    -1.505512  0.219734  0.286080
H    -0.654917  1.782095  0.319897
N    -0.824456  -0.065435  3.112332
C    -1.828641  -1.140360  3.076438
C    -1.227746  -2.316835  2.257715
O    -0.037053  -2.265239  1.804445
H    -0.137587  -0.165568  3.858546
H    -1.890988  -1.494107  4.118576
C    -3.258467  -0.752043  2.671839
C    -3.853742  0.328133  3.577485
C    -5.338962  0.607377  3.290424
C    -6.220401  -0.640959  3.138029
N    -5.905140  -1.665531  4.150626
H    -3.888576  -1.643659  2.821986
H    -3.320385  -0.487819  1.607467
H    -3.285182  1.267522  3.499299
H    -3.742039  -0.009602  4.619302
H    -5.444639  1.213489  2.377940
H    -5.723030  1.234318  4.108797
H    -6.054100  -1.096872  2.148762
H    -7.275716  -0.319577  3.145239
H    -6.095064  -1.303820  5.087862
H    -6.533829  -2.462273  4.039090
N    -1.984634  -3.383889  2.079653
C    -1.560357  -4.601820  1.386200
H    -2.927599  -3.357168  2.462400
H    -0.703604  -5.056325  1.897999
H    -1.287948  -4.376618  0.348414
H    -2.393706  -5.308758  1.390729
Ba    2.185953  -1.239332  1.480429
