34
Energy: -243347.274539 eV PBE+vdW (tier 2 basis)
C    -0.370327  0.064786  -0.093924
C    -0.396593  -0.062777  1.396237
O    0.627812  -0.474286  2.018393
H    -0.190344  -0.929749  -0.526202
H    0.474762  0.699362  -0.390631
H    -1.293750  0.473383  -0.516940
N    -1.530139  0.267711  2.033222
C    -1.880448  0.102671  3.462271
C    -1.107173  1.080756  4.362247
O    0.116071  0.888297  4.635932
H    -2.289697  0.577646  1.434103
H    -2.942904  0.379796  3.508293
C    -1.774531  -1.346407  3.975548
C    -2.739048  -2.319406  3.290894
C    -2.546514  -3.756865  3.781548
C    -3.584163  -4.738910  3.219302
N    -3.337817  -6.078855  3.742062
H    -1.971858  -1.326865  5.058587
H    -0.745294  -1.723417  3.853345
H    -2.606331  -2.278936  2.197660
H    -3.773816  -1.994575  3.490499
H    -2.600766  -3.799677  4.880420
H    -1.536457  -4.108791  3.506636
H    -3.588852  -4.674399  2.112411
H    -4.584360  -4.423047  3.550841
H    -4.182103  -6.647689  3.720514
H    -2.633593  -6.575278  3.197281
N    -1.787377  2.097773  4.872748
C    -1.252270  3.103399  5.790512
H    -2.764549  2.192048  4.607575
H    -0.293835  2.758267  6.184433
H    -1.958753  3.248806  6.615031
H    -1.113002  4.057068  5.265688
Ba    2.038017  -0.458841  3.975462
