34
Energy: -243347.749457 eV PBE+vdW (tier 2 basis)
C    0.019470  -0.742687  0.794192
C    0.233460  0.362919  1.776863
O    1.391755  0.735826  2.112357
H    0.030437  -0.342451  -0.231741
H    -0.927332  -1.270865  0.949141
H    0.854163  -1.447677  0.874562
N    -0.834979  1.001767  2.321975
C    -2.034951  1.383052  1.594953
C    -1.619715  2.188442  0.325631
O    -0.450396  2.655635  0.201465
H    -0.588703  1.620321  3.092653
H    -2.553248  0.479017  1.240681
C    -3.017593  2.155044  2.530451
C    -2.390353  3.038762  3.623601
C    -1.423099  4.146769  3.142201
C    -0.146056  4.243499  3.983570
N    0.962360  4.894217  3.216677
H    -3.655168  1.409957  3.023722
H    -3.685968  2.758288  1.900111
H    -1.888631  2.396444  4.367031
H    -3.220902  3.483402  4.186565
H    -1.933821  5.119778  3.139324
H    -1.141443  3.972596  2.093083
H    0.208917  3.238447  4.271858
H    -0.344232  4.770155  4.928646
H    0.629269  5.800451  2.870244
H    1.708813  5.143835  3.874488
N    -2.549942  2.331410  -0.608393
C    -2.395366  3.060214  -1.867283
H    -3.457859  1.904661  -0.436194
H    -2.697883  2.416353  -2.700958
H    -1.348889  3.347437  -1.988537
H    -3.025457  3.958322  -1.862856
Ba    1.831005  3.069137  1.235755
