34
Energy: -243348.183562 eV PBE+vdW (tier 2 basis)
C    -2.922065  -0.443119  0.382723
C    -2.495614  0.556668  1.413139
O    -1.482665  0.343336  2.130923
H    -2.090792  -0.615438  -0.313785
H    -3.808285  -0.142327  -0.185483
H    -3.124865  -1.400807  0.881135
N    -3.239973  1.669037  1.544485
C    -3.076865  2.815592  2.465248
C    -1.745897  3.559537  2.199698
O    -0.668829  3.151333  2.711041
H    -4.035270  1.734841  0.916689
H    -3.900432  3.482898  2.179784
C    -3.224805  2.538987  3.979697
C    -4.213910  1.445875  4.422387
C    -3.536655  0.122885  4.818799
C    -2.593319  0.245309  6.033207
N    -1.226074  -0.303049  5.742549
H    -3.501697  3.506533  4.421620
H    -2.232491  2.330436  4.407115
H    -4.959339  1.253651  3.638028
H    -4.788261  1.820449  5.280595
H    -2.971052  -0.278771  3.965367
H    -4.314050  -0.621108  5.034830
H    -3.029163  -0.261642  6.905023
H    -2.459475  1.296384  6.326845
H    -0.711226  -0.340971  6.629603
H    -1.337320  -1.291164  5.487617
N    -1.804289  4.643965  1.433920
C    -0.657676  5.481143  1.081356
H    -2.709314  4.914340  1.059137
H    -0.967040  6.531273  1.089601
H    -0.287428  5.223807  0.080554
H    0.138105  5.327793  1.814634
Ba    0.250031  1.030323  3.721922
