34
Energy: -243348.194485 eV PBE+vdW (tier 2 basis)
C    -3.389236  0.442063  -1.183974
C    -2.934021  0.796898  0.197811
O    -1.945222  0.212747  0.717156
H    -2.548226  0.554722  -1.880287
H    -4.232985  1.042665  -1.539106
H    -3.676312  -0.618466  -1.197241
N    -3.629144  1.751756  0.852451
C    -3.443034  2.209241  2.245742
C    -2.144459  3.037853  2.356362
O    -1.008487  2.488605  2.371849
H    -4.406716  2.162451  0.344644
H    -4.280823  2.894248  2.430685
C    -3.549665  1.024211  3.238172
C    -2.869060  1.184700  4.609066
C    -2.406981  -0.173092  5.180169
C    -1.120754  -0.119493  5.998679
N    0.047893  0.367082  5.182824
H    -3.142881  0.134903  2.739273
H    -4.618124  0.802376  3.361982
H    -3.540138  1.681211  5.322019
H    -2.000692  1.852667  4.514469
H    -2.263734  -0.897311  4.353957
H    -3.197999  -0.622022  5.796634
H    -0.879200  -1.127976  6.355922
H    -1.251235  0.509876  6.890835
H    0.154422  1.373033  5.346183
H    0.896594  -0.031355  5.595007
N    -2.293547  4.357194  2.431750
C    -1.202764  5.327003  2.509811
H    -3.239473  4.728869  2.418005
H    -1.356690  5.983980  3.373507
H    -1.176920  5.936074  1.597712
H    -0.256775  4.791794  2.616387
Ba    -0.029615  0.195494  2.312547
