34
Energy: -243348.203188 eV PBE+vdW (tier 2 basis)
C    1.177450  -0.521910  1.244543
C    0.532078  -0.099788  2.528571
O    1.225105  0.108342  3.560444
H    0.470023  -0.667211  0.421639
H    1.729134  -1.456483  1.411597
H    1.916270  0.236603  0.952558
N    -0.806953  0.054462  2.530861
C    -1.662617  0.468149  3.660465
C    -1.054700  1.671808  4.407797
O    -0.475777  1.528165  5.522374
H    -1.287283  -0.158077  1.661294
H    -2.576195  0.846431  3.182020
C    -2.099541  -0.668747  4.616560
C    -1.120564  -1.827993  4.862086
C    -1.414239  -2.609673  6.149729
C    -1.035987  -1.906704  7.451953
N    0.451891  -1.739756  7.594697
H    -3.029343  -1.098085  4.219078
H    -2.378376  -0.188052  5.564705
H    -0.073833  -1.483091  4.867975
H    -1.156810  -2.518854  4.008460
H    -0.904931  -3.585549  6.109046
H    -2.487352  -2.847795  6.195380
H    -1.433840  -2.484206  8.298206
H    -1.487749  -0.905212  7.513228
H    0.639196  -1.526693  8.580810
H    0.879210  -2.664310  7.465977
N    -1.195669  2.881670  3.871595
C    -1.874400  3.254196  2.626711
H    -0.818949  3.640515  4.437785
H    -1.435317  2.739651  1.764324
H    -1.746111  4.330205  2.481400
H    -2.950986  3.045828  2.680764
Ba    1.605877  0.287732  6.029416
