34
Energy: -243347.44805 eV PBE+vdW (tier 2 basis)
C    -0.549869  -0.204238  0.197453
C    -0.190025  0.289986  1.572838
O    1.026027  0.182651  1.968701
H    -0.586049  0.634415  -0.515289
H    -1.528771  -0.699332  0.165451
H    0.222948  -0.897454  -0.147650
N    -1.039667  0.898211  2.424934
C    -2.301817  1.459002  1.937309
C    -2.047201  2.918914  1.505967
O    -0.973705  3.498738  1.851402
H    -1.156581  -0.315342  3.683180
H    -2.674778  0.913101  1.053858
C    -3.381900  1.379120  3.037097
C    -3.858076  -0.074596  3.270157
C    -3.786338  -0.593130  4.715108
C    -2.418169  -0.513253  5.387380
N    -1.322703  -1.029906  4.479219
H    -4.239129  2.010097  2.775085
H    -2.961123  1.823847  3.951878
H    -3.292988  -0.752513  2.608733
H    -4.898808  -0.177750  2.938230
H    -4.137490  -1.636064  4.733185
H    -4.483361  -0.036179  5.358150
H    -2.397238  -1.099728  6.312848
H    -2.133394  0.517467  5.633277
H    -0.443628  -1.170693  4.989168
H    -1.577356  -1.935989  4.066345
N    -2.942862  3.574400  0.772312
C    -4.220645  3.111849  0.233258
H    -2.690162  4.543503  0.579352
H    -4.229146  2.023308  0.125414
H    -4.363112  3.554766  -0.758106
H    -5.055442  3.419568  0.876675
Ba    1.126851  2.542518  2.792666
