34
Energy: -243346.712446 eV PBE+vdW (tier 2 basis)
C    -0.280532  2.762670  0.050746
C    -0.109526  1.645036  1.028064
O    0.974880  1.504221  1.675768
H    0.700933  3.011935  -0.367550
H    -0.656542  3.664179  0.560257
H    -0.974229  2.512820  -0.759078
N    -1.119110  0.777535  1.252093
C    -2.518851  1.175571  1.366536
C    -2.653064  2.031217  2.659985
O    -1.657963  2.203730  3.435606
H    -0.860759  -0.034663  1.813975
H    -2.775382  1.815418  0.507981
C    -3.434092  -0.062004  1.366506
C    -3.375375  -0.854725  0.054064
C    -4.202657  -2.145842  0.094710
C    -5.720156  -1.939896  0.163260
N    -6.387802  -3.232687  0.260605
H    -4.465607  0.264772  1.559931
H    -3.163654  -0.708441  2.220046
H    -2.328827  -1.108951  -0.174126
H    -3.720760  -0.209824  -0.771514
H    -3.893700  -2.773496  0.945521
H    -3.965974  -2.727634  -0.809070
H    -6.035673  -1.315718  -0.699714
H    -5.987153  -1.373635  1.071150
H    -7.385781  -3.124046  0.435850
H    -6.297591  -3.763386  -0.606460
N    -3.830235  2.571382  2.921165
C    -4.131252  3.387510  4.100721
H    -4.589108  2.393495  2.268023
H    -5.171716  3.715673  4.036422
H    -3.479972  4.268787  4.131899
H    -3.996705  2.800334  5.016919
Ba    0.734531  2.038944  4.065238
