34
Energy: -243347.153887 eV PBE+vdW (tier 2 basis)
C    -0.502077  1.483970  0.391635
C    -0.429188  1.080519  1.827421
O    0.599992  1.343050  2.526906
H    0.344670  1.047915  -0.154775
H    -0.397764  2.575965  0.325843
H    -1.437067  1.185501  -0.093232
N    -1.472721  0.442685  2.369497
C    -1.602696  0.136001  3.797772
C    -0.648212  -1.009193  4.202919
O    0.438775  -0.688240  4.788462
H    -2.312859  0.321508  1.804707
H    -1.182053  0.996993  4.336096
C    -3.093593  -0.015800  4.238015
C    -4.145976  -0.087701  3.127937
C    -5.577232  -0.149435  3.677294
C    -6.618997  0.034632  2.565412
N    -6.417708  1.317224  1.877336
H    -3.323265  0.853904  4.867417
H    -3.179223  -0.885001  4.905312
H    -3.989382  -0.960777  2.471178
H    -4.115864  0.812998  2.489307
H    -5.709917  0.644902  4.430434
H    -5.756649  -1.102892  4.196873
H    -7.624702  -0.087011  3.002865
H    -6.505344  -0.768721  1.821619
H    -6.820762  2.081471  2.421630
H    -6.907644  1.323264  0.983365
N    -0.903102  -2.288472  3.968478
C    -2.038274  -2.914930  3.288379
H    -0.193345  -2.921284  4.337492
H    -1.720334  -3.904260  2.946460
H    -2.340703  -2.332191  2.414272
H    -2.892196  -3.035985  3.966260
Ba    2.144442  1.006100  4.361924
