34
Energy: -243346.096191 eV PBE+vdW (tier 2 basis)
C    -0.041542  1.580042  0.716363
C    -0.246380  0.639691  1.855622
O    0.716871  0.504162  2.735357
H    0.573159  1.089236  -0.053158
H    0.501852  2.467783  1.058846
H    -0.982417  1.887561  0.250086
N    -1.332294  -0.061833  2.017478
C    -2.581831  -0.114390  1.251153
C    -3.519362  -0.850959  2.257702
O    -3.019635  -1.318504  3.295582
H    -1.485671  -0.672124  2.863949
H    -2.958736  0.909399  1.102228
C    -2.433914  -0.814263  -0.119591
C    -1.910498  -2.255134  -0.116826
C    -2.908946  -3.343472  0.299553
C    -2.432065  -4.748221  -0.100380
N    -2.266817  -4.850893  -1.549878
H    -1.779415  -0.184068  -0.740257
H    -3.415602  -0.773744  -0.617246
H    -1.000569  -2.327487  0.504283
H    -1.589990  -2.491715  -1.142051
H    -3.880212  -3.150634  -0.187899
H    -3.096659  -3.337143  1.383182
H    -3.131636  -5.491794  0.323392
H    -1.453245  -4.945728  0.363741
H    -1.700797  -5.656494  -1.809836
H    -3.164179  -4.949981  -2.024711
N    -4.811926  -0.924228  1.933817
C    -5.802189  -1.639198  2.735549
H    -5.112428  -0.535359  1.045999
H    -6.750777  -1.093404  2.712025
H    -5.442546  -1.704117  3.765919
H    -5.958303  -2.654296  2.346259
Ba    2.339132  0.306050  4.316849
