34
Energy: -243348.318714 eV PBE+vdW (tier 2 basis)
C    -1.131576  -0.266537  -0.361426
C    -1.165742  -0.859791  1.013460
O    -0.120563  -0.900761  1.718184
H    -0.758272  0.764001  -0.300626
H    -2.102275  -0.267242  -0.867882
H    -0.411857  -0.832160  -0.969105
N    -2.346428  -1.344431  1.448321
C    -2.639880  -2.068600  2.703507
C    -2.628356  -1.098101  3.899965
O    -1.555602  -0.582584  4.317264
H    -3.122707  -1.255362  0.799543
H    -3.672970  -2.422221  2.580701
C    -1.755655  -3.326306  2.868250
C    -1.955294  -4.130474  4.168465
C    -1.135357  -3.717136  5.405971
C    0.332754  -4.148963  5.445195
N    1.223179  -3.491666  4.424459
H    -0.705019  -3.052840  2.722398
H    -2.003033  -3.965344  2.009059
H    -1.734633  -5.185071  3.945660
H    -3.023377  -4.122825  4.435544
H    -1.600371  -4.191935  6.282595
H    -1.220397  -2.636196  5.599138
H    0.399427  -5.243560  5.349020
H    0.744825  -3.895933  6.431021
H    1.091386  -3.971945  3.528244
H    2.188383  -3.730835  4.676125
N    -3.802927  -0.846483  4.470078
C    -4.013088  0.044740  5.609686
H    -4.627353  -1.288581  4.072802
H    -3.043739  0.324288  6.028079
H    -4.610646  -0.470371  6.370160
H    -4.545645  0.948483  5.287705
Ba    0.902810  -0.725261  3.958439
