34
Energy: -243346.042012 eV PBE+vdW (tier 2 basis)
C    -0.361731  -0.089747  -0.282113
C    -0.113905  0.376454  1.112570
O    1.126108  0.508573  1.514389
H    0.232364  0.513622  -0.980381
H    -1.415182  -0.037524  -0.569459
H    -0.025965  -1.131922  -0.381476
N    -1.069689  0.659952  1.953325
C    -2.531883  0.617184  1.824161
C    -2.958785  1.553859  2.994037
O    -2.146748  1.739535  3.914580
H    -0.870019  1.021523  2.918493
H    -2.837887  1.044259  0.858211
C    -3.046572  -0.836385  1.963338
C    -4.571513  -1.024218  1.863558
C    -5.306703  -1.119850  3.205495
C    -6.797063  -1.446474  3.036596
N    -6.977799  -2.735146  2.370871
H    -2.676955  -1.239290  2.918927
H    -2.552914  -1.418415  1.170846
H    -4.774274  -1.955009  1.316550
H    -5.018719  -0.232399  1.235963
H    -5.210103  -0.194994  3.793478
H    -4.835586  -1.911924  3.811472
H    -7.273294  -0.676275  2.410324
H    -7.286144  -1.388321  4.026497
H    -6.826310  -3.518028  3.006304
H    -7.910267  -2.836323  1.975113
N    -4.174150  2.105223  2.918276
C    -4.750713  2.939191  3.969508
H    -4.761272  1.864504  2.126108
H    -5.208634  3.829385  3.524766
H    -3.952550  3.239763  4.653094
H    -5.513736  2.383868  4.531154
Ba    3.270379  0.779225  2.238835
