34
Energy: -243347.294175 eV PBE+vdW (tier 2 basis)
C    1.199178  2.025712  1.367130
C    0.304544  1.104042  2.133657
O    0.588594  -0.126222  2.229420
H    0.871943  3.070340  1.381989
H    1.246311  1.681844  0.324360
H    2.217841  1.960698  1.771469
N    -0.793138  1.626031  2.704831
C    -1.895877  0.926971  3.403954
C    -1.414763  0.335598  4.740209
O    -0.818273  -0.784574  4.773391
H    -0.932121  2.621239  2.554728
H    -2.615263  1.721252  3.632340
C    -2.630777  -0.106981  2.532352
C    -3.845646  -0.752351  3.207188
C    -4.979706  0.213306  3.571490
C    -6.302304  -0.533911  3.822224
N    -6.696021  -1.283523  2.628442
H    -1.930064  -0.884649  2.183247
H    -2.947223  0.416180  1.617366
H    -3.537022  -1.319983  4.101723
H    -4.273236  -1.486113  2.506579
H    -5.132846  0.930980  2.747064
H    -4.741902  0.809620  4.468141
H    -7.057229  0.192399  4.170334
H    -6.159840  -1.251740  4.644170
H    -7.340929  -2.036158  2.863314
H    -7.182341  -0.684517  1.960926
N    -1.643969  0.997257  5.866304
C    -2.295620  2.299329  6.050676
H    -1.312272  0.525120  6.707391
H    -1.753046  3.094169  5.525258
H    -2.283544  2.531244  7.119081
H    -3.341088  2.271555  5.719931
Ba    0.437955  -2.278470  3.319071
