34
Energy: -243346.338281 eV PBE+vdW (tier 2 basis)
C    -1.067095  -0.005929  -0.571805
C    -0.703414  0.628716  0.722741
O    0.476750  1.201295  0.841610
H    -1.019608  0.752655  -1.366381
H    -2.071333  -0.459793  -0.562422
H    -0.323011  -0.776541  -0.818478
N    -1.497403  0.658517  1.754246
C    -2.852380  0.133425  1.956610
C    -3.299272  0.948904  3.206363
O    -2.419319  1.508472  3.883413
H    -1.243775  1.160126  2.643385
H    -3.477102  0.355352  1.080675
C    -2.807407  -1.393373  2.201932
C    -4.155264  -2.084650  2.450613
C    -5.236854  -1.964141  1.364231
C    -4.858281  -2.478147  -0.029768
N    -4.126596  -1.461182  -0.825461
H    -2.145147  -1.581767  3.060426
H    -2.327651  -1.841182  1.319929
H    -4.569754  -1.755134  3.415004
H    -3.931986  -3.153011  2.592636
H    -5.601726  -0.924648  1.261219
H    -6.109628  -2.532697  1.715173
H    -5.770992  -2.820586  -0.543712
H    -4.207929  -3.360319  0.067437
H    -3.811524  -1.898178  -1.694978
H    -4.793857  -0.747177  -1.129990
N    -4.608003  0.988079  3.474596
C    -5.178762  1.658237  4.640611
H    -5.240872  0.499885  2.848993
H    -5.950953  2.368659  4.323586
H    -4.379491  2.194917  5.157724
H    -5.623202  0.924932  5.325082
Ba    2.479657  2.216302  1.087790
