34
Energy: -243348.322926 eV PBE+vdW (tier 2 basis)
C    0.683812  0.629947  0.321875
C    0.245145  0.051488  1.632410
O    1.096852  -0.369614  2.462190
H    -0.141058  0.994812  -0.298836
H    1.232110  -0.143218  -0.234189
H    1.387489  1.452058  0.504954
N    -1.080787  -0.000643  1.870933
C    -1.789275  -0.637943  3.000955
C    -1.633379  0.198830  4.285329
O    -0.518965  0.331078  4.861415
H    -1.672993  0.370771  1.134209
H    -2.849659  -0.593015  2.717092
C    -1.422578  -2.135689  3.130170
C    -1.990540  -2.886479  4.348791
C    -1.088345  -2.880277  5.595512
C    0.240295  -3.628535  5.398206
N    1.365186  -2.943249  6.110136
H    -0.331271  -2.246011  3.085431
H    -1.789177  -2.603068  2.206274
H    -2.169691  -3.928992  4.050043
H    -2.983169  -2.494273  4.616502
H    -1.636185  -3.328691  6.435352
H    -0.885958  -1.843056  5.905709
H    0.516207  -3.671481  4.333208
H    0.140653  -4.672771  5.726665
H    1.118909  -2.864909  7.102767
H    2.178602  -3.568013  6.109078
N    -2.742620  0.759957  4.758532
C    -2.823349  1.587780  5.960380
H    -3.602726  0.624862  4.234257
H    -1.880954  1.516321  6.507727
H    -3.646358  1.234644  6.591761
H    -3.006943  2.634202  5.685796
Ba    1.836906  -0.472260  4.819711
