34
Energy: -243345.779387 eV PBE+vdW (tier 2 basis)
C    0.485539  0.072286  0.806821
C    0.018292  0.199345  2.215863
O    0.910705  0.034752  3.154735
H    -0.314963  0.125099  0.071450
H    1.002779  -0.885605  0.681875
H    1.201944  0.885945  0.613045
N    -1.184754  0.611776  2.589973
C    -2.458076  0.428981  1.872641
C    -2.583489  -1.112509  1.624466
O    -1.566488  -1.811624  1.584019
H    -1.278996  0.723659  3.597969
H    -3.223475  0.738147  2.598344
C    -2.633524  1.328895  0.626622
C    -4.088666  1.462480  0.128589
C    -4.430901  0.625646  -1.109915
C    -5.850882  0.891763  -1.629515
N    -6.011176  2.289995  -2.020869
H    -2.008825  0.974586  -0.203377
H    -2.246260  2.317157  0.911169
H    -4.279786  2.513290  -0.125891
H    -4.798793  1.244951  0.946974
H    -4.317765  -0.452925  -0.919274
H    -3.710138  0.865991  -1.909595
H    -6.579624  0.681695  -0.831355
H    -6.068455  0.177026  -2.444791
H    -5.587564  2.487051  -2.926989
H    -6.988894  2.568971  -2.068617
N    -3.838013  -1.569420  1.485781
C    -4.161757  -2.952255  1.148954
H    -4.600592  -0.901097  1.525265
H    -4.968624  -3.312588  1.796680
H    -3.269625  -3.565512  1.300254
H    -4.478991  -3.034506  0.100635
Ba    2.642692  -0.825250  4.375413
