34
Energy: -243347.310544 eV PBE+vdW (tier 2 basis)
C    -0.232711  0.618055  -0.552630
C    -0.580726  1.500938  0.601677
O    -0.099871  2.673254  0.688903
H    -0.591850  1.095592  -1.475635
H    -0.667269  -0.384305  -0.480427
H    0.858034  0.534624  -0.639877
N    -1.420766  1.032454  1.532997
C    -2.018313  1.807405  2.634219
C    -1.008401  1.938342  3.795890
O    -0.089471  2.813808  3.718165
H    -1.783603  0.091551  1.396720
H    -2.159932  2.834272  2.261171
C    -3.389469  1.226437  3.002342
C    -4.440578  1.364404  1.891972
C    -5.806258  0.823246  2.323855
C    -6.884750  0.974231  1.244460
N    -8.170820  0.517730  1.759083
H    -3.750566  1.750277  3.900280
H    -3.289416  0.159959  3.277584
H    -4.109212  0.842706  0.978539
H    -4.533733  2.429266  1.619701
H    -6.153684  1.343266  3.229706
H    -5.712919  -0.241939  2.595512
H    -6.549195  0.460922  0.319105
H    -6.986496  2.039984  0.987917
H    -8.940688  0.848769  1.180076
H    -8.230779  -0.500301  1.776769
N    -1.133231  1.136010  4.838098
C    -0.272262  1.123770  6.020145
H    -1.915543  0.484707  4.827804
H    -0.889726  1.228669  6.919724
H    0.434026  1.954290  5.960902
H    0.275551  0.174676  6.071906
Ba    0.989627  4.298930  2.106343
