34
Energy: -243346.70194 eV PBE+vdW (tier 2 basis)
C    -0.447209  1.558591  -1.717010
C    0.045674  0.471294  -0.817535
O    1.032775  -0.254788  -1.154346
H    0.098941  2.495235  -1.521988
H    -1.517852  1.755500  -1.596510
H    -0.240132  1.271596  -2.753863
N    -0.541061  0.256505  0.379094
C    -0.979303  1.325739  1.267559
C    0.300511  2.030339  1.816924
O    1.459200  1.659773  1.442593
H    -0.237973  -0.593843  0.855247
H    -1.529646  2.069334  0.672024
C    -1.901078  0.787881  2.377946
C    -1.247824  -0.225259  3.326989
C    -2.187015  -0.695105  4.447915
C    -2.532961  0.382967  5.483318
N    -3.418311  -0.173868  6.493847
H    -2.779278  0.343555  1.887241
H    -2.293243  1.642795  2.948085
H    -0.336130  0.210495  3.774936
H    -0.926948  -1.119233  2.763778
H    -1.709493  -1.540191  4.966345
H    -3.120951  -1.091116  4.021763
H    -3.078058  1.210870  5.001849
H    -1.585891  0.816878  5.877616
H    -2.934830  -0.830137  7.106577
H    -3.826545  0.548671  7.083908
N    0.123067  3.029067  2.663197
C    1.185128  3.817592  3.289395
H    -0.832904  3.242191  2.939043
H    0.822289  4.838737  3.441576
H    2.061351  3.837929  2.636567
H    1.460537  3.386955  4.260943
Ba    3.040755  0.230781  0.178650
