34
Energy: -243346.780746 eV PBE+vdW (tier 2 basis)
C    0.544735  2.268417  1.177879
C    0.203667  1.876328  2.579612
O    1.001589  2.123066  3.539280
H    0.178904  3.285184  0.962653
H    0.113431  1.588772  0.434829
H    1.635029  2.284989  1.074939
N    -0.972730  1.275390  2.848244
C    -2.236812  1.643258  2.220261
C    -2.555286  3.106200  2.647918
O    -1.846017  3.701657  3.521870
H    -1.055302  0.890172  3.789389
H    -2.112845  1.626974  1.126364
C    -3.360858  0.660872  2.612585
C    -3.241139  -0.749344  2.024762
C    -2.126751  -1.649013  2.571246
C    -2.387253  -3.128639  2.225795
N    -3.646983  -3.579421  2.816210
H    -4.315493  1.098333  2.285338
H    -3.421533  0.617902  3.714689
H    -3.166949  -0.682279  0.926631
H    -4.189875  -1.266612  2.237421
H    -2.080003  -1.557934  3.672189
H    -1.136701  -1.365922  2.181880
H    -1.509730  -3.723969  2.531877
H    -2.462765  -3.228732  1.132934
H    -4.063774  -4.335951  2.277591
H    -3.512950  -3.931193  3.763408
N    -3.584427  3.704640  2.074336
C    -4.038215  5.063750  2.382125
H    -4.115880  3.178045  1.385434
H    -4.884934  5.299791  1.732726
H    -3.234297  5.785788  2.197623
H    -4.358714  5.132956  3.428457
Ba    0.138644  3.910294  4.990363
