34
Energy: -243347.863232 eV PBE+vdW (tier 2 basis)
C    -1.149938  -1.118725  0.190836
C    -0.849742  -0.814761  1.626048
O    0.306139  -0.359550  1.934944
H    -1.061129  -0.197846  -0.401310
H    -2.150042  -1.537325  0.045543
H    -0.397610  -1.819858  -0.193961
N    -1.810119  -1.025497  2.515585
C    -1.722138  -0.984138  3.983699
C    -1.380460  0.398600  4.555344
O    -0.194054  0.842381  4.589304
H    -2.661583  -1.633257  2.231940
H    -2.754098  -1.200713  4.298291
C    -0.839087  -2.100722  4.571547
C    -1.128616  -3.497927  3.999024
C    -2.579256  -4.027374  4.133004
C    -3.379963  -4.140803  2.830557
N    -3.856584  -2.831821  2.293313
H    -0.985831  -2.098767  5.662655
H    0.224953  -1.867102  4.405958
H    -0.448673  -4.188679  4.514539
H    -0.823514  -3.531018  2.941826
H    -3.151234  -3.443170  4.874049
H    -2.538369  -5.039423  4.556769
H    -4.229833  -4.820407  2.992392
H    -2.751460  -4.601915  2.055746
H    -4.242460  -2.981062  1.357405
H    -4.655779  -2.515863  2.849907
N    -2.385834  1.102489  5.060875
C    -2.249531  2.418007  5.685884
H    -3.319254  0.706871  4.998780
H    -3.091558  2.571303  6.366772
H    -2.254598  3.211189  4.926904
H    -1.313372  2.461148  6.250650
Ba    1.882632  0.748739  3.314183
