34
Energy: -243346.599575 eV PBE+vdW (tier 2 basis)
C    0.012304  -0.715578  0.249561
C    -0.085358  -0.209421  1.651536
O    0.963628  0.127289  2.287213
H    1.022894  -0.530716  -0.125413
H    -0.720977  -0.229426  -0.406169
H    -0.181741  -1.798531  0.208107
N    -1.277032  -0.098195  2.283703
C    -2.361315  -1.090968  2.256325
C    -1.790024  -2.418247  2.835653
O    -0.628424  -2.456032  3.357517
H    -1.208556  0.420948  3.157495
H    -3.087779  -0.723659  2.999159
C    -3.117564  -1.235771  0.921748
C    -3.636636  0.100095  0.372745
C    -4.323668  -0.043072  -0.990588
C    -3.366858  -0.326243  -2.154953
N    -4.119198  -0.505663  -3.387607
H    -3.988578  -1.887580  1.097138
H    -2.497598  -1.758930  0.182048
H    -2.807308  0.821782  0.294236
H    -4.342155  0.531975  1.099217
H    -4.865484  0.891469  -1.199750
H    -5.089008  -0.833734  -0.959953
H    -2.816543  -1.266290  -1.977053
H    -2.603334  0.484292  -2.188892
H    -3.522488  -0.804835  -4.157138
H    -4.574167  0.359653  -3.679622
N    -2.558205  -3.491831  2.797766
C    -2.196266  -4.796903  3.357105
H    -3.467109  -3.405316  2.350254
H    -3.034186  -5.481524  3.203860
H    -1.996613  -4.709870  4.431560
H    -1.309769  -5.197947  2.851691
Ba    1.566444  -1.514833  4.013072
