34
Energy: -243346.081289 eV PBE+vdW (tier 2 basis)
C    -0.293790  -0.302941  -0.499197
C    0.063924  -0.062352  0.927794
O    1.282060  -0.356500  1.325828
H    0.545288  -0.026057  -1.147544
H    -1.188068  0.247286  -0.806230
H    -0.488581  -1.375956  -0.646378
N    -0.769473  0.413454  1.805263
C    -2.169771  0.845689  1.696993
C    -2.324140  1.651660  3.019121
O    -1.449302  1.501864  3.895507
H    -0.493851  0.607980  2.807382
H    -2.276341  1.528109  0.840963
C    -3.156051  -0.335097  1.531576
C    -3.022644  -1.487336  2.543700
C    -3.739404  -1.333472  3.895799
C    -5.271954  -1.350376  3.823823
N    -5.830390  -0.053108  3.385513
H    -3.017579  -0.725464  0.512419
H    -4.176559  0.068803  1.573229
H    -1.956481  -1.707112  2.723664
H    -3.419777  -2.389891  2.054490
H    -3.405556  -0.428431  4.426992
H    -3.424995  -2.175640  4.530264
H    -5.668584  -1.668625  4.802751
H    -5.592577  -2.114293  3.099721
H    -6.804349  -0.179624  3.105174
H    -5.864899  0.581630  4.186109
N    -3.360646  2.482891  3.151424
C    -4.422506  2.772774  2.188485
H    -3.394949  2.956620  4.051104
H    -4.897766  3.713705  2.480800
H    -5.173618  1.970315  2.184795
H    -4.014378  2.909568  1.179534
Ba    3.372012  -0.776027  2.092435
