34
Energy: -243347.136101 eV PBE+vdW (tier 2 basis)
C    -0.564107  1.148675  0.054577
C    -1.018685  0.717998  1.409742
O    -0.534811  1.284201  2.465928
H    -0.753292  2.222756  -0.074589
H    -1.063243  0.599149  -0.749595
H    0.520471  0.994274  -0.029300
N    -1.910351  -0.241329  1.519154
C    -2.456667  -0.798211  2.754522
C    -3.138907  -2.109165  2.260431
O    -3.534770  -2.120027  1.092210
H    -2.347775  -0.695033  0.696647
H    -1.625897  -0.991007  3.447676
C    -3.496819  0.176960  3.370359
C    -3.832758  -0.053970  4.849519
C    -2.712309  0.273036  5.860872
C    -2.756603  1.674279  6.473633
N    -2.485146  2.774589  5.487013
H    -4.413650  0.110887  2.767931
H    -3.115577  1.198926  3.216331
H    -4.155828  -1.092647  4.989487
H    -4.723083  0.544355  5.097744
H    -1.718464  0.071150  5.409571
H    -2.769597  -0.427572  6.705787
H    -2.002737  1.758852  7.271171
H    -3.733648  1.828068  6.956278
H    -3.227731  2.768519  4.779929
H    -2.621165  3.668389  5.972480
N    -3.312677  -3.145833  3.102477
C    -2.759227  -3.393528  4.426771
H    -3.815435  -3.919030  2.667893
H    -3.553313  -3.465434  5.182244
H    -2.070078  -2.595059  4.717422
H    -2.197549  -4.336171  4.425227
Ba    0.031171  2.471935  4.397299
