34
Energy: -243347.292179 eV PBE+vdW (tier 2 basis)
C    0.224964  0.631105  0.217099
C    0.019679  0.573508  1.696065
O    0.868149  1.088346  2.488868
H    0.234628  1.686458  -0.091319
H    -0.548372  0.103470  -0.350628
H    1.208271  0.215339  -0.037047
N    -1.084643  -0.020734  2.164607
C    -1.546544  -0.021019  3.563962
C    -0.778547  -1.092888  4.368702
O    0.390146  -0.825993  4.792598
H    -1.731561  -0.402103  1.477697
H    -1.239173  0.941940  4.001970
C    -3.076083  -0.118029  3.610573
C    -3.786035  1.117562  3.032769
C    -5.311345  0.964570  2.975612
C    -6.008306  0.918577  4.340241
N    -7.437445  0.698940  4.154004
H    -3.374955  -0.256414  4.659427
H    -3.416638  -1.016660  3.062705
H    -3.414719  1.321715  2.016067
H    -3.517604  1.998690  3.639328
H    -5.584651  0.059677  2.410128
H    -5.716379  1.811169  2.400820
H    -5.746573  1.837984  4.906458
H    -5.629011  0.070609  4.934266
H    -7.908003  0.531939  5.042251
H    -7.887365  1.510706  3.729715
N    -1.362178  -2.257259  4.590668
C    -0.784339  -3.380972  5.326779
H    -2.309755  -2.372966  4.236832
H    -1.470683  -3.682403  6.126537
H    0.171077  -3.076428  5.758737
H    -0.630879  -4.230215  4.649443
Ba    2.201977  0.783979  4.479592
