34
Energy: -243346.899253 eV PBE+vdW (tier 2 basis)
C    0.619604  3.722139  2.675282
C    0.292995  2.742360  3.761262
O    0.420388  3.077310  4.980537
H    -0.129244  4.527679  2.709253
H    0.613914  3.284972  1.671306
H    1.594096  4.188586  2.863606
N    -0.126734  1.527897  3.387821
C    -0.803289  0.450363  4.130176
C    -0.138872  0.022023  5.438648
O    1.040753  0.368531  5.765770
H    -0.162695  1.383795  2.381235
H    -1.813609  0.812302  4.386573
C    -0.941138  -0.757017  3.163336
C    0.369005  -1.468332  2.813759
C    0.136261  -2.650824  1.868590
C    1.426222  -3.388780  1.492723
N    1.111418  -4.570254  0.698915
H    -1.441024  -0.384122  2.254029
H    -1.649052  -1.474607  3.595691
H    0.852639  -1.831963  3.736712
H    1.084266  -0.763404  2.356589
H    -0.361023  -2.297052  0.949900
H    -0.551612  -3.376383  2.329410
H    1.925179  -3.729944  2.413487
H    2.123626  -2.675104  1.005193
H    0.845997  -4.325290  -0.255058
H    1.910986  -5.197861  0.631902
N    -0.831776  -0.764371  6.261085
C    -2.198540  -1.284659  6.159579
H    -0.290751  -1.095681  7.058789
H    -2.840423  -0.602939  5.593841
H    -2.604358  -1.375918  7.172370
H    -2.208377  -2.275027  5.687130
Ba    2.013728  2.407102  6.671064
