34
Energy: -243347.314272 eV PBE+vdW (tier 2 basis)
C    -3.130325  1.681675  0.719652
C    -1.764977  1.215991  1.133136
O    -0.737466  1.584104  0.539037
H    -3.120832  2.773325  0.619161
H    -3.930361  1.381970  1.405197
H    -3.346508  1.271033  -0.276555
N    -1.701922  0.370773  2.210231
C    -0.551811  -0.436653  2.631202
C    0.682863  0.345247  3.086788
O    1.374489  -0.144155  4.063375
H    -2.582077  0.139886  2.658125
H    -0.892483  -0.960662  3.533591
C    -0.151450  -1.491071  1.558250
C    0.857456  -2.560374  2.001050
C    0.324324  -3.559620  3.039355
C    1.341518  -4.619262  3.486337
N    2.002579  -4.259102  4.791247
H    0.230508  -0.963738  0.674443
H    -1.081620  -1.987975  1.245506
H    1.798042  -2.079032  2.337582
H    1.154672  -3.125434  1.105278
H    -0.544640  -4.070776  2.601670
H    -0.075415  -3.045593  3.932674
H    2.135559  -4.731303  2.735752
H    0.858346  -5.600484  3.582462
H    1.335021  -4.491771  5.536507
H    2.766069  -4.927979  4.945319
N    1.038278  1.424839  2.442182
C    2.195674  2.249849  2.759543
H    0.428957  1.635991  1.589121
H    2.339918  2.310947  3.843921
H    2.022849  3.255404  2.364789
H    3.104136  1.847940  2.288696
Ba    2.797091  -1.630380  5.182583
