34
Energy: -243347.133333 eV PBE+vdW (tier 2 basis)
C    0.511146  1.353141  1.110559
C    0.031527  0.307463  2.070140
O    0.574090  -0.832827  2.078931
H    -0.026773  2.303819  1.184128
H    0.411317  0.963602  0.088243
H    1.581066  1.532707  1.280792
N    -0.976991  0.646725  2.892069
C    -1.752362  -0.108469  3.906823
C    -0.897698  -0.632602  5.068829
O    0.023393  -1.485472  4.892499
H    -1.310073  1.597543  2.761511
H    -2.402418  0.667384  4.325944
C    -2.732452  -1.175398  3.353085
C    -2.199739  -2.489286  2.765858
C    -3.293208  -3.407073  2.196643
C    -4.289638  -3.950615  3.228816
N    -5.029494  -5.065720  2.648892
H    -3.338663  -0.667446  2.587678
H    -3.427250  -1.405046  4.175122
H    -1.679607  -3.056093  3.567144
H    -1.490146  -2.261158  1.952515
H    -2.818574  -4.274466  1.714023
H    -3.830348  -2.873207  1.396135
H    -4.928509  -3.128336  3.611704
H    -3.731153  -4.341080  4.096822
H    -5.584178  -5.548413  3.354899
H    -5.682778  -4.749352  1.931208
N    -1.178479  -0.215451  6.298986
C    -2.189916  0.750235  6.746474
H    -0.604536  -0.645990  7.023803
H    -2.020779  1.739279  6.303913
H    -2.099986  0.848109  7.831788
H    -3.204821  0.401119  6.520302
Ba    1.169224  -2.866694  3.233968
