34
Energy: -243346.037853 eV PBE+vdW (tier 2 basis)
C    0.294386  -0.406555  0.295506
C    0.416980  0.506040  1.468383
O    1.276789  1.494074  1.401837
H    0.163303  0.186942  -0.618398
H    -0.536170  -1.111302  0.387738
H    1.225470  -0.980443  0.183246
N    -0.286963  0.372193  2.557198
C    -1.318695  -0.599624  2.939991
C    -2.025265  0.164271  4.101118
O    -1.401791  1.087329  4.651311
H    -0.213424  1.050551  3.356995
H    -2.014632  -0.758465  2.103461
C    -0.680806  -1.940677  3.375565
C    -1.682166  -3.053636  3.742423
C    -1.930222  -3.249484  5.246475
C    -0.769217  -3.951106  5.967134
N    -0.486429  -5.250207  5.360134
H    0.002027  -1.740256  4.215448
H    -0.047645  -2.276729  2.541526
H    -1.287829  -4.005450  3.359609
H    -2.633897  -2.897876  3.207656
H    -2.839194  -3.858168  5.374208
H    -2.130816  -2.294910  5.756227
H    -1.011535  -4.001216  7.044864
H    0.146731  -3.342995  5.891501
H    -1.225312  -5.925939  5.557379
H    0.384165  -5.648066  5.708250
N    -3.262135  -0.224826  4.422268
C    -4.019653  0.328687  5.541654
H    -3.662613  -1.011447  3.921192
H    -3.536601  1.253580  5.867017
H    -4.043125  -0.379558  6.380572
H    -5.045656  0.542089  5.222687
Ba    2.722013  3.248800  1.301124
