34
Energy: -243346.872416 eV PBE+vdW (tier 2 basis)
C    0.117598  2.706216  0.802818
C    0.292272  1.341252  1.386808
O    1.369611  1.018012  1.979743
H    -0.304947  3.393774  1.552870
H    -0.542022  2.708438  -0.071599
H    1.103049  3.094182  0.523203
N    -0.708282  0.440068  1.317022
C    -2.116344  0.774160  1.496541
C    -2.299477  1.274347  2.957906
O    -1.342702  1.196175  3.795356
H    -0.450301  -0.511638  1.580445
H    -2.378439  1.595617  0.812030
C    -2.998438  -0.450523  1.178270
C    -2.812157  -0.959879  -0.251240
C    -3.671214  -2.187458  -0.570195
C    -3.197465  -2.885598  -1.852760
N    -1.825689  -3.388015  -1.685993
H    -4.050830  -0.178707  1.351671
H    -2.773545  -1.250507  1.905486
H    -1.762481  -1.247521  -0.424697
H    -3.040136  -0.148428  -0.962230
H    -4.731005  -1.908052  -0.668499
H    -3.614674  -2.908443  0.263151
H    -3.198504  -2.162766  -2.682079
H    -3.926045  -3.668667  -2.121989
H    -1.835055  -4.306721  -1.241436
H    -1.379363  -3.520202  -2.592713
N    -3.483082  1.768382  3.279808
C    -3.890706  2.254124  4.598035
H    -4.192147  1.786963  2.549415
H    -4.653376  1.588930  5.021600
H    -4.309707  3.262204  4.501179
H    -3.021942  2.279910  5.258547
Ba    1.024645  0.795306  4.404264
