34
Energy: -243347.21277 eV PBE+vdW (tier 2 basis)
C    0.663721  -0.301784  0.299259
C    0.270496  -0.719512  1.680462
O    0.883576  -1.653813  2.279886
H    0.766407  0.787531  0.229273
H    -0.102326  -0.603500  -0.432551
H    1.609200  -0.780642  0.030870
N    -0.770756  -0.118171  2.302877
C    -2.049202  0.210073  1.642728
C    -2.534240  -1.065225  0.903990
O    -2.166009  -2.210495  1.365617
H    -0.848579  -0.366964  3.287110
H    -2.752907  0.331867  2.482422
C    -2.089703  1.518172  0.835282
C    -3.441626  2.249518  0.998870
C    -3.841335  3.125225  -0.198387
C    -4.699180  2.395735  -1.229122
N    -4.033439  1.172118  -1.763968
H    -1.870775  1.318672  -0.221595
H    -1.280573  2.165559  1.197263
H    -3.388961  2.860671  1.910306
H    -4.247316  1.518739  1.180856
H    -2.945014  3.553566  -0.676259
H    -4.423173  3.987662  0.153705
H    -4.971960  3.085380  -2.041908
H    -5.636824  2.068619  -0.756955
H    -4.670516  0.728355  -2.431130
H    -3.227940  1.455061  -2.330541
N    -3.319491  -0.959771  -0.140074
C    -3.883507  -2.137647  -0.797374
H    -3.560698  -0.018427  -0.638110
H    -4.387134  -2.785439  -0.070700
H    -3.105572  -2.717518  -1.312129
H    -4.613798  -1.798304  -1.537304
Ba    -0.557748  -3.674213  2.445929
