34
Energy: -243347.353662 eV PBE+vdW (tier 2 basis)
C    1.535910  -1.418057  2.169359
C    0.629387  -0.439310  2.846700
O    0.990221  0.119258  3.925177
H    1.141077  -1.801609  1.223036
H    1.708608  -2.262789  2.851037
H    2.510956  -0.947036  1.989723
N    -0.557214  -0.185970  2.275295
C    -1.699321  0.603099  2.792441
C    -1.390922  2.109016  2.793286
O    -0.644664  2.613985  3.689209
H    -0.744878  -0.703951  1.421709
H    -2.494258  0.425810  2.058727
C    -2.242248  0.117994  4.144275
C    -3.548190  0.820180  4.543950
C    -4.244546  0.185508  5.759901
C    -4.951158  -1.147291  5.482810
N    -4.004512  -2.226943  5.138493
H    -1.491159  0.234314  4.945327
H    -2.437506  -0.965113  4.078748
H    -4.245536  0.790234  3.688946
H    -3.363348  1.888404  4.745887
H    -4.997107  0.893314  6.135966
H    -3.520973  0.054830  6.583997
H    -5.632763  -1.016217  4.629029
H    -5.587802  -1.391245  6.350303
H    -3.590136  -2.609601  5.990702
H    -4.508512  -3.005315  4.712042
N    -1.942100  2.893005  1.877071
C    -2.835556  2.530275  0.770092
H    -1.717755  3.882677  1.980366
H    -2.377032  1.777897  0.118233
H    -3.010968  3.429854  0.173851
H    -3.803060  2.171341  1.141878
Ba    0.934870  1.996432  5.430960
