34
Energy: -243347.724127 eV PBE+vdW (tier 2 basis)
C    -0.632446  -1.167095  1.632397
C    -1.285815  -0.127427  2.482808
O    -1.290808  -0.201066  3.740910
H    0.436545  -0.933539  1.507829
H    -1.087100  -1.252860  0.639735
H    -0.691754  -2.129117  2.153405
N    -1.873006  0.956656  1.903168
C    -1.406726  1.652690  0.712994
C    0.090723  2.012133  0.900355
O    0.579364  2.099665  2.063627
H    -2.469508  1.498061  2.527390
H    -1.517623  1.003606  -0.168942
C    -2.254679  2.929005  0.494524
C    -2.061509  4.084396  1.514405
C    -3.255416  4.408691  2.428937
C    -3.566921  3.481085  3.601048
N    -2.475953  3.442844  4.638563
H    -3.307758  2.611883  0.452789
H    -2.025818  3.297194  -0.513352
H    -1.848471  4.996487  0.942798
H    -1.149898  3.929433  2.114192
H    -4.168356  4.477135  1.818527
H    -3.112775  5.424171  2.832901
H    -3.773180  2.446509  3.279414
H    -4.504055  3.821821  4.064775
H    -2.248607  4.420889  4.855799
H    -2.914862  3.105728  5.503650
N    0.793378  2.246301  -0.198558
C    2.193576  2.669274  -0.241713
H    0.319267  2.132751  -1.091954
H    2.266199  3.682329  -0.656052
H    2.764248  1.981750  -0.876522
H    2.601338  2.657467  0.771268
Ba    -0.084230  1.900619  4.503004
