34
Energy: -243345.956743 eV PBE+vdW (tier 2 basis)
C    0.043215  0.384311  0.569579
C    -0.156475  0.280625  2.043758
O    0.901277  0.255907  2.817461
H    0.630666  1.284799  0.344546
H    -0.896198  0.423483  0.011764
H    0.624619  -0.479977  0.219819
N    -1.332171  0.217510  2.603251
C    -2.684434  0.214161  2.029094
C    -3.529589  0.624200  3.272865
O    -3.036761  0.374961  4.387767
H    -1.455956  0.159804  3.644242
H    -2.748284  0.949966  1.218357
C    -3.041516  -1.214388  1.537003
C    -4.336979  -1.343697  0.729065
C    -4.296117  -0.661011  -0.640469
C    -5.636346  -0.708987  -1.380831
N    -5.557822  0.043677  -2.628631
H    -3.076103  -1.868854  2.420578
H    -2.200454  -1.566938  0.918606
H    -5.191354  -0.981215  1.319886
H    -4.523793  -2.419282  0.593227
H    -3.519279  -1.137943  -1.262333
H    -4.007721  0.400882  -0.563077
H    -6.410338  -0.238329  -0.754963
H    -5.943011  -1.765785  -1.509128
H    -5.023234  -0.452291  -3.341704
H    -6.480927  0.228843  -3.017645
N    -4.733324  1.192096  3.127383
C    -5.407949  1.693889  1.934961
H    -5.201189  1.356187  4.017872
H    -5.708213  2.735708  2.099297
H    -6.303988  1.101344  1.711054
H    -4.746590  1.663123  1.065702
Ba    2.691745  0.226627  4.226347
