34
Energy: -243347.353356 eV PBE+vdW (tier 2 basis)
C    0.661302  -0.168483  0.153382
C    0.469948  -0.150868  1.638588
O    1.398002  -0.552799  2.400449
H    -0.184915  0.242910  -0.406332
H    0.823541  -1.208987  -0.162103
H    1.570476  0.388415  -0.106575
N    -0.705304  0.294182  2.105897
C    -1.287980  0.292016  3.463891
C    -0.641835  1.301978  4.414864
O    0.616411  1.479959  4.445178
H    -1.354923  0.594719  1.385070
H    -2.312735  0.637192  3.280925
C    -1.446256  -1.095666  4.146537
C    -0.309039  -1.660416  5.012895
C    -0.777241  -2.818378  5.918561
C    -1.445410  -2.387866  7.230090
N    -2.677505  -1.599740  7.021224
H    -1.712732  -1.815831  3.360040
H    -2.319292  -1.008424  4.807588
H    0.081691  -0.865021  5.680196
H    0.507230  -2.022692  4.363952
H    0.086099  -3.447282  6.179449
H    -1.452727  -3.475045  5.346711
H    -0.744505  -1.756068  7.798947
H    -1.610332  -3.291511  7.841371
H    -3.430765  -2.221818  6.716582
H    -2.993103  -1.230646  7.920001
N    -1.422972  1.951325  5.267992
C    -2.871154  1.827351  5.469835
H    -0.920946  2.568438  5.905583
H    -3.413578  1.930078  4.522532
H    -3.189367  2.642076  6.125811
H    -3.110133  0.865008  5.945556
Ba    2.661987  0.159279  4.322580
