34
Energy: -243347.634861 eV PBE+vdW (tier 2 basis)
C    0.540315  1.219918  1.277095
C    -0.108642  0.394574  2.337700
O    0.513442  0.041206  3.374835
H    -0.139542  1.528593  0.477476
H    1.331985  0.600081  0.827549
H    1.037323  2.093942  1.714019
N    -1.397969  -0.019526  2.186002
C    -2.508914  0.812832  1.732756
C    -2.394873  2.212100  2.369898
O    -1.756402  2.361588  3.455978
H    -1.658934  -0.747326  2.849520
H    -2.493416  0.904141  0.638405
C    -3.835348  0.110922  2.133569
C    -4.020747  -0.202346  3.631366
C    -4.627573  0.906807  4.504451
C    -4.496032  0.625431  6.004073
N    -3.192789  1.121813  6.576133
H    -3.869843  -0.822723  1.554664
H    -4.677193  0.716821  1.771849
H    -3.069013  -0.545756  4.082680
H    -4.670018  -1.086061  3.705579
H    -5.695354  0.996957  4.260194
H    -4.189569  1.892274  4.285548
H    -4.549193  -0.454996  6.195044
H    -5.332015  1.083053  6.550274
H    -3.329145  2.122445  6.764366
H    -3.113292  0.717271  7.516003
N    -2.983525  3.249559  1.786916
C    -3.780415  3.294766  0.558240
H    -2.887031  4.127398  2.296972
H    -3.463207  2.522344  -0.148372
H    -3.632547  4.271005  0.086018
H    -4.848200  3.167887  0.778464
Ba    -0.600913  1.194988  5.357590
