34
Energy: -243346.615336 eV PBE+vdW (tier 2 basis)
C    -0.287700  0.100724  0.312168
C    -0.366239  0.218967  1.797917
O    0.626108  0.650278  2.465343
H    -0.936215  0.865988  -0.140130
H    -0.650039  -0.867397  -0.056356
H    0.738741  0.267977  -0.024060
N    -1.492489  -0.121578  2.464938
C    -2.305493  -1.318090  2.189818
C    -1.336821  -2.535128  2.155183
O    -0.173599  -2.450613  2.670555
H    -1.487811  0.181225  3.436953
H    -2.892698  -1.458742  3.112723
C    -3.332600  -1.219109  1.047253
C    -4.322011  -0.046698  1.196163
C    -3.907956  1.279430  0.542137
C    -3.812292  1.225999  -0.990838
N    -5.036021  0.675438  -1.571348
H    -3.923702  -2.148499  1.067414
H    -2.839573  -1.193801  0.065624
H    -4.546053  0.113566  2.262408
H    -5.262045  -0.360248  0.725033
H    -2.962318  1.665251  0.954903
H    -4.664680  2.030345  0.817504
H    -2.984140  0.566178  -1.303802
H    -3.543917  2.237002  -1.351820
H    -5.815295  1.326555  -1.461387
H    -4.930194  0.525074  -2.573982
N    -1.767630  -3.662862  1.621475
C    -1.011295  -4.917213  1.599043
H    -2.694682  -3.657879  1.203186
H    -1.645766  -5.694487  1.165875
H    -0.728933  -5.209744  2.616905
H    -0.108067  -4.810104  0.986256
Ba    1.742917  -1.211375  3.625026
