27
Energy: -170625.945209 eV PBE+vdW (tier 2 basis)
N    1.264377  1.106831  2.185838
C    0.273222  -0.002719  1.916428
C    0.916543  -1.154183  1.090543
O    2.182600  -1.449158  1.234274
H    1.257505  1.781538  1.407826
H    0.995706  1.637791  3.023462
H    0.054101  -0.453635  2.899872
C    -1.026268  0.562808  1.288909
C    -2.368106  -0.072529  1.720556
C    -2.725991  -1.472755  1.198755
N    -2.249185  -2.554316  2.089116
C    -1.989698  -3.855299  1.732596
N    -1.999225  -4.957752  2.354815
N    -1.451745  -4.005889  0.327290
H    -0.934517  0.547656  0.192633
H    -1.098011  1.621052  1.582308
H    -3.148558  0.609051  1.351777
H    -2.463089  -0.047211  2.818693
H    -2.303794  -1.608337  0.195600
H    -3.822454  -1.542035  1.106473
H    -2.641224  -2.499744  3.030919
H    -2.371548  -4.931254  3.309627
H    -1.100789  -4.976855  0.286181
H    -2.182963  -3.902348  -0.392066
O    0.190983  -1.820246  0.349723
H    -0.677430  -3.319918  0.145237
Cd    3.286809  0.043532  2.250474
