27
Energy: -170627.475448 eV PBE+vdW (tier 2 basis)
N    0.767390  -0.355161  0.257780
C    0.157124  -0.030823  1.521163
C    1.241706  0.369095  2.621447
O    1.012097  1.436692  3.263917
H    -0.589767  -1.419496  -0.876894
H    1.058629  0.471375  -0.270228
H    -0.452515  0.872327  1.396369
C    -0.733556  -1.146019  2.123973
C    -0.177990  -2.576991  2.195870
C    -0.209616  -3.413832  0.902055
N    -1.549005  -3.536534  0.305153
C    -1.962793  -2.980657  -0.848254
N    -1.292363  -1.959210  -1.399967
N    -3.072317  -3.449775  -1.443509
H    -1.668180  -1.127860  1.539133
H    -1.028023  -0.821058  3.132394
H    -0.760757  -3.114394  2.959503
H    0.858587  -2.585381  2.570377
H    0.137475  -4.431162  1.131638
H    0.463820  -3.033785  0.125213
H    -2.196490  -4.181308  0.754409
H    -1.472597  -1.695374  -2.363912
H    -3.533685  -2.927248  -2.182067
H    -3.445064  -4.368896  -1.225401
O    2.245175  -0.375093  2.809564
H    1.568954  -0.986459  0.341759
Cd    2.918545  1.134861  4.423213
