27
Energy: -170626.06467 eV PBE+vdW (tier 2 basis)
N    -0.416143  -1.271179  -0.380604
C    -0.570629  -0.860091  1.076645
C    0.724775  -1.191062  1.855065
O    0.755836  -1.292159  3.051706
H    -0.475716  -2.296454  -0.472243
H    0.523064  -1.003041  -0.715606
H    -0.627051  0.239870  1.065844
C    -1.821821  -1.480249  1.728412
C    -3.011494  -0.549914  2.011321
C    -3.843823  -0.043054  0.824554
N    -3.291784  1.132375  0.118498
C    -2.754027  1.185243  -1.110962
N    -2.296831  2.307576  -1.677678
N    -2.531128  0.029852  -1.869003
H    -1.491983  -1.883544  2.695942
H    -2.152609  -2.353754  1.141326
H    -2.686348  0.302242  2.629441
H    -3.706193  -1.115860  2.649434
H    -4.832910  0.267507  1.189485
H    -4.021451  -0.843563  0.093353
H    -3.419388  2.026384  0.593190
H    -2.327162  3.200907  -1.183167
H    -1.167334  -0.830366  -0.998694
H    -3.314389  -0.633067  -1.851745
O    1.782595  -1.284713  1.007155
H    2.597045  -1.445102  1.534692
Cd    -2.142483  1.371905  -3.620018
