27
Energy: -170626.651679 eV PBE+vdW (tier 2 basis)
N    1.341719  -0.368354  0.874933
C    0.066545  -0.306714  1.576988
C    0.136592  0.721822  2.722473
O    1.168238  0.998432  3.340081
H    -5.589692  0.799164  -0.107450
H    1.434028  -1.274132  0.397004
H    -0.646982  0.123359  0.839827
C    -0.471657  -1.679736  2.083486
C    -1.851398  -1.786850  2.767124
C    -3.085631  -1.353164  1.947212
N    -3.525978  0.023734  2.320900
C    -4.502854  0.702382  1.632280
N    -4.958803  0.243553  0.466435
N    -4.940659  1.864967  2.124753
H    0.275729  -2.092259  2.780874
H    -0.465880  -2.344614  1.205282
H    -1.852895  -1.280011  3.745611
H    -1.984668  -2.849968  3.010627
H    -3.913597  -2.056558  2.124710
H    -2.851002  -1.358380  0.872790
H    -3.627106  0.131240  3.334867
H    -4.828045  -0.724863  0.189737
H    -4.497903  2.306960  2.926211
H    -5.738180  2.350263  1.720105
O    -0.993242  1.315835  3.083871
H    -1.741384  1.006526  2.516650
Cd    2.920960  -0.084960  2.264998
