27
Energy: -170627.39901 eV PBE+vdW (tier 2 basis)
N    1.076490  0.998746  1.349929
C    0.296665  0.200177  2.365132
C    1.175781  -0.770634  3.182134
O    2.294357  -1.254405  2.703187
H    0.483673  1.249685  0.551136
H    1.400914  1.882315  1.758399
H    -0.117271  0.913804  3.093841
C    -0.861028  -0.568095  1.674091
C    -2.133192  -0.822103  2.528880
C    -2.387532  -2.233600  3.080207
N    -1.659500  -2.521084  4.315247
C    -2.033337  -3.401181  5.249977
N    -1.371724  -3.439191  6.417004
N    -3.067394  -4.231194  5.051720
H    -0.485405  -1.511808  1.247121
H    -1.176022  0.045597  0.816675
H    -2.990778  -0.610240  1.877204
H    -2.202164  -0.090856  3.347126
H    -2.154784  -2.987454  2.308410
H    -3.463731  -2.306421  3.293968
H    -0.765771  -2.036151  4.454202
H    -1.488452  -4.206850  7.066792
H    -3.444153  -4.788230  5.809188
H    -3.465570  -4.375891  4.133575
O    0.754770  -1.136734  4.276999
H    -0.680523  -2.736129  6.647952
Cd    2.895678  -0.311073  0.923902
