27
Energy: -170626.97855 eV PBE+vdW (tier 2 basis)
N    -0.129370  0.568883  0.396828
C    0.027862  -0.459610  1.475188
C    1.537703  -0.722150  1.553845
O    2.286199  0.272284  1.686943
H    0.184131  0.208556  -0.513091
H    -1.118753  0.809198  0.281584
H    -0.109876  0.082284  2.424714
C    -1.069554  -1.523773  1.537544
C    -2.435968  -0.843550  1.840744
C    -2.580756  -0.042226  3.159340
N    -1.684123  1.136501  3.319743
C    -1.767368  2.377158  2.750133
N    -0.627598  3.084430  2.620142
N    -2.959579  2.824860  2.319420
H    -0.838044  -2.237668  2.345035
H    -1.150009  -2.095370  0.599799
H    -3.196355  -1.636779  1.886923
H    -2.753286  -0.218329  0.989656
H    -2.362541  -0.685809  4.021854
H    -3.633145  0.253617  3.273102
H    -1.016549  1.096192  4.088032
H    -0.766446  4.092906  2.520788
H    -3.023958  3.689421  1.786520
H    -3.823507  2.500499  2.751539
O    2.077971  -1.911943  1.548789
H    1.425670  -2.632385  1.409276
Cd    1.055469  2.144034  1.681634
