27
Energy: -170625.968149 eV PBE+vdW (tier 2 basis)
N    -0.775580  -0.212353  -0.270670
C    -0.261875  -0.114205  1.091696
C    1.306916  -0.048633  1.191179
O    2.016092  -0.432962  0.214621
H    -0.476282  -1.089450  -0.713736
H    -2.625706  -0.039068  -0.462100
H    -0.588231  0.846910  1.516878
C    -0.709708  -1.288814  1.996778
C    -2.185097  -1.684921  1.829735
C    -3.193304  -0.551703  2.117796
N    -4.481179  -0.757886  1.443496
C    -4.642700  -0.762839  0.085510
N    -5.465591  -1.291646  -0.717391
N    -3.668502  0.158122  -0.627188
H    -0.485913  -1.013533  3.037149
H    -0.101102  -2.178819  1.771461
H    -2.385851  -2.536303  2.495918
H    -2.349784  -2.070635  0.812074
H    -2.797255  0.432814  1.823496
H    -3.403291  -0.467890  3.191205
H    -5.172203  -1.313730  1.947408
H    -6.147435  -1.934693  -0.300900
H    -3.894220  0.028330  -1.627394
H    -3.860794  1.142937  -0.385641
O    1.790814  0.379048  2.287672
H    -0.395112  0.539284  -0.855626
Cd    3.855510  0.046386  1.476772
