27
Energy: -170626.423585 eV PBE+vdW (tier 2 basis)
N    0.329815  0.051065  0.282319
C    0.207109  -0.009210  1.748271
C    1.557700  0.089511  2.526556
O    2.549703  0.667557  2.053452
H    0.720043  -0.859151  -0.020002
H    -1.466013  -0.552629  -0.526529
H    -0.316955  0.912476  2.068906
C    -0.698674  -1.197285  2.155056
C    -0.256699  -2.614632  1.712435
C    -1.246933  -3.335274  0.778072
N    -1.068233  -3.128647  -0.685620
C    -1.847203  -2.337106  -1.463902
N    -2.170487  -1.102646  -1.042445
N    -2.274436  -2.791104  -2.648978
H    -1.696470  -0.968251  1.754623
H    -0.863121  -1.168549  3.244797
H    -0.163980  -3.247385  2.605777
H    0.747548  -2.622550  1.259270
H    -2.281765  -3.071259  1.037587
H    -1.150271  -4.418169  0.924950
H    -0.661282  -3.924705  -1.174752
H    -2.894250  -0.581688  -1.532540
H    -2.627761  -2.159988  -3.364544
H    -2.339874  -3.788009  -2.841708
O    1.656669  -0.371105  3.754923
H    0.830475  -0.803803  4.054518
Cd    2.040532  1.339024  -0.057257
