27
Energy: -170626.011145 eV PBE+vdW (tier 2 basis)
N    -1.509764  1.259924  2.438049
C    -0.391302  0.628148  3.069823
C    0.939034  1.403872  2.772859
O    1.973408  0.882591  2.373597
H    -1.654934  1.121837  1.438523
H    -1.835181  2.156490  2.796557
H    -0.528229  0.729364  4.162398
C    -0.275712  -0.856103  2.684117
C    0.614982  -1.679536  3.650551
C    1.586634  -2.641238  2.962448
N    2.642931  -1.867988  2.264873
C    3.760160  -2.335258  1.726724
N    4.705782  -1.634381  1.126918
N    4.063041  -3.755274  1.751970
H    0.086173  -0.925284  1.645678
H    -1.292597  -1.268700  2.683685
H    -0.023554  -2.282382  4.310028
H    1.194624  -1.026770  4.321700
H    1.056059  -3.278316  2.236580
H    2.049664  -3.290211  3.720077
H    2.474752  -0.843391  2.224264
H    4.607833  -0.617873  1.058500
H    3.349404  -4.312692  1.264686
H    4.124889  -4.120957  2.711026
O    0.799906  2.703504  3.012857
H    1.645188  3.171855  2.829310
Cd    6.173537  -3.141963  0.574581
