27
Energy: -170625.917492 eV PBE+vdW (tier 2 basis)
N    0.288152  0.616127  -0.237968
C    0.748080  0.522039  1.101929
C    2.283314  0.146795  1.224588
O    2.791533  -0.075208  2.300445
H    0.575773  1.415940  -0.800806
H    0.180868  -0.244822  -0.775879
H    0.716085  1.530538  1.550555
C    -0.072277  -0.484588  1.938317
C    -1.506508  -0.024956  2.258127
C    -1.651801  1.027760  3.365470
N    -1.342434  0.476245  4.701598
C    -1.911488  0.839764  5.868570
N    -1.888531  0.028889  6.943842
N    -2.539903  2.032069  5.968851
H    0.510839  -0.704580  2.845461
H    -0.121694  -1.437040  1.387405
H    -2.114272  -0.902194  2.526212
H    -1.970432  0.392609  1.352451
H    -2.692207  1.381032  3.381773
H    -1.002363  1.900645  3.178883
H    -0.660365  -0.279210  4.746135
H    -1.578654  -0.924677  6.742216
H    -2.482407  2.718399  5.223007
H    -3.330421  2.120996  6.600939
O    2.894996  0.141143  0.039831
H    3.848806  -0.068989  0.168603
Cd    -1.489266  0.654664  8.988485
