27
Energy: -170625.85148 eV PBE+vdW (tier 2 basis)
N    -0.013813  1.836844  1.264074
C    0.185521  0.555794  2.033203
C    1.412914  -0.249273  1.506594
O    2.426476  0.366659  0.964625
H    -0.594515  1.668648  0.430969
H    -0.522679  2.525146  1.831949
H    0.463584  0.865397  3.055305
C    -1.115666  -0.284497  2.079224
C    -1.279445  -1.218358  3.316216
C    -1.418482  -2.716505  3.020619
N    -0.067023  -3.400835  2.840502
C    -0.077303  -4.682565  1.991776
N    0.527369  -4.779772  0.887074
N    -0.876397  -5.641173  2.531061
H    -1.203477  -0.857288  1.143227
H    -1.958865  0.419477  2.087289
H    -2.201435  -0.931876  3.840167
H    -0.476268  -1.053707  4.051851
H    -1.985604  -2.903693  2.099657
H    -1.937871  -3.224552  3.841395
H    0.356428  -3.595482  3.761991
H    1.058566  -3.964016  0.574601
H    -0.882192  -6.533148  2.035814
H    -1.071090  -5.688931  3.527083
O    1.436640  -1.474053  1.657890
H    0.573976  -2.712997  2.362838
Cd    2.109542  2.423414  0.589982
