27
Energy: -170625.803665 eV PBE+vdW (tier 2 basis)
N    0.014244  1.496847  0.830412
C    0.396528  0.643279  1.924103
C    1.955536  0.631823  2.011627
O    2.625429  -0.179692  1.384978
H    0.277003  1.216126  -0.113714
H    -0.026993  2.504188  0.972109
H    -0.006788  1.083800  2.851541
C    -0.170433  -0.779099  1.735723
C    -0.061323  -1.725158  2.946382
C    1.271697  -2.444610  3.206063
N    1.631006  -3.366574  2.101899
C    2.796621  -3.501673  1.469886
N    3.091488  -4.392053  0.541844
N    3.902876  -2.611573  1.752002
H    0.286897  -1.226898  0.839219
H    -1.236338  -0.642954  1.508026
H    -0.848801  -2.489011  2.844826
H    -0.317459  -1.194040  3.877245
H    1.180401  -3.046123  4.122898
H    2.103948  -1.749298  3.355274
H    0.904393  -4.040712  1.850286
H    2.396163  -5.084058  0.250055
H    3.624057  -1.611563  1.626132
H    4.258385  -2.727641  2.709799
O    2.562461  1.563439  2.748743
H    1.926597  2.152473  3.205873
Cd    5.109979  -3.770061  -0.000523
