27
Energy: -170626.823783 eV PBE+vdW (tier 2 basis)
N    -0.265747  -1.256585  0.431712
C    -0.002684  -0.453499  1.634489
C    1.398386  -0.636594  2.287950
O    2.084035  -1.661354  2.156898
H    -2.175948  -1.632863  -0.012959
H    0.101764  -0.739899  -0.383316
H    -0.048786  0.611644  1.338347
C    -1.061019  -0.753398  2.746504
C    -2.191085  0.286748  2.831512
C    -3.160585  0.371528  1.646170
N    -4.080110  -0.776834  1.558387
C    -4.187622  -1.639359  0.531371
N    -3.145490  -1.871801  -0.280795
N    -5.347778  -2.286923  0.335635
H    -0.581503  -0.807816  3.734743
H    -1.464641  -1.760646  2.554164
H    -1.762673  1.291498  2.976658
H    -2.766109  0.087412  3.748960
H    -2.646002  0.469005  0.681044
H    -3.778598  1.274439  1.756632
H    -4.835905  -0.799994  2.241418
H    -3.306004  -2.292451  -1.191017
H    -6.221099  -1.940392  0.722715
H    -5.398456  -3.114896  -0.250615
O    1.862147  0.305235  3.081441
H    1.287543  1.099571  3.108690
Cd    1.119290  -2.931807  0.558441
