27
Energy: -170626.366824 eV PBE+vdW (tier 2 basis)
N    -1.096304  -0.122136  -0.320983
C    -0.602426  -0.228328  1.018399
C    0.285485  0.981351  1.416292
O    1.290741  1.298819  0.751005
H    -1.777870  0.616344  -0.491313
H    -0.397967  -0.168385  -1.063119
H    -1.473782  -0.226916  1.696243
C    0.188399  -1.548024  1.229013
C    0.430476  -2.002372  2.692751
C    1.879468  -2.042769  3.206843
N    2.469156  -0.698193  3.375514
C    3.424152  -0.093465  2.654406
N    3.885683  1.162810  2.954403
N    3.941064  -0.657866  1.544814
H    1.125694  -1.493802  0.653768
H    -0.432877  -2.298950  0.721029
H    0.054332  -3.029957  2.800506
H    -0.182083  -1.414751  3.397290
H    2.523509  -2.642646  2.550975
H    1.907453  -2.533559  4.189742
H    2.092433  -0.147029  4.145961
H    3.761384  1.416503  3.939586
H    4.870774  -0.346370  1.268774
H    3.683494  -1.596968  1.255430
O    -0.002612  1.718129  2.487376
H    -0.850840  1.459281  2.908668
Cd    2.908303  2.538657  1.636571
