27
Energy: -170627.533074 eV PBE+vdW (tier 2 basis)
N    0.280440  0.991425  0.718862
C    -0.090266  0.429637  1.963963
C    1.095463  0.599380  3.068822
O    0.791761  1.275425  4.089845
H    -0.958704  -4.737770  -1.960643
H    0.228707  2.007303  0.643373
H    -0.925433  1.002890  2.386024
C    -0.429326  -1.074187  1.911122
C    -1.807144  -1.362721  1.276994
C    -1.930847  -1.241264  -0.246630
N    -1.314062  -2.391565  -0.936235
C    -1.597678  -2.788494  -2.188028
N    -1.189752  -3.996204  -2.614341
N    -2.284896  -1.988136  -3.015465
H    -0.451786  -1.458106  2.941141
H    0.394441  -1.608103  1.408815
H    -2.552274  -0.682811  1.716539
H    -2.126496  -2.372039  1.581154
H    -1.469639  -0.301845  -0.593638
H    -2.998798  -1.226169  -0.509227
H    -0.633847  -2.949008  -0.425576
H    -1.224004  -4.244462  -3.598689
H    -2.668276  -2.340919  -3.887444
H    -2.398517  -0.998082  -2.826735
O    2.213616  0.071894  2.845450
H    1.124573  0.615266  0.284186
Cd    2.917059  1.005170  4.872858
