27
Energy: -170626.005288 eV PBE+vdW (tier 2 basis)
N    0.819289  -0.435866  -0.019950
C    0.187610  -0.074376  1.315446
C    1.327905  0.200697  2.323243
O    0.999927  0.659676  3.460014
H    0.489361  -1.390662  -0.466022
H    0.670971  0.300435  -0.722011
H    -0.340713  0.882294  1.189990
C    -0.792769  -1.144201  1.834729
C    -2.159537  -1.114533  1.106300
C    -2.800906  -2.502803  0.880105
N    -1.963189  -3.393764  0.053477
C    -1.270237  -2.868539  -1.034564
N    0.051451  -2.855915  -1.102010
N    -1.990920  -2.193895  -1.951891
H    -0.940439  -0.955845  2.905794
H    -0.305603  -2.128911  1.762145
H    -2.074787  -0.617713  0.127445
H    -2.871212  -0.506554  1.682318
H    -3.785642  -2.364672  0.407797
H    -2.979312  -3.028872  1.826183
H    -1.445148  -4.104770  0.567914
H    0.479639  -3.546234  -0.474558
H    -1.514332  -1.931400  -2.812277
H    -2.992073  -2.357565  -2.024875
O    2.525832  -0.028543  1.970468
H    1.843621  -0.510374  0.126681
Cd    3.169645  0.761903  4.087953
