27
Energy: -170626.103993 eV PBE+vdW (tier 2 basis)
N    -1.522889  -0.879691  -0.557116
C    -1.138263  -0.382923  0.737146
C    0.094784  0.535509  0.610508
O    1.026638  0.565909  1.409463
H    -1.604946  -0.202298  -1.315507
H    -2.238925  -1.604854  -0.576468
H    -1.915066  0.313571  1.139363
C    -0.961291  -1.502031  1.773130
C    0.140932  -2.542561  1.437190
C    1.100725  -2.826307  2.594950
N    1.871059  -1.607447  2.925349
C    2.880246  -1.550397  3.777024
N    3.390468  -2.517519  4.517012
N    3.574571  -0.285644  3.966284
H    -1.932272  -2.004281  1.888538
H    -0.777449  -1.020727  2.744769
H    0.722254  -2.233610  0.554880
H    -0.318049  -3.501039  1.161226
H    1.805700  -3.623550  2.310914
H    0.548153  -3.155440  3.490492
H    1.570699  -0.734516  2.440482
H    2.975853  -3.451819  4.491694
H    2.984875  0.399007  4.457891
H    3.853006  0.143166  3.074353
O    -0.000047  1.336438  -0.446784
H    0.774166  1.941205  -0.482166
Cd    5.136395  -1.563839  5.399325
