27
Energy: -170625.900493 eV PBE+vdW (tier 2 basis)
N    0.298940  -0.157245  -0.833739
C    -0.077963  0.445009  0.437382
C    0.955782  1.529106  0.924778
O    0.484456  2.548250  1.518969
H    -0.505333  -1.907795  -0.912266
H    0.078617  0.446473  -1.631926
H    -1.028036  0.983897  0.318708
C    -0.179597  -0.613399  1.562259
C    -1.520808  -1.383031  1.613826
C    -2.161043  -1.860844  0.310374
N    -1.205142  -2.632251  -0.591355
C    -0.432772  -3.806129  0.035363
N    0.828558  -3.878755  0.032455
N    -1.267010  -4.689063  0.648091
H    -0.059591  -0.129844  2.541736
H    0.673306  -1.301713  1.461543
H    -2.283813  -0.749413  2.090904
H    -1.379428  -2.239045  2.290119
H    -2.520657  -1.028857  -0.311025
H    -3.023852  -2.500920  0.529335
H    -1.708440  -2.964442  -1.430215
H    1.333873  -3.119142  -0.425533
H    -0.807439  -5.532939  0.991872
H    -2.217573  -4.830730  0.316313
O    2.192288  1.330954  0.737652
H    1.307363  -0.344299  -0.867077
Cd    2.577844  3.307911  1.812740
