27
Energy: -170627.606569 eV PBE+vdW (tier 2 basis)
N    -0.489987  1.766772  0.584420
C    -0.375782  1.040009  1.785439
C    0.895922  1.573985  2.664930
O    0.591590  2.162682  3.738073
H    0.281319  1.712811  -0.080865
H    -0.931868  2.683921  0.621909
H    -1.238886  1.261810  2.425670
C    -0.211771  -0.479329  1.585500
C    -1.544328  -1.098268  1.127384
C    -1.525376  -2.618629  0.938858
N    -0.802675  -3.010494  -0.286036
C    -0.405170  -4.263955  -0.576509
N    -0.678196  -5.277159  0.257861
N    0.308418  -4.493632  -1.690915
H    0.099454  -0.933064  2.538888
H    0.602133  -0.663350  0.866280
H    -1.896751  -0.609720  0.204372
H    -2.317643  -0.891165  1.882675
H    -2.566653  -2.977117  0.886905
H    -1.033349  -3.102921  1.796034
H    -0.868683  -2.368466  -1.074223
H    -1.432039  -5.216673  0.934533
H    0.713506  -3.733903  -2.228017
H    0.426713  -5.433722  -2.057061
O    2.057774  1.403477  2.222856
H    -0.253249  -6.190305  0.124312
Cd    2.797624  2.622806  4.097278
