27
Energy: -170625.985364 eV PBE+vdW (tier 2 basis)
N    1.182232  0.097538  -0.000383
C    1.108518  -0.656163  1.242878
C    2.499407  -1.258885  1.676130
O    2.747352  -1.304913  2.921702
H    -0.522974  0.545967  -0.454894
H    1.781000  0.925270  0.085739
H    0.824230  0.022946  2.059594
C    0.120858  -1.843905  1.170466
C    -1.376531  -1.474581  1.102611
C    -1.930407  -0.975152  -0.230977
N    -1.587077  0.486430  -0.500728
C    -2.136026  1.504824  0.505239
N    -1.392007  2.280975  1.174140
N    -3.483854  1.408332  0.650033
H    0.261427  -2.447117  2.078527
H    0.396806  -2.490969  0.321435
H    -1.648148  -0.782090  1.915050
H    -1.931725  -2.399215  1.320237
H    -3.022091  -1.067597  -0.247511
H    -1.529728  -1.541404  -1.083529
H    -1.881528  0.749896  -1.454720
H    -0.390278  2.203823  0.996903
H    -3.896889  2.113482  1.261184
H    -4.078685  1.107238  -0.117677
O    3.291176  -1.690336  0.785534
H    1.577413  -0.471595  -0.758151
Cd    4.719383  -2.271477  2.458988
