27
Energy: -170625.634526 eV PBE+vdW (tier 2 basis)
N    0.092083  0.117183  -0.132064
C    -0.021569  0.251705  1.322409
C    1.375708  0.220938  2.020204
O    1.526148  0.996476  3.016970
H    -1.058410  -1.194923  -0.643877
H    0.019723  1.022000  -0.605085
H    -0.449971  1.234058  1.559585
C    -0.950060  -0.807067  1.975743
C    -0.664553  -2.312103  1.801751
C    -0.469906  -2.875119  0.381029
N    -1.385620  -2.216987  -0.628377
C    -1.427574  -2.711848  -2.096314
N    -2.439201  -2.559944  -2.830674
N    -0.209031  -3.160719  -2.517882
H    -1.956342  -0.559591  1.598875
H    -1.001350  -0.596221  3.053945
H    -1.500345  -2.840947  2.283995
H    0.230220  -2.606893  2.370291
H    -0.666269  -3.955130  0.373150
H    0.553347  -2.699271  0.026514
H    -2.358666  -2.247548  -0.293261
H    -3.258674  -2.079937  -2.451823
H    -0.217357  -3.465024  -3.493188
H    0.346173  -3.761356  -1.913121
O    2.278736  -0.561087  1.595722
H    0.983079  -0.302911  -0.414339
Cd    3.631445  0.303427  3.266352
