27
Energy: -170626.063327 eV PBE+vdW (tier 2 basis)
N    -0.071305  0.861295  0.487447
C    0.053236  -0.118384  1.628759
C    1.483182  -0.731552  1.744494
O    2.520507  -0.113556  1.247858
H    -0.385205  0.376087  -0.364559
H    -0.790897  1.565417  0.692781
H    -0.068264  0.478224  2.549191
C    -1.076157  -1.172670  1.545965
C    -1.278376  -2.007126  2.840005
C    -0.954096  -3.505087  2.631506
N    -0.815675  -4.240824  3.892667
C    0.287035  -4.272095  4.702168
N    0.476478  -4.495225  5.933995
N    1.594876  -4.110740  3.951501
H    -0.881899  -1.834406  0.685618
H    -2.009296  -0.637582  1.319687
H    -2.319106  -1.909072  3.178439
H    -0.652285  -1.612519  3.651652
H    -0.038945  -3.622744  2.038220
H    -1.753471  -3.996707  2.060358
H    -1.685994  -4.441341  4.386342
H    -0.369192  -4.607753  6.502968
H    2.317715  -4.143735  4.689351
H    1.756475  -4.901172  3.307724
O    1.618361  -1.784269  2.371907
H    1.679993  -3.216614  3.412534
Cd    2.057538  1.637368  0.152708
