27
Energy: -170626.065023 eV PBE+vdW (tier 2 basis)
N    -0.345541  1.311899  1.180718
C    0.349221  0.211400  1.959267
C    1.111905  -0.570678  0.868632
O    0.884509  -0.373421  -0.312829
H    -0.273168  0.990471  0.180185
H    0.145076  2.212392  1.251678
H    1.065503  0.663005  2.660112
C    -0.667183  -0.685783  2.685630
C    -1.297801  -0.116249  3.968793
C    -1.964786  1.281162  3.881051
N    -2.767564  1.451113  2.677778
C    -4.067575  1.476094  2.699757
N    -4.846903  1.345104  1.592959
N    -4.917365  1.639592  3.871966
H    -0.138854  -1.609295  2.961186
H    -1.443865  -0.988614  1.964851
H    -0.541024  -0.058032  4.765284
H    -2.049029  -0.844218  4.309138
H    -1.178153  2.055295  3.841242
H    -2.520267  1.446963  4.818415
H    -1.352097  1.429821  1.489443
H    -4.346000  1.314968  0.699922
H    -5.281734  0.744627  4.218171
H    -4.463296  2.126498  4.649985
O    1.971118  -1.437838  1.387844
H    2.425280  -1.924103  0.662131
Cd    -6.541903  2.503614  2.170360
