27
Energy: -170625.920525 eV PBE+vdW (tier 2 basis)
N    -0.213260  0.120463  -0.023564
C    0.024759  0.248929  1.390062
C    1.534129  0.582090  1.586824
O    2.344757  -0.139403  2.146125
H    -0.075338  0.947986  -0.604028
H    -0.991695  -0.466976  -0.318731
H    -0.493380  1.149688  1.789812
C    -0.450531  -0.967075  2.189543
C    0.251150  -2.311218  1.858879
C    0.902444  -2.899815  3.120456
N    1.802614  -4.037421  2.854300
C    3.107866  -3.919821  2.606583
N    3.800118  -2.809065  2.481164
N    3.917632  -5.113623  2.503088
H    -1.535848  -1.054807  2.038134
H    -0.330490  -0.721395  3.254881
H    1.015066  -2.164157  1.081670
H    -0.471796  -3.031820  1.452040
H    0.141424  -3.264150  3.823665
H    1.491267  -2.134546  3.644546
H    1.389536  -4.967887  2.800079
H    3.319185  -1.898384  2.454572
H    3.676374  -5.834061  3.194187
H    3.861172  -5.538680  1.568684
O    1.814318  1.770618  1.052107
H    2.769036  1.974503  1.168237
Cd    5.859590  -3.517041  2.641366
