27
Energy: -170626.458281 eV PBE+vdW (tier 2 basis)
N    -0.474320  0.951207  0.778190
C    -0.027575  -0.107231  1.684682
C    1.450481  -0.378727  1.446563
O    2.147865  0.427226  0.794097
H    0.019694  1.823808  0.985604
H    -1.460827  1.151819  0.967640
H    -0.044782  0.193864  2.757973
C    -0.935721  -1.370699  1.598375
C    -1.441760  -1.866661  0.230149
C    -0.424339  -2.332232  -0.825674
N    0.109258  -1.188496  -1.587332
C    1.383391  -0.914556  -1.842507
N    2.439504  -1.701565  -1.670455
N    1.739134  0.417338  -2.195135
H    -1.829048  -1.133094  2.195317
H    -0.474786  -2.210383  2.145565
H    -2.114350  -1.121861  -0.222310
H    -2.087511  -2.731437  0.442580
H    -0.912148  -3.020492  -1.530776
H    0.421249  -2.872745  -0.376386
H    -0.581273  -0.494732  -1.878532
H    2.300304  -2.706920  -1.552902
H    2.053970  0.505458  -3.168125
H    1.032920  1.124888  -1.969056
O    2.045491  -1.452338  1.943899
H    1.434382  -2.003397  2.480552
Cd    3.669428  -0.219442  -0.675537
