27
Energy: -170625.949891 eV PBE+vdW (tier 2 basis)
N    0.914350  0.571643  0.697270
C    -0.145591  0.064323  1.644084
C    0.190736  -1.351383  2.199216
O    1.427850  -1.761769  2.279152
H    0.736101  0.239646  -0.260203
H    0.890758  1.597877  0.651337
H    -0.096046  0.729836  2.522493
C    -1.570260  0.155101  1.045070
C    -2.005643  -1.022337  0.136095
C    -3.230473  -1.765117  0.731303
N    -3.416319  -3.125053  0.218637
C    -2.845316  -4.276169  0.683533
N    -2.648282  -5.425916  0.187245
N    -2.431394  -4.217180  2.139222
H    -1.655671  1.114766  0.516059
H    -2.257671  0.245480  1.898536
H    -1.188393  -1.748702  0.005939
H    -2.257787  -0.661106  -0.870327
H    -4.153701  -1.208943  0.518805
H    -3.140719  -1.801809  1.824038
H    -3.792749  -3.205313  -0.725892
H    -2.908524  -5.538451  -0.798107
H    -2.049561  -5.158595  2.329510
H    -3.242375  -4.067516  2.759849
O    -0.740888  -2.053505  2.602937
H    -1.702232  -3.490215  2.355767
Cd    2.839508  -0.391234  1.486927
