27
Energy: -170628.119437 eV PBE+vdW (tier 2 basis)
N    1.154842  -0.480108  0.495137
C    0.302019  0.025301  1.617470
C    1.205549  0.855452  2.543707
O    2.419587  0.629913  2.637483
H    0.635692  -1.175052  -0.056065
H    1.373489  0.285688  -0.155941
H    -0.482222  0.683125  1.209408
C    -0.401827  -1.144125  2.378770
C    0.401457  -2.430048  2.680322
C    1.402062  -2.411027  3.867363
N    2.257674  -3.597242  3.890560
C    3.501005  -3.717717  3.359139
N    4.013181  -2.806415  2.518251
N    4.213617  -4.806688  3.706963
H    -1.265714  -1.431644  1.762289
H    -0.831991  -0.738619  3.307214
H    0.902888  -2.810250  1.771405
H    -0.341658  -3.213296  2.891636
H    0.846719  -2.387087  4.815195
H    2.049263  -1.521941  3.907761
H    1.884528  -4.422206  4.354932
H    5.013961  -2.920240  2.360262
H    5.067732  -5.054241  3.216453
H    3.999494  -5.339402  4.545899
O    0.680567  1.796429  3.296690
H    -0.270307  1.961700  3.117852
Cd    3.009060  -1.270964  1.528285
