27
Energy: -170625.781474 eV PBE+vdW (tier 2 basis)
N    1.213439  -0.670993  0.064043
C    0.153270  -0.702158  1.167493
C    0.942078  -0.780863  2.499016
O    0.270669  -0.780306  3.570246
H    1.130640  -1.467620  -0.583950
H    1.203627  0.196369  -0.489426
H    -0.356653  0.271493  1.155929
C    -0.832064  -1.865290  0.988781
C    -1.880112  -1.688478  -0.128565
C    -3.093333  -0.830177  0.305586
N    -4.104125  -0.702389  -0.737036
C    -4.971398  -1.679781  -1.170628
N    -5.641218  -1.632393  -2.301675
N    -5.105186  -2.815906  -0.425538
H    -1.333889  -2.000642  1.958516
H    -0.258069  -2.792375  0.826767
H    -2.236642  -2.687246  -0.418754
H    -1.442322  -1.253402  -1.042483
H    -2.792243  0.192553  0.573035
H    -3.544347  -1.253653  1.217588
H    -4.094397  0.144384  -1.299844
H    -5.549091  -0.738786  -2.801003
H    -5.812615  -3.461003  -0.776451
H    -4.973557  -2.804504  0.581674
O    2.206173  -0.827489  2.426663
H    2.131402  -0.738072  0.572949
Cd    2.169200  -0.861769  4.881386
