27
Energy: -170625.598337 eV PBE+vdW (tier 2 basis)
N    -0.556627  -1.441573  0.344730
C    -0.900341  -0.170612  0.996466
C    0.613273  -0.548812  0.519414
O    1.021864  0.279124  -0.395938
H    -1.717717  -3.132807  1.062872
H    -0.837028  -1.397150  -0.645183
H    -1.384779  0.582815  0.367695
C    -1.124478  -0.080239  2.474104
C    -2.613739  -0.124856  2.907856
C    -3.302456  -1.492949  2.874422
N    -3.907964  -1.853738  1.569814
C    -3.762989  -3.040302  0.943063
N    -2.580918  -3.677550  0.986441
N    -4.791708  -3.564701  0.261569
H    -0.719107  0.888870  2.805351
H    -0.557626  -0.854614  3.010941
H    -3.206068  0.617631  2.351300
H    -2.629480  0.213244  3.954631
H    -4.121125  -1.489644  3.610310
H    -2.621632  -2.301437  3.169797
H    -4.759971  -1.344638  1.334456
H    -2.509589  -4.647988  0.693764
H    -4.652284  -4.305716  -0.420469
H    -5.752728  -3.305447  0.469632
O    1.560463  -0.960949  1.411635
H    1.305154  -1.819321  1.805944
Cd    2.889646  -0.234108  -1.428906
