27
Energy: -170627.400323 eV PBE+vdW (tier 2 basis)
N    -0.835600  0.744852  0.041307
C    -0.457614  0.358410  1.453518
C    0.997623  0.784330  1.803256
O    1.524314  1.861490  1.257375
H    -1.857964  0.764493  -0.060788
H    -0.495293  0.044063  -0.630891
H    -1.097308  0.977876  2.105179
C    -0.749225  -1.124697  1.771131
C    0.305071  -2.153799  1.290232
C    0.830648  -2.979079  2.484985
N    2.047686  -3.741512  2.196057
C    3.295434  -3.392883  2.564644
N    3.573045  -2.152829  2.986079
N    4.276684  -4.309292  2.492642
H    -1.746941  -1.367787  1.379413
H    -0.854354  -1.182010  2.864328
H    1.159110  -1.657218  0.805186
H    -0.127415  -2.830609  0.540176
H    0.066545  -3.695059  2.819114
H    1.038506  -2.321044  3.338504
H    1.945509  -4.635059  1.720116
H    4.443426  -1.963358  3.473739
H    5.251871  -4.043278  2.587945
H    4.071104  -5.303261  2.464171
O    1.633049  0.139286  2.631282
H    2.917914  -1.375553  2.885968
Cd    0.312234  2.708378  -0.239925
