27
Energy: -170626.870371 eV PBE+vdW (tier 2 basis)
N    0.396424  -0.461687  -0.840052
C    -0.261658  0.032533  0.380574
C    0.783978  1.033743  0.976107
O    0.620892  1.795602  1.983949
H    0.507807  -1.477522  -0.874249
H    -0.036795  -0.146110  -1.710613
H    -1.155570  0.627731  0.125573
C    -0.603962  -1.094320  1.383606
C    -1.795128  -2.018374  1.049109
C    -3.215798  -1.407048  1.078712
N    -3.421510  -0.610865  2.307123
C    -3.392430  0.724588  2.387179
N    -3.067685  1.420023  3.527833
N    -3.588839  1.491728  1.283079
H    -0.753313  -0.658529  2.386612
H    0.292875  -1.724171  1.500477
H    -1.758286  -2.852577  1.766360
H    -1.669226  -2.487936  0.061297
H    -3.964806  -2.209095  1.042426
H    -3.397982  -0.771935  0.204517
H    -3.252151  -1.110888  3.181026
H    -3.163369  0.868923  4.387270
H    -3.900622  2.443631  1.480600
H    -4.032224  1.081371  0.463661
O    1.886334  1.054016  0.339083
H    1.648416  0.345655  -0.449527
Cd    -1.081232  2.006632  3.155078
