27
Energy: -170625.889327 eV PBE+vdW (tier 2 basis)
N    -1.594572  -0.694849  0.681577
C    -0.661482  -0.619783  1.872501
C    0.507957  0.329295  1.549335
O    0.452088  1.018528  0.481400
H    -2.549629  -1.049862  1.002264
H    -1.712270  0.239177  0.256411
H    -1.262590  -0.099198  2.647422
C    -0.227058  -2.022769  2.367587
C    -0.303637  -2.183215  3.905890
C    -1.546521  -2.946781  4.444888
N    -2.766803  -2.801258  3.637635
C    -3.279566  -1.606548  3.242570
N    -3.005043  -0.427926  3.736983
N    -4.025863  -1.608731  2.040207
H    0.795320  -2.222742  2.022651
H    -0.861584  -2.779662  1.879817
H    -0.211285  -1.197182  4.381819
H    0.573801  -2.745810  4.250178
H    -1.738784  -2.660076  5.490524
H    -1.339774  -4.023719  4.458380
H    -3.207123  -3.660426  3.313407
H    -2.551831  -0.496523  4.655473
H    -4.735876  -0.869621  2.053532
H    -4.451219  -2.500954  1.776664
O    1.449825  0.408506  2.393163
H    -1.233169  -1.316572  -0.057354
Cd    2.396500  2.060142  1.157941
