27
Energy: -170626.556592 eV PBE+vdW (tier 2 basis)
N    0.229922  0.965044  0.682805
C    0.463970  -0.076884  1.737937
C    1.974341  -0.386076  1.663237
O    2.764503  0.577242  1.686371
H    0.430229  0.613625  -0.262079
H    -0.751115  1.265200  0.702072
H    0.447019  0.466504  2.692027
C    -0.618385  -1.164842  1.916668
C    -1.087933  -1.287085  3.390818
C    -1.836863  -0.087164  4.032257
N    -0.970356  1.091410  4.297379
C    -0.793756  2.173301  3.511321
N    0.317203  2.952953  3.531255
N    -1.720488  2.456014  2.547510
H    -0.290001  -2.156395  1.563877
H    -1.472410  -0.918712  1.267790
H    -0.236769  -1.563827  4.035681
H    -1.781258  -2.138885  3.454611
H    -2.249205  -0.407514  4.997853
H    -2.696084  0.215570  3.421020
H    -0.249329  0.941437  5.004097
H    0.862552  2.847756  4.392496
H    -1.721029  3.435829  2.259835
H    -2.661736  2.085631  2.671461
O    2.459725  -1.600544  1.630451
H    1.763074  -2.290212  1.578767
Cd    1.572957  2.523147  1.794787
