27
Energy: -170627.569535 eV PBE+vdW (tier 2 basis)
N    1.545546  -0.001939  1.223272
C    0.290954  -0.753665  1.657132
C    0.607838  -1.389720  3.015381
O    -0.333008  -1.661831  3.794227
H    1.564254  0.182135  0.208265
H    1.632816  0.904938  1.709016
H    -0.516368  -0.016642  1.757008
C    -0.058340  -1.840672  0.609609
C    -1.459952  -2.499547  0.776160
C    -1.505970  -4.018167  1.048000
N    -1.154723  -4.372274  2.433665
C    -0.002474  -4.856508  2.922380
N    0.234583  -4.989758  4.263812
N    1.028274  -5.177655  2.105730
H    0.744500  -2.594083  0.608114
H    -0.030997  -1.356621  -0.378740
H    -2.021362  -2.343373  -0.155180
H    -2.041760  -1.981783  1.553632
H    -0.874815  -4.578887  0.346271
H    -2.531243  -4.373256  0.875067
H    -1.803085  -4.023798  3.139273
H    -0.636268  -5.067589  4.799885
H    1.700525  -5.837335  2.494685
H    0.893553  -5.240354  1.100997
O    1.838847  -1.713259  3.219637
H    2.372015  -0.571044  1.491908
Cd    1.222500  -3.163950  4.830333
