27
Energy: -170625.759853 eV PBE+vdW (tier 2 basis)
N    0.198434  0.703125  0.053599
C    0.581400  0.515236  1.498116
C    2.122350  0.460714  1.706557
O    2.925215  1.076533  0.876356
H    0.159224  -0.196885  -0.442133
H    -0.742702  1.109513  -0.019941
H    0.291014  1.455795  1.998492
C    -0.207465  -0.607198  2.215112
C    -0.046466  -2.091076  1.817091
C    1.291459  -2.821675  1.995579
N    1.922037  -2.652635  3.372906
C    1.023904  -2.852806  4.608474
N    0.853143  -1.952897  5.476941
N    0.391775  -4.059363  4.586961
H    -1.275069  -0.367406  2.099995
H    -0.017838  -0.477192  3.288973
H    -0.327682  -2.255517  0.763793
H    -0.814149  -2.635138  2.387176
H    2.066463  -2.482382  1.295302
H    1.140221  -3.894094  1.821747
H    2.751101  -3.264890  3.447535
H    1.364052  -1.076150  5.351143
H    0.833614  -4.869940  4.159606
H    -0.133856  -4.268648  5.437061
O    2.574641  -0.101487  2.706283
H    2.273784  -1.663272  3.397491
Cd    1.946109  1.965582  -0.768964
