27
Energy: -170626.177117 eV PBE+vdW (tier 2 basis)
N    -0.648184  -2.004347  0.366971
C    -0.375731  -0.700587  1.085813
C    1.132655  -0.469748  0.862184
O    1.842188  -1.361740  0.427757
H    -1.049261  -1.841343  -0.564784
H    0.309419  -2.417269  0.229441
H    -0.953939  0.096546  0.598961
C    -0.715108  -0.776879  2.582751
C    -2.188289  -1.108012  2.913549
C    -2.489219  -2.574807  3.247053
N    -2.361954  -3.469649  2.090481
C    -2.870600  -4.666538  2.178458
N    -3.452958  -5.304597  3.223774
N    -2.812651  -5.568716  1.032918
H    -0.464567  0.211399  2.991878
H    -0.034055  -1.487566  3.079205
H    -2.863763  -0.756574  2.117410
H    -2.468751  -0.532058  3.807021
H    -3.510344  -2.639105  3.668807
H    -1.798033  -2.911977  4.041115
H    -1.286356  -2.654532  0.925145
H    -3.644539  -4.763826  4.071439
H    -2.808497  -5.069810  0.138467
H    -1.979432  -6.169048  1.067672
O    1.509106  0.752262  1.217167
H    2.478770  0.848938  1.076822
Cd    -4.656718  -6.721296  2.174427
