27
Energy: -170625.976184 eV PBE+vdW (tier 2 basis)
N    -0.482742  -0.696280  0.366419
C    0.422872  -0.417087  1.554982
C    1.856096  -0.884074  1.251218
O    2.688851  -1.051509  2.101908
H    0.007642  -0.461138  -0.509491
H    -1.342286  -0.133174  0.422964
H    0.483453  0.679817  1.643327
C    -0.140335  -0.992121  2.858706
C    -0.188895  -2.524257  3.009148
C    -1.331518  -3.288043  2.317434
N    -1.163415  -3.359784  0.862910
C    -1.602322  -4.406055  0.217851
N    -2.346924  -5.457024  0.640420
N    -1.325284  -4.546553  -1.202351
H    -1.131023  -0.546897  3.046500
H    0.512561  -0.597037  3.649639
H    -0.305715  -2.729056  4.083767
H    0.776562  -2.972491  2.730262
H    -2.298691  -2.800064  2.539201
H    -1.385264  -4.298076  2.761040
H    -0.750765  -1.740523  0.359980
H    -2.560039  -5.527083  1.639075
H    -2.109824  -4.225786  -1.781982
H    -0.479465  -4.046092  -1.490481
O    2.053711  -1.023035  -0.093380
H    3.008829  -1.202667  -0.240302
Cd    -1.714082  -6.953469  -0.743961
