27
Energy: -170625.797802 eV PBE+vdW (tier 2 basis)
N    -0.386775  -0.209926  -0.138393
C    -0.269412  -0.129415  1.285133
C    1.181039  0.174180  1.707352
O    1.576746  0.108722  2.864778
H    -1.259980  -0.542907  -0.540929
H    0.159953  0.419327  -0.723031
H    -0.828873  0.752851  1.682628
C    -0.890254  -1.401161  1.927446
C    -1.073083  -1.396553  3.464002
C    0.029565  -2.175137  4.181469
N    -0.021115  -2.040088  5.670326
C    0.170738  -0.730269  6.278161
N    -0.492409  -0.593505  7.403685
N    0.965185  0.154535  5.688360
H    -0.310640  -2.276900  1.597965
H    -1.882870  -1.509490  1.468686
H    -2.043120  -1.861626  3.700783
H    -1.125645  -0.359687  3.830498
H    1.027019  -1.876435  3.823403
H    -0.065904  -3.251816  3.984918
H    0.695753  -2.664054  6.069019
H    -0.357896  0.246198  7.973161
H    1.073778  1.088211  6.081730
H    1.355965  0.004669  4.748285
O    1.937963  0.570304  0.686106
H    2.836650  0.801033  1.012188
Cd    -1.848524  -2.307641  7.339641
