27
Energy: -170627.542084 eV PBE+vdW (tier 2 basis)
N    -1.493774  0.723743  0.960090
C    -0.538652  1.057647  1.935349
C    0.623779  2.022976  1.281544
O    1.467581  1.530474  0.493727
H    -0.740700  -5.804464  2.566842
H    -1.203029  0.173532  0.153547
H    -1.002275  1.712513  2.681809
C    0.130799  -0.135909  2.649595
C    0.552801  -1.325291  1.776977
C    1.206950  -2.417831  2.643752
N    1.576152  -3.626373  1.892139
C    0.929953  -4.805476  1.900673
N    -0.332391  -4.900978  2.345772
N    1.556277  -5.905958  1.454942
H    -0.613017  -0.467765  3.392571
H    0.988384  0.245000  3.225244
H    1.263356  -1.004218  0.998561
H    -0.323637  -1.749691  1.260529
H    0.551447  -2.719200  3.473293
H    2.128444  -2.037758  3.108274
H    2.440430  -3.592602  1.355610
H    -0.928001  -4.086712  2.441299
H    1.039481  -6.751494  1.230808
H    2.569239  -5.954286  1.399019
O    0.541189  3.234592  1.616361
H    -2.215564  1.410196  0.747554
Cd    2.274144  3.756136  0.232839
