27
Energy: -170627.685114 eV PBE+vdW (tier 2 basis)
N    0.577150  -0.350247  -0.312355
C    -0.035082  0.256049  0.947902
C    1.100617  1.001848  1.659904
O    0.865540  2.070855  2.274313
H    -0.052808  -1.032954  -0.761698
H    0.808588  0.372906  -1.012698
H    -0.835651  0.936039  0.630919
C    -0.524494  -0.895605  1.875196
C    -1.687062  -0.650691  2.864470
C    -1.687320  0.549774  3.834167
N    -0.420452  0.907001  4.491933
C    0.376012  0.213884  5.337173
N    1.665056  0.591300  5.439491
N    -0.129613  -0.839369  6.010207
H    0.353060  -1.291125  2.407756
H    -0.871630  -1.718000  1.228560
H    -1.766087  -1.586239  3.437007
H    -2.632048  -0.571813  2.306017
H    -2.483226  0.387390  4.577715
H    -1.973236  1.463698  3.298913
H    -0.104666  1.851269  4.292144
H    2.158557  0.263193  6.270216
H    0.480110  -1.425543  6.574013
H    -1.118431  -0.863863  6.250127
O    2.217024  0.366581  1.723219
H    1.463357  -0.824075  -0.054741
Cd    2.623184  1.352040  3.700584
