27
Energy: -170625.8464 eV PBE+vdW (tier 2 basis)
N    -0.839213  0.897863  0.336336
C    0.016362  0.223375  1.288194
C    1.365052  -0.132504  0.563772
O    2.320353  -0.630114  1.151675
H    -1.019081  1.886700  0.512039
H    -1.691604  0.407546  0.061531
H    0.308683  0.921897  2.088860
C    -0.679433  -1.018289  1.907609
C    0.127526  -1.827987  2.952145
C    0.863799  -3.022292  2.344137
N    1.778176  -3.720134  3.305421
C    2.869108  -2.989107  3.944924
N    3.147790  -3.460322  5.142273
N    3.462718  -1.995689  3.303451
H    -1.024775  -1.683068  1.098304
H    -1.586193  -0.635057  2.395181
H    -0.583447  -2.202325  3.707863
H    0.820263  -1.158233  3.483251
H    1.442988  -2.740797  1.452234
H    0.148306  -3.791820  2.021927
H    2.204912  -4.515778  2.807546
H    3.950790  -3.094742  5.661205
H    4.205469  -1.464396  3.757595
H    3.117956  -1.622940  2.401867
O    1.403912  0.140354  -0.719166
H    0.522950  0.580858  -0.918368
Cd    1.398564  -4.688033  5.534066
