27
Energy: -170627.618513 eV PBE+vdW (tier 2 basis)
N    1.372546  -0.315318  0.232368
C    1.250508  0.212495  1.529999
C    2.656171  0.121217  2.364979
O    3.121199  1.221326  2.769630
H    1.578264  -1.311067  0.142060
H    -5.865251  2.572900  0.526545
H    1.070999  1.292952  1.467952
C    0.203382  -0.514636  2.400250
C    -1.236360  -0.405159  1.867558
C    -1.859336  0.989456  2.010474
N    -3.261116  0.951411  1.564233
C    -4.000270  2.013255  1.202932
N    -5.178042  1.827250  0.587394
N    -3.548817  3.259856  1.420186
H    0.262385  -0.127366  3.429123
H    0.478274  -1.578437  2.455022
H    -1.841683  -1.125432  2.440835
H    -1.268218  -0.716912  0.812805
H    -1.331187  1.726007  1.386233
H    -1.805512  1.318209  3.062860
H    -3.741679  0.055258  1.620591
H    -5.427590  0.932007  0.178131
H    -4.031614  4.060118  1.021790
H    -2.878876  3.451538  2.158042
O    3.176842  -1.006583  2.543301
H    1.826658  0.257255  -0.476860
Cd    4.923088  0.083873  3.627918
