27
Energy: -170627.441405 eV PBE+vdW (tier 2 basis)
N    1.301224  -0.740703  0.345010
C    0.301461  -0.080778  1.239888
C    1.045618  0.248531  2.549154
O    2.003370  -0.435121  2.951890
H    1.964547  -0.040926  -0.011403
H    0.832788  -1.122637  -0.486042
H    -0.064764  0.853354  0.784684
C    -0.922270  -1.022898  1.529364
C    -0.386823  -2.377510  1.993896
C    -1.219089  -3.599036  2.369690
N    -0.316805  -4.599691  2.999638
C    0.897339  -5.100607  2.623509
N    1.857801  -4.427141  1.949929
N    1.140912  -6.373677  3.001616
H    -1.515708  -1.105365  0.607048
H    -1.567781  -0.550158  2.283183
H    0.223978  -2.196141  2.897287
H    0.222829  -2.759124  1.164396
H    -1.726254  -4.031987  1.494356
H    -1.979175  -3.364008  3.125238
H    -0.782630  -5.170258  3.702467
H    2.577154  -5.069612  1.615546
H    2.089401  -6.733183  3.066508
H    0.387445  -7.030897  3.187614
O    0.641906  1.244339  3.303246
H    -0.072342  1.780581  2.895552
Cd    2.320218  -2.343130  1.803282
