27
Energy: -170626.735704 eV PBE+vdW (tier 2 basis)
N    -0.000218  0.683825  0.399232
C    0.211071  0.543507  1.847949
C    1.697561  0.606362  2.334188
O    2.657480  0.854310  1.591056
H    -0.101202  -0.269406  0.015016
H    -3.445075  2.955191  -0.766901
H    -0.206143  1.459523  2.316906
C    -0.534026  -0.701662  2.409649
C    -2.049883  -0.545240  2.635882
C    -2.938911  -0.357524  1.394556
N    -2.926022  0.997622  0.823959
C    -3.891362  1.920997  0.954037
N    -3.868950  3.005278  0.154392
N    -4.862606  1.801860  1.871226
H    -0.100000  -1.005854  3.374182
H    -0.331230  -1.555423  1.740496
H    -2.236934  0.270957  3.352993
H    -2.386976  -1.467598  3.132608
H    -3.977654  -0.618748  1.634376
H    -2.643534  -1.051279  0.592711
H    -2.066067  1.262325  0.327251
H    -4.488865  3.791159  0.329480
H    -5.715092  2.351112  1.805910
H    -4.794944  1.147998  2.643364
O    1.955430  0.478181  3.619364
H    1.155158  0.285179  4.150630
Cd    1.887806  1.248068  -0.489303
