27
Energy: -170626.048233 eV PBE+vdW (tier 2 basis)
N    0.233876  -1.571379  0.374225
C    -0.180376  -0.875477  1.644025
C    0.944827  0.001551  2.251035
O    2.203842  -0.285146  2.067995
H    -0.297253  -2.441916  0.240853
H    0.034655  -0.985139  -0.446670
H    -0.986199  -0.169377  1.386568
C    -0.687192  -1.937391  2.650417
C    -1.070621  -1.488470  4.076727
C    -2.168256  -0.413592  4.202923
N    -1.585593  0.932459  4.610587
C    -2.612683  2.047749  4.581765
N    -3.513601  1.913993  5.455872
N    -2.385613  2.902930  3.537644
H    0.085539  -2.718760  2.757174
H    -1.560736  -2.425487  2.188510
H    -0.172635  -1.185024  4.636965
H    -1.427001  -2.391811  4.590433
H    -2.906077  -0.662445  4.973157
H    -2.714417  -0.240352  3.266452
H    -1.261432  0.871179  5.588284
H    -4.230055  2.646687  5.475454
H    -3.002048  3.712591  3.476789
H    -1.428386  3.099069  3.247168
O    0.607522  0.954580  2.961304
H    -0.752191  1.117610  3.996911
Cd    2.512036  -1.787400  0.611605
