27
Energy: -170626.106973 eV PBE+vdW (tier 2 basis)
N    0.317903  -0.104370  0.441259
C    -0.051133  -0.383132  1.872927
C    0.731145  0.488678  2.887732
O    1.941574  0.900118  2.627886
H    0.138683  -0.925124  -0.151897
H    -0.254151  0.659109  0.057257
H    -1.109261  -0.107120  2.002912
C    0.165838  -1.886808  2.173079
C    0.018805  -2.323163  3.642390
C    -1.388301  -2.116996  4.244904
N    -1.432786  -2.385335  5.687338
C    -0.970080  -1.571945  6.687493
N    -0.568294  -1.767599  7.871151
N    -1.059413  -0.093235  6.361963
H    1.184459  -2.167365  1.850247
H    -0.531915  -2.458735  1.540087
H    0.767579  -1.808820  4.263283
H    0.272076  -3.392310  3.693145
H    -2.115793  -2.793066  3.775076
H    -1.761646  -1.099853  4.063758
H    -1.464660  -3.370153  5.951433
H    -0.480785  -2.747495  8.160120
H    -0.646080  0.373292  7.186717
H    -2.042922  0.209749  6.283522
O    0.193858  0.714032  3.976267
H    -0.546753  0.207052  5.496881
Cd    2.503191  0.581002  0.605850
