27
Energy: -170627.44874 eV PBE+vdW (tier 2 basis)
N    -0.792689  -1.751289  4.690535
C    0.024954  -1.624758  3.558296
C    1.345580  -0.707565  3.939260
O    2.378165  -1.377364  4.206378
H    -0.537959  -2.438728  5.397057
H    -1.280882  -0.936293  5.056349
H    0.474903  -2.598276  3.331260
C    -0.671166  -1.082486  2.292198
C    -1.532867  0.180979  2.431219
C    -2.505632  0.375808  1.253491
N    -1.867204  0.621332  -0.052851
C    -1.835777  1.788934  -0.719098
N    -2.045884  2.953528  -0.087293
N    -1.567629  1.793144  -2.035329
H    -1.306007  -1.922927  1.963940
H    0.100063  -0.946717  1.518439
H    -0.899193  1.070726  2.566744
H    -2.178385  0.111519  3.320747
H    -3.195300  1.205125  1.458052
H    -3.136337  -0.517499  1.133962
H    -1.544464  -0.192580  -0.571224
H    -2.275020  3.795441  -0.607577
H    -1.332853  2.654235  -2.520701
H    -1.703277  0.964572  -2.606855
O    1.238365  0.540801  3.995449
H    -2.048247  3.018042  0.924196
Cd    3.487027  0.523942  4.802235
