27
Energy: -170625.932805 eV PBE+vdW (tier 2 basis)
N    0.302405  -0.907526  -0.607780
C    0.329221  -0.528880  0.779225
C    1.722128  -0.794445  1.386658
O    1.912838  -1.223558  2.517578
H    1.074816  -0.580230  -1.189298
H    -0.601530  -0.852340  -1.076788
H    0.255402  0.582518  0.883832
C    -0.848266  -1.103280  1.589102
C    -1.155581  -2.611081  1.471623
C    -0.099652  -3.615515  1.956775
N    0.363154  -3.349917  3.334416
C    0.236762  -4.103031  4.417355
N    0.826858  -3.903526  5.584609
N    -0.620936  -5.268499  4.435875
H    -1.751664  -0.567950  1.261488
H    -0.708247  -0.805974  2.638282
H    -1.358833  -2.873479  0.421740
H    -2.096069  -2.787447  2.015470
H    0.795514  -3.592492  1.317316
H    -0.497755  -4.635781  1.892080
H    0.963688  -2.505247  3.384878
H    1.501320  -3.140143  5.684414
H    -1.526304  -5.115467  3.977591
H    -0.174632  -6.078706  3.987042
O    2.692793  -0.432370  0.548713
H    3.568128  -0.548328  0.981364
Cd    -0.213382  -5.262538  6.917679
