27
Energy: -170626.082409 eV PBE+vdW (tier 2 basis)
N    -1.444810  -1.017420  -0.343180
C    -0.935264  -0.069706  0.608845
C    0.546124  0.228800  0.242886
O    1.491405  0.148709  1.019444
H    -1.483530  -0.749151  -1.325752
H    -2.174461  -1.660121  -0.042144
H    -1.445555  0.914673  0.491550
C    -1.103110  -0.563401  2.051195
C    -0.857150  0.530064  3.123643
C    0.035067  0.086827  4.285161
N    1.413707  -0.146937  3.802820
C    2.455808  -0.400918  4.576645
N    2.489972  -0.532197  5.889285
N    3.769210  -0.556024  3.971047
H    -0.446559  -1.434704  2.199803
H    -2.130786  -0.938401  2.155998
H    -1.815549  0.846937  3.555549
H    -0.423541  1.439208  2.679143
H    -0.348221  -0.838831  4.745310
H    0.059796  0.872719  5.056193
H    1.543075  -0.095677  2.772054
H    1.624438  -0.466371  6.429510
H    3.824459  -1.408308  3.398003
H    4.011231  0.234398  3.359860
O    0.655278  0.594134  -1.029840
H    1.597041  0.768014  -1.253169
Cd    4.618874  -0.744628  6.298163
