27
Energy: -170627.500835 eV PBE+vdW (tier 2 basis)
N    0.094709  0.332462  0.650451
C    0.022573  -0.004048  2.038278
C    1.450748  -0.274477  2.722919
O    1.577850  0.117205  3.921263
H    0.456009  -0.418343  0.055273
H    -2.902746  2.426594  -1.095380
H    -0.368018  0.859018  2.595882
C    -0.803779  -1.280352  2.330435
C    -2.190378  -1.359829  1.657041
C    -3.167428  -0.204846  1.906343
N    -2.886091  0.925292  1.001302
C    -3.734790  1.922751  0.719383
N    -3.475047  2.741877  -0.318562
N    -4.829831  2.123441  1.466887
H    -0.913662  -1.357035  3.422090
H    -0.230484  -2.162663  2.006761
H    -2.662389  -2.274020  2.044343
H    -2.089372  -1.516995  0.572620
H    -3.114608  0.123666  2.959041
H    -4.190841  -0.557581  1.710704
H    -1.974206  0.910456  0.529053
H    -4.022430  3.584298  -0.467152
H    -5.565391  2.754517  1.163586
H    -4.939684  1.689749  2.377326
O    2.346874  -0.873139  2.068569
H    0.610561  1.193469  0.456422
Cd    3.681023  -0.715988  3.923207
