27
Energy: -170626.01895 eV PBE+vdW (tier 2 basis)
N    0.813507  -1.654804  -0.352535
C    1.049855  -1.082163  0.940940
C    2.087588  -1.891257  1.810428
O    2.225236  -1.682211  2.992684
H    1.571597  -1.566240  -1.031799
H    0.426859  -2.601475  -0.354069
H    1.551703  -0.108827  0.798407
C    -0.244247  -0.882957  1.752144
C    -1.161511  0.220098  1.208092
C    -1.852412  -0.127049  -0.118851
N    -2.603398  1.015452  -0.644876
C    -3.849979  1.015221  -1.172028
N    -4.613770  2.119405  -1.133568
N    -4.347843  -0.111700  -1.722145
H    0.056060  -0.617083  2.775520
H    -0.785234  -1.840438  1.835139
H    -0.578437  1.149765  1.090951
H    -1.934243  0.425925  1.964651
H    -2.545776  -0.969849  0.015201
H    -1.081408  -0.440011  -0.857844
H    -2.173398  1.931979  -0.518615
H    -4.247112  2.855541  -0.524570
H    -3.754445  -0.911488  -1.917032
H    -5.350698  -0.272905  -1.713689
O    2.778703  -2.770350  1.075895
H    3.441319  -3.217717  1.651341
Cd    -5.788937  2.921560  -2.797884
