27
Energy: -170625.993847 eV PBE+vdW (tier 2 basis)
N    0.841769  1.076256  0.268568
C    0.306832  0.906315  1.572523
C    1.328828  0.257280  2.578099
O    1.182209  0.351683  3.778938
H    1.054354  0.251710  -0.293512
H    1.433133  1.883336  0.075693
H    0.105625  1.901838  1.994054
C    -0.994899  0.048855  1.523788
C    -1.662625  -0.309925  2.862888
C    -2.139101  0.902626  3.683058
N    -2.684115  0.506608  4.994351
C    -3.978545  0.459863  5.368605
N    -4.330266  0.537180  6.665621
N    -4.954220  0.347876  4.438206
H    -0.770748  -0.892953  0.998953
H    -1.691198  0.603893  0.877685
H    -0.984500  -0.911765  3.484847
H    -2.518719  -0.962970  2.631006
H    -2.899794  1.490882  3.150394
H    -1.301795  1.580485  3.900128
H    -1.996721  0.323317  5.724569
H    -3.569702  0.825697  7.286003
H    -4.724529  0.181750  3.463645
H    -5.850698  0.792729  4.615343
O    2.309108  -0.397784  1.953472
H    2.915624  -0.790799  2.622206
Cd    -5.817480  -0.704366  7.657336
