27
Energy: -170625.83773 eV PBE+vdW (tier 2 basis)
N    -1.519215  -0.354414  0.671431
C    -0.264641  -0.539115  1.436948
C    0.877052  -1.008688  0.521705
O    1.850453  -1.608932  0.923562
H    -1.332892  0.187276  -0.179410
H    -2.176985  0.195800  1.235294
H    0.101563  0.444011  1.796380
C    -0.439241  -1.439727  2.670719
C    -0.721610  -2.937815  2.425066
C    -2.152933  -3.361257  2.075902
N    -2.584807  -2.851997  0.756117
C    -3.435717  -3.462375  -0.040378
N    -4.098899  -4.595674  0.164072
N    -3.743922  -2.891778  -1.344940
H    -1.215721  -0.999002  3.316480
H    0.495713  -1.370456  3.242765
H    -0.487118  -3.464186  3.362228
H    -0.022502  -3.345586  1.679438
H    -2.866711  -3.004551  2.837151
H    -2.198866  -4.460184  2.062220
H    -2.226948  -1.844963  0.530987
H    -4.022878  -5.088230  1.056636
H    -2.906923  -2.565075  -1.842795
H    -4.390458  -2.095763  -1.267016
O    0.694604  -0.628720  -0.764501
H    1.511045  -0.848959  -1.266525
Cd    -4.918062  -5.022771  -1.772799
