27
Energy: -170627.121829 eV PBE+vdW (tier 2 basis)
N    -0.033792  0.973276  1.644472
C    0.551694  -0.079269  2.545403
C    2.063399  0.207307  2.534859
O    2.423678  1.379175  2.759346
H    0.368591  0.919652  0.699773
H    -1.040670  0.825146  1.531412
H    0.302678  0.222421  3.576482
C    -0.068473  -1.470054  2.421380
C    -1.569297  -1.443725  2.832671
C    -1.933514  -0.789669  4.187252
N    -1.837061  0.692241  4.150653
C    -1.341667  1.518136  5.125537
N    -0.779795  2.679624  4.745331
N    -1.387402  1.115747  6.405465
H    0.465917  -2.152816  3.102163
H    0.022655  -1.876964  1.402379
H    -1.914496  -2.486162  2.879615
H    -2.183521  -0.994659  2.033610
H    -1.264760  -1.145973  4.984767
H    -2.955360  -1.095469  4.456216
H    -2.384799  1.176083  3.440277
H    -0.695637  3.374201  5.491281
H    -0.870792  1.611475  7.129098
H    -2.111246  0.473331  6.723677
O    2.974695  -0.714106  2.352656
H    2.596916  -1.597098  2.150207
Cd    0.567240  2.674494  3.080753
