27
Energy: -170625.955852 eV PBE+vdW (tier 2 basis)
N    -0.933282  -2.354031  1.221904
C    -0.623394  -0.949105  1.498316
C    0.889669  -0.610913  1.225866
O    1.165993  0.574597  0.862229
H    -0.332335  -2.965347  1.788450
H    -2.566023  -2.875087  1.371757
H    -1.183790  -0.316332  0.796780
C    -0.921713  -0.550279  2.967153
C    -2.262292  0.162753  3.227628
C    -3.550324  -0.637751  2.992578
N    -3.965479  -0.684493  1.576434
C    -4.289691  -1.777112  0.818232
N    -4.922709  -1.936860  -0.268186
N    -3.641500  -3.041650  1.304872
H    -0.139448  0.135448  3.321731
H    -0.827955  -1.451431  3.594816
H    -2.306659  1.103620  2.656698
H    -2.256568  0.462282  4.286524
H    -4.367400  -0.172838  3.565628
H    -3.446277  -1.656216  3.389566
H    -4.387521  0.179236  1.233140
H    -5.374673  -1.100655  -0.652636
H    -3.861651  -3.743206  0.579538
H    -4.024331  -3.379165  2.199477
O    1.763081  -1.513093  1.404107
H    -0.722378  -2.582972  0.243341
Cd    3.348131  0.016607  0.832054
