27
Energy: -170627.353442 eV PBE+vdW (tier 2 basis)
N    1.474047  0.101444  1.586535
C    0.372772  0.202171  2.461582
C    0.750118  1.071750  3.792373
O    0.047994  2.107527  3.954633
H    1.621510  0.874404  0.938802
H    2.348324  -0.261931  1.964052
H    -0.410998  0.798351  1.980877
C    -0.240178  -1.136675  2.946840
C    0.704270  -2.302216  3.291580
C    1.242738  -3.078313  2.058477
N    1.132662  -4.542855  2.184485
C    2.116471  -5.405993  2.488053
N    3.252808  -4.978199  3.063994
N    1.971077  -6.707777  2.197764
H    -0.925215  -1.448984  2.141874
H    -0.881770  -0.918718  3.812325
H    0.123723  -3.006451  3.905217
H    1.528860  -1.960836  3.938424
H    2.290992  -2.845262  1.829818
H    0.671420  -2.808706  1.159642
H    0.231000  -4.955410  1.953041
H    4.064691  -5.586257  3.120525
H    2.553443  -7.415138  2.636998
H    1.286546  -7.027465  1.518507
O    1.674376  0.684324  4.547524
H    3.275535  -4.123533  3.608857
Cd    1.212676  2.643733  5.826118
