27
Energy: -170627.841336 eV PBE+vdW (tier 2 basis)
N    -0.177545  0.403313  -0.099442
C    -0.196900  0.518276  1.417732
C    1.251996  0.454842  1.897527
O    1.999460  -0.416329  1.376152
H    0.087588  1.294130  -0.549627
H    0.536627  -0.304523  -0.359190
H    -0.682133  1.464854  1.684653
C    -0.909461  -0.725720  2.020267
C    -0.785961  -0.829167  3.563921
C    -0.434317  -2.218566  4.131335
N    0.713666  -2.949106  3.511159
C    1.895977  -3.224444  4.152875
N    2.631359  -2.237383  4.688127
N    2.303961  -4.504212  4.194065
H    -0.451581  -1.610490  1.549396
H    -1.968867  -0.697243  1.726139
H    -1.742032  -0.544160  4.025559
H    -0.071479  -0.088638  3.945155
H    -1.297412  -2.890780  4.030984
H    -0.236764  -2.114527  5.206298
H    0.418009  -3.712666  2.904944
H    3.341836  -2.561128  5.347155
H    3.267168  -4.745819  4.417003
H    1.644649  -5.276112  4.121350
O    1.544186  1.126157  2.948140
H    -1.092486  0.118546  -0.482475
Cd    2.896797  -0.440566  3.626404
