27
Energy: -170625.842629 eV PBE+vdW (tier 2 basis)
N    -0.282314  0.374249  -0.363451
C    -0.210425  0.227627  1.155300
C    1.289151  0.102373  1.515126
O    1.579779  -0.197488  2.708824
H    -1.026175  1.020884  -0.662744
H    -0.441626  -0.533634  -0.825420
H    -0.530075  1.198219  1.565594
C    -1.117441  -0.878477  1.706065
C    -0.785168  -2.311328  1.261645
C    -1.627103  -3.401341  1.968455
N    -3.038811  -3.420784  1.605828
C    -4.048805  -2.774125  2.273162
N    -3.911248  -1.971831  3.315379
N    -5.313341  -2.903885  1.785031
H    -2.161297  -0.616592  1.469491
H    -1.022321  -0.795151  2.799218
H    0.269407  -2.539922  1.484569
H    -0.916303  -2.444647  0.173199
H    -1.528859  -3.311427  3.060381
H    -1.213690  -4.384582  1.708556
H    -3.292169  -3.995836  0.804387
H    -2.984971  -2.043779  3.749623
H    -6.049092  -2.485416  2.351663
H    -5.583722  -3.653311  1.154010
O    2.133224  0.365603  0.604963
H    0.646446  0.724721  -0.682057
Cd    3.831085  0.088372  2.291401
