27
Energy: -170627.697936 eV PBE+vdW (tier 2 basis)
N    0.788102  -0.055040  0.320305
C    -0.333847  0.113489  1.338636
C    0.327837  0.556582  2.646032
O    1.448809  0.006287  2.931788
H    1.582331  -0.528149  0.787921
H    0.490361  -0.611526  -0.493982
H    -1.008179  0.891667  0.961558
C    -1.057734  -1.243817  1.508115
C    -2.393072  -1.261676  2.283817
C    -2.388001  -1.147507  3.821054
N    -1.595190  -2.186747  4.488554
C    -0.583554  -1.977579  5.356930
N    -0.394660  -0.813525  6.019093
N    0.307089  -2.965139  5.571153
H    -0.348250  -1.969373  1.936503
H    -1.295663  -1.600511  0.493064
H    -2.891366  -2.202614  2.007382
H    -3.056052  -0.467208  1.910222
H    -3.429468  -1.212082  4.166074
H    -2.010930  -0.170950  4.138089
H    -1.855996  -3.152814  4.299518
H    -1.263280  -0.283900  6.115229
H    0.808817  -2.975012  6.453302
H    0.288919  -3.829784  5.041837
O    -0.298949  1.323054  3.416634
H    1.131104  0.852640  -0.026895
Cd    1.045822  0.479237  5.126068
