27
Energy: -170626.834977 eV PBE+vdW (tier 2 basis)
N    0.155387  -0.317737  0.448706
C    0.304364  0.127670  1.824346
C    1.767300  0.370749  2.169666
O    2.326447  0.238281  3.300145
H    0.777524  0.174293  -0.195095
H    -0.797853  -0.145351  0.121815
H    -0.101621  1.153447  2.014911
C    -0.474553  -0.822275  2.770495
C    -0.087301  -2.308609  2.662570
C    -0.987620  -3.300370  3.423739
N    -1.378676  -2.936894  4.811051
C    -0.587122  -2.468337  5.787036
N    0.776959  -2.621889  5.783168
N    -1.111782  -1.780084  6.815795
H    -1.537606  -0.709504  2.504751
H    -0.442711  -0.423132  3.805917
H    0.979092  -2.481322  2.910395
H    -0.135772  -2.590976  1.600025
H    -0.534573  -4.302988  3.415235
H    -1.941448  -3.395299  2.888808
H    -2.370919  -3.041067  5.026844
H    1.049782  -3.487251  5.305325
H    -0.589300  -1.759398  7.690638
H    -2.101993  -1.548463  6.863896
O    2.460660  0.867041  1.180326
H    3.381351  1.091372  1.455783
Cd    1.743093  -1.051954  4.838681
