27
Energy: -170626.075956 eV PBE+vdW (tier 2 basis)
N    -0.952350  0.415924  -0.131803
C    -0.815684  0.370725  1.317044
C    0.542351  -0.301704  1.629962
O    0.833900  -0.704139  2.760193
H    -1.537268  -0.323712  -0.526140
H    -1.238676  1.320363  -0.510443
H    -1.589699  -0.252444  1.792792
C    -0.852757  1.802955  1.923926
C    -0.382056  1.936901  3.387527
C    1.123684  2.263828  3.512597
N    1.669094  1.885597  4.836564
C    2.444323  0.848372  5.146229
N    2.782757  0.456121  6.364526
N    3.022662  0.007892  4.116521
H    -1.897015  2.137691  1.854595
H    -0.268536  2.476412  1.274345
H    -0.604770  1.012969  3.939699
H    -0.958614  2.739217  3.868238
H    1.301207  3.341817  3.393748
H    1.723407  1.761622  2.745680
H    1.313623  2.429700  5.625772
H    2.410619  0.935196  7.188859
H    2.261507  -0.439404  3.510226
H    3.641303  0.540366  3.489301
O    1.392316  -0.338773  0.624556
H    0.840139  -0.018665  -0.163706
Cd    4.018946  -1.244642  5.863356
