27
Energy: -170625.890046 eV PBE+vdW (tier 2 basis)
N    0.148719  -0.321568  0.027213
C    0.024549  0.013278  1.439299
C    1.426849  0.236650  2.112971
O    1.507737  1.208757  2.927011
H    -1.083257  -1.794208  -0.312260
H    0.060569  0.500262  -0.575983
H    -0.501056  0.972064  1.532596
C    -0.778177  -1.020717  2.274667
C    -0.386183  -2.510579  2.269318
C    -0.325623  -3.262320  0.925224
N    -1.376988  -2.775960  -0.045669
C    -1.692263  -3.598847  -1.279340
N    -2.937330  -3.795650  -1.387789
N    -0.602967  -3.838550  -2.064557
H    -1.821507  -0.893913  1.940955
H    -0.785776  -0.679176  3.320181
H    -1.115009  -3.017857  2.918964
H    0.590409  -2.660561  2.753326
H    -0.482629  -4.337278  1.079350
H    0.646435  -3.121943  0.434463
H    -2.308845  -2.726940  0.401131
H    -3.234367  -4.335016  -2.207951
H    -0.756889  -4.414402  -2.890876
H    0.317760  -3.958946  -1.650298
O    2.388928  -0.540456  1.842877
H    1.040444  -0.774973  -0.190789
Cd    3.664252  0.749901  3.290232
