27
Energy: -170625.429828 eV PBE+vdW (tier 2 basis)
N    0.399248  1.314681  0.253051
C    -0.069447  0.303825  1.232816
C    1.145734  -0.357803  1.919238
O    2.259072  -0.447495  1.393196
H    -0.261343  1.406508  -0.526245
H    0.473623  2.245048  0.681794
H    -0.664209  0.805341  2.017001
C    -0.908164  -0.801305  0.536382
C    -2.366944  -0.414102  0.217759
C    -3.332461  -0.644756  1.394043
N    -4.671887  -0.216056  1.049045
C    -5.870549  -0.794037  1.395299
N    -6.901879  -0.295987  0.741880
N    -5.890871  -1.790661  2.319592
H    -0.892784  -1.713969  1.151482
H    -0.388104  -1.079400  -0.394591
H    -2.709336  -1.020048  -0.633078
H    -2.431720  0.637391  -0.111062
H    -2.986817  -0.111450  2.303031
H    -3.359750  -1.719556  1.636556
H    -4.806295  0.564927  0.404846
H    -7.790971  -0.759999  0.968815
H    -6.784771  -2.213060  2.555701
H    -5.157397  -1.902723  3.013637
O    0.978018  -0.912698  3.104733
H    0.090773  -0.747068  3.485978
Cd    2.628878  0.701207  -0.550170
