27
Energy: -170626.040015 eV PBE+vdW (tier 2 basis)
N    -0.613262  -0.277139  -0.349426
C    -0.617506  -0.287919  1.079245
C    0.800736  -0.083699  1.710273
O    1.063794  -0.349942  2.876237
H    -0.264755  -1.101033  -0.839756
H    -0.420254  0.600459  -0.830574
H    -1.165997  0.615660  1.406144
C    -1.298218  -1.565783  1.648961
C    -2.387690  -1.329379  2.711887
C    -1.965557  -0.616250  4.006558
N    -0.838568  -1.264496  4.702927
C    -0.911899  -2.095035  5.732966
N    -1.981541  -2.559901  6.349129
N    0.319958  -2.572359  6.336404
H    -0.531428  -2.259192  2.023461
H    -1.785364  -2.073398  0.805859
H    -2.825336  -2.308527  2.961160
H    -3.206732  -0.735557  2.276499
H    -2.817364  -0.534198  4.694841
H    -1.633586  0.413458  3.810861
H    0.075012  -1.067818  4.262011
H    -2.912036  -2.330569  5.993897
H    1.002540  -1.819827  6.490519
H    0.775901  -3.289493  5.757796
O    1.666470  0.440310  0.849826
H    2.528837  0.591667  1.299792
Cd    -1.145089  -3.525121  8.120535
