27
Energy: -170626.065407 eV PBE+vdW (tier 2 basis)
N    0.356049  0.405511  -0.164907
C    0.378359  -0.132533  1.151444
C    1.768067  0.028339  1.856413
O    1.952868  -0.259536  3.028317
H    0.832968  -0.086629  -0.920040
H    0.271370  1.412007  -0.296632
H    -0.310278  0.460682  1.776185
C    -0.085418  -1.618736  1.151306
C    -0.425447  -2.212239  2.537806
C    0.678521  -3.134992  3.090462
N    0.418045  -3.605065  4.461691
C    0.564694  -2.888291  5.593102
N    0.046569  -3.328460  6.769296
N    1.208373  -1.706368  5.573696
H    0.659780  -2.237247  0.625170
H    -0.987741  -1.633786  0.526684
H    -1.353887  -2.794159  2.451527
H    -0.637380  -1.406921  3.257009
H    1.664959  -2.652654  3.068027
H    0.758731  -4.040209  2.474854
H    0.074638  -4.557438  4.566735
H    -0.547306  -4.155141  6.656467
H    0.991999  -1.043333  6.312549
H    1.547575  -1.294732  4.700342
O    2.702132  0.510189  1.039984
H    3.549677  0.605840  1.531895
Cd    1.202353  -3.511959  8.598740
