27
Energy: -170626.095279 eV PBE+vdW (tier 2 basis)
N    -0.286404  -0.887561  -0.560476
C    -0.129526  -0.040579  0.609853
C    1.363100  0.421028  0.830671
O    1.538728  1.605080  1.255869
H    -1.772620  -1.999859  -0.261193
H    -0.281885  -0.358934  -1.437736
H    -0.699969  0.887515  0.468556
C    -0.569985  -0.766956  1.904927
C    -2.091991  -0.748180  2.185701
C    -3.064271  -1.062728  1.041516
N    -2.647943  -2.291835  0.265478
C    -3.647128  -2.955645  -0.654731
N    -3.770184  -4.187595  -0.388585
N    -4.109580  -2.131705  -1.636890
H    -0.087260  -0.301312  2.775373
H    -0.177423  -1.795992  1.865191
H    -2.381411  0.244174  2.562100
H    -2.274566  -1.444974  3.018109
H    -3.112290  -0.236706  0.318570
H    -4.072905  -1.236232  1.437174
H    -2.409627  -3.071806  0.901864
H    -4.426406  -4.707300  -0.981014
H    -4.824502  -2.509378  -2.256145
H    -4.174874  -1.127694  -1.492840
O    2.302662  -0.396708  0.608707
H    0.458623  -1.591153  -0.619893
Cd    3.756725  1.240306  1.266848
