27
Energy: -170625.898074 eV PBE+vdW (tier 2 basis)
N    -0.226178  1.399751  1.011847
C    0.108612  0.353294  1.950471
C    1.642540  0.043704  1.820859
O    2.167997  -0.927801  2.359167
H    -0.685262  2.228320  1.389003
H    -0.640640  1.104029  0.126478
H    0.006196  0.775933  2.963769
C    -0.721711  -0.959526  1.821179
C    -1.281830  -1.545765  3.134175
C    -0.300092  -1.888694  4.267871
N    0.822918  -2.744006  3.836750
C    1.161852  -3.956406  4.235769
N    2.247901  -4.626783  3.878044
N    0.334816  -4.725521  5.154389
H    -0.134376  -1.715124  1.279489
H    -1.592195  -0.743676  1.186653
H    -1.853634  -2.447786  2.865577
H    -2.012532  -0.844986  3.568695
H    -0.847701  -2.367311  5.089147
H    0.159013  -0.979946  4.686617
H    1.476405  -2.218578  3.207035
H    2.931617  -4.188483  3.254513
H    -0.620552  -4.864547  4.801474
H    0.259108  -4.275334  6.075885
O    2.341982  0.898878  1.112233
H    1.683268  1.564392  0.760932
Cd    2.034393  -6.504317  4.913492
