27
Energy: -170628.162133 eV PBE+vdW (tier 2 basis)
N    -2.080838  0.303146  1.696389
C    -1.367095  -0.804161  2.391783
C    -0.056949  -0.227550  2.949456
O    0.510227  0.736492  2.412680
H    -2.861377  -0.072130  1.149218
H    -2.500035  0.944689  2.378875
H    -1.978500  -1.179017  3.227986
C    -1.068007  -1.996600  1.438649
C    -0.141960  -1.740570  0.227750
C    -0.841027  -1.294039  -1.082521
N    0.088032  -0.814164  -2.098688
C    0.389214  0.477904  -2.373938
N    0.068096  1.476651  -1.540846
N    1.026513  0.729241  -3.530332
H    -2.036457  -2.404115  1.108272
H    -0.625620  -2.789406  2.057184
H    0.390804  -2.676664  0.011950
H    0.674761  -1.042426  0.485482
H    -1.603820  -0.514597  -0.931717
H    -1.391412  -2.144383  -1.507501
H    0.519189  -1.515342  -2.692719
H    0.184972  2.399651  -1.952740
H    1.048520  0.055462  -4.287851
H    1.462669  1.626725  -3.706546
O    0.521846  -0.788229  3.980823
H    -0.001958  -1.505937  4.390401
Cd    -0.414787  1.335370  0.479504
