27
Energy: -170626.063824 eV PBE+vdW (tier 2 basis)
N    0.229753  0.396021  0.394978
C    0.303327  -0.052968  1.770113
C    1.718716  -0.701101  1.986471
O    2.092173  -1.159887  3.062029
H    0.152821  1.403672  0.254151
H    -0.416853  -0.112738  -0.210358
H    0.301966  0.822752  2.439894
C    -0.863913  -0.996021  2.152226
C    -0.897538  -1.475002  3.623529
C    -0.376696  -2.912498  3.797103
N    -0.206284  -3.307323  5.211328
C    0.908924  -3.126751  5.919772
N    2.008268  -2.519859  5.533637
N    0.992409  -3.672502  7.261601
H    -0.876070  -1.858028  1.464392
H    -1.782788  -0.430632  1.945422
H    -1.937137  -1.433873  3.979047
H    -0.326187  -0.786253  4.262736
H    0.591136  -3.061935  3.302094
H    -1.079543  -3.635027  3.361161
H    -1.016103  -3.697150  5.692496
H    2.054162  -2.018814  4.625831
H    0.641265  -4.636145  7.329073
H    0.473028  -3.101832  7.941920
O    2.498598  -0.699130  0.930133
H    1.952723  -0.246990  0.213895
Cd    3.406622  -3.043362  7.095520
