27
Energy: -170625.775243 eV PBE+vdW (tier 2 basis)
N    0.247533  -0.113605  -0.243568
C    -0.094194  -0.043002  1.246764
C    1.260527  0.107653  1.978807
O    1.227798  0.229694  3.237687
H    -0.050824  -1.001239  -0.673215
H    -0.153488  0.659327  -0.791950
H    -0.653901  0.889150  1.407080
C    -0.883566  -1.272644  1.720236
C    -2.350984  -1.349558  1.258400
C    -3.285305  -0.411026  2.038224
N    -4.664274  -0.586020  1.593756
C    -5.670523  0.319205  1.850078
N    -5.555268  1.477807  2.472948
N    -6.922322  0.002611  1.427353
H    -0.837617  -1.268605  2.819136
H    -0.342282  -2.180366  1.407060
H    -2.676960  -2.390057  1.411346
H    -2.457075  -1.158807  0.176830
H    -3.006760  0.640883  1.868428
H    -3.188515  -0.609042  3.120766
H    -4.949650  -1.544965  1.396576
H    -4.594848  1.683537  2.767875
H    -7.659784  0.669992  1.644725
H    -7.137384  -0.781307  0.818893
O    2.312802  0.106041  1.272486
H    1.295953  -0.052729  -0.284317
Cd    3.515312  0.400502  3.387037
