27
Energy: -170626.586594 eV PBE+vdW (tier 2 basis)
N    0.381126  -0.310495  0.195159
C    0.203263  -0.240903  1.654192
C    1.514718  -0.190989  2.500878
O    2.641232  -0.010111  2.014277
H    0.311783  -1.303642  -0.080142
H    -1.276615  0.512398  -0.538692
H    -0.240234  0.751959  1.870808
C    -0.757456  -1.356650  2.149641
C    -2.087754  -1.463649  1.382043
C    -3.173155  -0.429280  1.690148
N    -2.871060  1.019846  1.458753
C    -2.838935  1.614229  0.236122
N    -2.130722  1.057279  -0.755823
N    -3.489844  2.769812  0.046105
H    -0.991576  -1.209183  3.217988
H    -0.232578  -2.323133  2.082978
H    -2.538381  -2.431545  1.649968
H    -1.915931  -1.531330  0.298224
H    -3.435636  -0.483094  2.755092
H    -4.078742  -0.693215  1.123981
H    -3.249132  1.623412  2.187942
H    -2.246820  1.396562  -1.707379
H    -3.289338  3.368871  -0.751367
H    -4.266308  3.045264  0.642599
O    1.436043  -0.257860  3.813252
H    0.526718  -0.444986  4.126047
Cd    2.461151  0.094179  -0.226267
