27
Energy: -170625.996199 eV PBE+vdW (tier 2 basis)
N    -0.470873  0.712377  1.993120
C    0.274329  -0.417327  2.483192
C    1.768737  -0.279868  2.158785
O    2.536365  -1.227885  2.025159
H    -1.479084  0.689181  2.143821
H    -0.063711  1.637112  2.132454
H    0.288362  -0.427289  3.601436
C    -0.360738  -1.753351  2.046956
C    -0.552487  -1.949623  0.528622
C    0.601900  -2.604969  -0.240300
N    0.845935  -3.995995  0.213834
C    1.968798  -4.541573  0.679260
N    2.153647  -5.810193  0.995139
N    3.143545  -3.734196  0.913658
H    -1.347291  -1.798354  2.530629
H    0.213797  -2.576190  2.496325
H    -0.746058  -0.977113  0.047955
H    -1.464435  -2.541839  0.357745
H    1.535930  -2.042543  -0.146382
H    0.353043  -2.653740  -1.310398
H    0.053190  -4.631707  0.099680
H    1.405767  -6.493125  0.848116
H    3.592098  -3.460512  0.028993
H    2.926931  -2.854940  1.434533
O    2.154763  0.993813  2.114421
H    3.127479  1.044975  1.983016
Cd    4.134221  -5.744595  1.893979
