27
Energy: -170625.912271 eV PBE+vdW (tier 2 basis)
N    -1.198971  2.243862  -0.052781
C    -0.567675  1.601188  1.060123
C    0.948992  1.438070  0.772625
O    1.617919  0.489153  1.156949
H    -0.821447  3.123350  -0.401545
H    -2.189114  2.085315  -0.221884
H    -0.580510  2.274906  1.952372
C    -1.258839  0.265663  1.417602
C    -1.364034  -0.086768  2.913840
C    -0.069528  -0.269611  3.723080
N    0.847447  -1.274188  3.149826
C    1.194543  -2.461609  3.626075
N    2.055036  -3.306472  3.086537
N    0.632623  -2.976440  4.863002
H    -0.788243  -0.547514  0.846180
H    -2.292552  0.321061  1.048103
H    -1.964245  -1.006522  2.989641
H    -1.943497  0.692482  3.434541
H    -0.322839  -0.546319  4.753807
H    0.505151  0.666352  3.784381
H    1.302626  -0.928726  2.286743
H    2.530062  -3.053208  2.216063
H    0.844875  -2.373239  5.667471
H    -0.388578  -3.079921  4.816589
O    1.435215  2.473529  0.094149
H    2.399354  2.350953  -0.055887
Cd    2.083247  -4.970833  4.489494
