27
Energy: -170626.818178 eV PBE+vdW (tier 2 basis)
N    1.776773  -0.204913  3.934108
C    0.771302  -1.241129  3.717087
C    1.312476  -2.703128  3.563481
O    2.499938  -3.012519  3.698512
H    1.929214  0.293362  3.043771
H    -1.934960  3.298631  2.058818
H    0.202661  -1.320085  4.669546
C    -0.220177  -0.858713  2.585092
C    -1.077687  0.369117  2.945765
C    -2.260836  0.617525  1.995622
N    -1.899764  1.112138  0.654566
C    -2.044765  2.376756  0.214407
N    -2.160354  3.398025  1.075430
N    -2.054963  2.620626  -1.105716
H    -0.902727  -1.700150  2.376556
H    0.352422  -0.697993  1.655630
H    -0.449679  1.270626  3.018850
H    -1.509397  0.218831  3.948220
H    -2.960153  1.335732  2.444147
H    -2.839408  -0.306717  1.848372
H    -1.667389  0.420394  -0.054095
H    -2.496505  4.305983  0.766969
H    -1.955394  3.565639  -1.465979
H    -2.287874  1.895107  -1.777476
O    0.449605  -3.684397  3.361914
H    -0.473084  -3.363068  3.302267
Cd    3.674341  -1.131154  4.287701
