27
Energy: -170627.001334 eV PBE+vdW (tier 2 basis)
N    -0.019379  0.136104  0.415358
C    -0.484228  0.133424  1.765379
C    0.494278  0.621973  2.855183
O    0.136851  1.121848  3.967475
H    0.279770  1.047620  0.069145
H    0.700241  -0.561131  0.216432
H    -1.321033  0.865899  1.825865
C    -1.014727  -1.281645  2.160258
C    -2.229892  -1.737883  1.328796
C    -3.593269  -1.127912  1.694464
N    -4.100232  -1.585560  3.008060
C    -4.003163  -0.938589  4.177168
N    -3.865663  0.426840  4.271993
N    -4.031486  -1.616505  5.337690
H    -1.233674  -1.341545  3.243268
H    -0.189841  -1.994763  2.006130
H    -2.297905  -2.834185  1.393899
H    -2.041127  -1.509810  0.269360
H    -4.339406  -1.422087  0.944829
H    -3.575665  -0.030725  1.683032
H    -4.446113  -2.546897  3.034694
H    -4.323663  0.909502  3.492781
H    -4.050888  -2.634258  5.367294
H    -4.355444  -1.126093  6.170288
O    1.758284  0.516385  2.568094
H    2.332507  0.850545  3.299312
Cd    -1.914120  1.080901  4.453179
