27
Energy: -170625.952355 eV PBE+vdW (tier 2 basis)
N    0.209467  0.897284  -0.057223
C    -0.078131  0.611679  1.305922
C    1.148443  0.031114  2.095984
O    1.211435  0.096283  3.306711
H    0.700309  1.760939  -0.283314
H    0.418133  0.122253  -0.687098
H    -0.307560  1.559393  1.814326
C    -1.277864  -0.377269  1.411382
C    -1.678372  -0.872720  2.810383
C    -2.099343  0.233585  3.783930
N    -2.549329  -0.370411  5.056229
C    -3.090084  0.303251  6.071967
N    -3.329628  1.592279  6.139418
N    -3.505004  -0.412637  7.259218
H    -1.051253  -1.262048  0.797030
H    -2.127039  0.125668  0.925665
H    -0.857757  -1.452532  3.260573
H    -2.523046  -1.564786  2.667100
H    -2.934717  0.820023  3.367634
H    -1.254996  0.906861  4.002094
H    -2.350207  -1.360804  5.195284
H    -3.039837  2.196463  5.367293
H    -2.703190  -0.736787  7.815014
H    -4.093537  -1.228545  7.051169
O    2.047091  -0.541878  1.291746
H    2.786893  -0.898526  1.834279
Cd    -4.459350  1.804897  8.022406
