27
Energy: -170626.060647 eV PBE+vdW (tier 2 basis)
N    1.207151  -1.738370  0.632267
C    0.749123  -0.736921  1.618771
C    1.746167  -0.636217  2.772675
O    2.440529  -1.563136  3.210995
H    0.521223  -1.787712  -0.128360
H    2.076807  -1.418847  0.191098
H    0.698345  0.271192  1.170783
C    -0.666326  -1.045013  2.180960
C    -0.816338  -2.285208  3.079260
C    -0.813798  -3.635978  2.319120
N    -0.070993  -4.713850  3.006713
C    1.250589  -4.877290  3.027653
N    1.921696  -5.794421  3.713503
N    2.113773  -4.015132  2.264954
H    -1.360706  -1.094947  1.326831
H    -0.979936  -0.161822  2.755062
H    -1.760550  -2.190366  3.632536
H    -0.031561  -2.297894  3.850407
H    -0.395290  -3.534834  1.312482
H    -1.833271  -4.019728  2.192821
H    -0.620406  -5.356540  3.578749
H    1.433897  -6.435978  4.343928
H    2.268386  -3.050202  2.741684
H    1.736636  -3.699029  1.344469
O    1.759128  0.577119  3.301897
H    2.370059  0.600469  4.073542
Cd    3.842498  -5.474646  2.786530
