27
Energy: -170625.97886 eV PBE+vdW (tier 2 basis)
N    0.314110  0.658052  -0.062790
C    -0.242455  0.380521  1.331530
C    0.991352  0.044967  2.211318
O    0.791700  -0.358889  3.391639
H    0.211994  -0.155847  -0.687694
H    -0.129740  1.467750  -0.518613
H    -0.632873  1.341181  1.702530
C    -1.360991  -0.673176  1.283227
C    -2.199774  -0.721653  2.571311
C    -3.342183  -1.742573  2.480956
N    -4.094891  -1.744320  3.720842
C    -5.043808  -2.645465  4.129415
N    -5.482610  -2.432290  5.357635
N    -5.418335  -3.645082  3.290936
H    -0.922355  -1.662158  1.070151
H    -2.020754  -0.419607  0.436236
H    -2.626732  0.276418  2.763236
H    -1.555431  -0.973512  3.425180
H    -2.938304  -2.755841  2.302138
H    -4.009972  -1.498081  1.632113
H    -3.928932  -1.023165  4.423753
H    -6.173546  -3.129793  5.662871
H    -6.146197  -4.287965  3.588264
H    -5.199247  -3.644690  2.299339
O    2.132418  0.243288  1.693045
H    1.339660  0.828468  0.068277
Cd    3.088548  -0.393773  3.842508
