27
Energy: -170625.993009 eV PBE+vdW (tier 2 basis)
N    0.104437  1.195158  0.595507
C    -0.072612  0.377520  1.748348
C    1.299868  -0.186137  2.296803
O    1.384519  -1.226272  2.912068
H    0.251336  0.738223  -0.305008
H    0.613224  2.072421  0.699715
H    -0.417633  1.027737  2.574676
C    -1.090579  -0.754580  1.495205
C    -1.676363  -1.362507  2.780776
C    -2.676666  -2.477543  2.462421
N    -3.206138  -3.053796  3.716765
C    -4.086396  -4.053624  3.787327
N    -4.646960  -4.698904  2.792573
N    -4.514767  -4.530213  5.086870
H    -0.614572  -1.540228  0.886824
H    -1.899929  -0.317389  0.892208
H    -2.185864  -0.572839  3.357427
H    -0.865761  -1.772064  3.401064
H    -2.185536  -3.281606  1.890041
H    -3.522140  -2.090009  1.870714
H    -2.859892  -2.661999  4.591598
H    -4.413087  -4.438322  1.831761
H    -4.991391  -3.802146  5.633649
H    -3.733866  -4.885512  5.652580
O    2.307701  0.646437  2.022874
H    3.136438  0.291403  2.417959
Cd    -5.937127  -6.181071  3.807858
