27
Energy: -170625.75088 eV PBE+vdW (tier 2 basis)
N    1.563035  0.808842  1.538165
C    1.235324  -0.361009  2.302136
C    2.496864  -1.248734  2.570524
O    2.513460  -2.472245  2.518901
H    2.140461  1.522784  1.981327
H    1.749027  0.693438  0.541595
H    0.943292  -0.014795  3.311480
C    0.069132  -1.150013  1.656984
C    -0.944084  -1.764550  2.648673
C    -0.509145  -2.909191  3.576695
N    -0.855095  -4.291131  3.091053
C    -0.339319  -4.809894  1.830998
N    -1.209789  -5.570122  1.205852
N    0.898332  -4.517074  1.456634
H    0.462119  -1.893258  0.949663
H    -0.493830  -0.421722  1.057829
H    -1.828172  -2.086888  2.071186
H    -1.316012  -0.953463  3.292970
H    -1.045149  -2.833406  4.531555
H    0.562421  -2.870308  3.821547
H    -0.570468  -4.955678  3.825911
H    -0.928630  -6.071915  0.358977
H    1.262435  -4.867234  0.571326
H    1.499455  -3.857770  1.979988
O    3.548636  -0.505060  2.893532
H    4.322347  -1.083977  3.081575
Cd    -3.036298  -5.214792  2.349028
