27
Energy: -170628.038159 eV PBE+vdW (tier 2 basis)
N    0.993135  -0.125481  0.163728
C    -0.093178  0.164380  1.190091
C    0.610209  0.509943  2.497445
O    1.629226  -0.189338  2.799961
H    0.631502  -0.655645  -0.642268
H    1.425176  0.738518  -0.195248
H    -0.694124  1.002588  0.818996
C    -0.934515  -1.118461  1.395819
C    -2.167540  -1.027313  2.323499
C    -2.007724  -1.003348  3.853632
N    -1.262356  -2.160427  4.393655
C    -0.683932  -2.219346  5.629234
N    -0.013422  -1.183175  6.148611
N    -0.782101  -3.379261  6.302009
H    -0.261082  -1.923058  1.731482
H    -1.315422  -1.411221  0.404775
H    -2.800790  -1.888170  2.060896
H    -2.769675  -0.145033  2.060902
H    -3.022228  -0.994892  4.282265
H    -1.534987  -0.078552  4.192360
H    -1.602519  -3.061118  4.063388
H    0.194225  -1.284681  7.139863
H    -0.181896  -3.579221  7.094863
H    -1.520343  -4.048143  6.110272
O    0.056274  1.328747  3.284946
H    1.736486  -0.677355  0.629698
Cd    1.031603  0.221065  4.987127
