27
Energy: -170625.843848 eV PBE+vdW (tier 2 basis)
N    0.586720  -0.005070  -0.359919
C    -0.234219  0.294687  0.897001
C    0.691036  1.131124  1.811727
O    0.189281  1.589356  2.878871
H    0.634968  -1.012241  -0.570895
H    0.239892  0.481869  -1.197984
H    -1.072123  0.939356  0.596594
C    -0.724467  -0.989389  1.580571
C    -1.900713  -1.701103  0.879855
C    -3.286645  -1.106441  1.183118
N    -3.612878  -1.240166  2.590406
C    -4.419584  -0.426810  3.350754
N    -4.376580  -0.681727  4.640356
N    -5.124306  0.559537  2.719647
H    -1.016159  -0.708632  2.603373
H    0.127935  -1.678538  1.695017
H    -1.894890  -2.758188  1.187007
H    -1.779066  -1.727861  -0.214919
H    -4.035490  -1.623371  0.555269
H    -3.337840  -0.035967  0.922288
H    -3.279502  -2.050746  3.114746
H    -4.968447  -0.052056  5.196773
H    -5.727532  1.139872  3.297241
H    -5.463362  0.421517  1.769913
O    1.889056  1.302603  1.435208
H    1.551569  0.350274  -0.145315
Cd    2.171521  2.596343  3.489424
