27
Energy: -170625.790984 eV PBE+vdW (tier 2 basis)
N    -0.729450  0.739414  0.652295
C    -0.155111  0.328103  1.902976
C    1.358888  0.250233  1.765396
O    1.899130  0.010223  0.689512
H    -0.097204  1.059176  -0.079212
H    -1.630895  1.210993  0.680603
H    -0.433919  1.025914  2.714846
C    -0.677379  -1.101155  2.330173
C    -0.246823  -2.236663  1.380797
C    1.067433  -2.933040  1.799064
N    1.729626  -3.604919  0.659558
C    2.838956  -3.236884  0.017700
N    3.336667  -3.793293  -1.071497
N    3.649936  -2.136112  0.494484
H    -1.772737  -1.022989  2.335897
H    -0.381194  -1.300294  3.371949
H    -0.149762  -1.834755  0.360883
H    -1.048428  -2.987420  1.342289
H    0.876716  -3.702916  2.559792
H    1.789815  -2.236300  2.237922
H    1.224325  -4.401071  0.264838
H    2.850350  -4.572621  -1.522868
H    4.017126  -2.311371  1.439169
H    3.115606  -1.226865  0.531587
O    2.105208  0.307512  2.877553
H    1.586977  0.593127  3.659230
Cd    5.116560  -2.581263  -1.370603
