27
Energy: -170627.288145 eV PBE+vdW (tier 2 basis)
N    -0.163539  0.652426  2.372966
C    0.746931  -0.447089  2.402740
C    2.128064  -0.246646  3.048898
O    2.858483  -1.210221  3.434791
H    -0.407520  1.026267  3.289993
H    0.119510  1.414962  1.755478
H    0.291664  -1.233234  3.041226
C    0.942098  -1.023197  0.964757
C    -0.260133  -1.847933  0.466055
C    -0.080482  -3.367222  0.524582
N    0.105050  -3.864125  1.944053
C    0.647731  -5.195570  2.065974
N    1.868546  -5.209170  2.560882
N    -0.072158  -6.250348  1.698706
H    1.874412  -1.616893  0.885466
H    1.117937  -0.165910  0.298333
H    -0.444968  -1.612279  -0.591640
H    -1.173011  -1.532499  0.995112
H    0.817432  -3.671644  -0.034446
H    -0.946700  -3.859891  0.057435
H    -0.790868  -3.800359  2.446585
H    2.368810  -6.096748  2.663554
H    0.276722  -7.204391  1.792348
H    -1.000435  -6.144874  1.294898
O    2.524225  0.981188  3.211057
H    3.414209  1.026494  3.637496
Cd    2.281294  -3.193363  3.024128
