27
Energy: -170625.622147 eV PBE+vdW (tier 2 basis)
N    0.558747  -0.593910  0.425503
C    0.173980  0.177740  1.587146
C    1.449481  0.538612  2.397531
O    1.719558  0.040568  3.479542
H    -0.214542  -0.945857  -0.139747
H    1.306462  -0.225153  -0.162738
H    -0.257104  1.165604  1.300313
C    -0.915763  -0.529820  2.429953
C    -0.899442  -2.071440  2.532366
C    0.348697  -2.784248  3.072101
N    0.756615  -2.311158  4.409926
C    0.891921  -2.998887  5.531690
N    1.488720  -2.583621  6.639563
N    0.354074  -4.335991  5.677619
H    -1.887116  -0.262493  1.989277
H    -0.917450  -0.067661  3.427458
H    -1.083074  -2.516259  1.542381
H    -1.769491  -2.352014  3.145845
H    1.209628  -2.619897  2.405413
H    0.171850  -3.866961  3.100950
H    1.141529  -1.344685  4.361235
H    1.954762  -1.672249  6.650916
H    -0.583009  -4.444535  5.273052
H    0.965064  -5.044355  5.250952
O    2.283854  1.438028  1.872977
H    1.922519  1.878718  1.076586
Cd    0.870428  -4.040512  8.109915
