27
Energy: -170625.793856 eV PBE+vdW (tier 2 basis)
N    1.007735  -0.220277  0.259884
C    0.023618  -0.501677  1.290616
C    1.192603  0.666383  1.413784
O    0.636945  1.833424  1.530150
H    0.576822  0.307842  -0.510505
H    -1.276460  -4.109093  -1.146965
H    -0.982793  -0.099740  1.133290
C    0.175999  -1.686650  2.200596
C    -0.318490  -3.020385  1.577123
C    -1.840786  -3.105468  1.359506
N    -2.322177  -4.489416  1.215003
C    -2.577106  -5.144284  0.069410
N    -2.110087  -4.684500  -1.104171
N    -3.326985  -6.255754  0.094042
H    -0.377844  -1.482910  3.129943
H    1.227881  -1.822392  2.482425
H    -0.020523  -3.813985  2.279060
H    0.230283  -3.212674  0.641707
H    -2.178685  -2.536239  0.481691
H    -2.372631  -2.687931  2.226814
H    -2.510717  -4.999685  2.075722
H    -2.445061  -5.075522  -1.980098
H    -3.324509  -6.911624  -0.682142
H    -3.927747  -6.475009  0.883566
O    2.322779  0.453798  2.143042
H    2.866401  -0.231234  1.700398
Cd    1.921405  3.594746  1.191439
