27
Energy: -170626.808192 eV PBE+vdW (tier 2 basis)
N    2.734824  -0.944890  -0.797687
C    1.804088  0.125227  -0.382488
C    2.182484  0.861705  0.931192
O    3.132380  0.544816  1.664441
H    1.870088  -2.653716  -1.473678
H    3.159936  -0.654031  -1.689178
H    1.787299  0.917879  -1.152110
C    0.349197  -0.432216  -0.235605
C    0.066700  -1.378593  0.944311
C    0.469732  -2.854351  0.781334
N    -0.264798  -3.543811  -0.288930
C    0.229940  -3.933303  -1.476971
N    1.412195  -3.468757  -1.909349
N    -0.471828  -4.792345  -2.233507
H    0.086379  -0.898549  -1.196069
H    -0.333998  0.428619  -0.159149
H    -1.015760  -1.346548  1.141703
H    0.529485  -1.008543  1.873656
H    0.253692  -3.389168  1.716891
H    1.542314  -2.979445  0.588982
H    -1.226610  -3.809893  -0.086220
H    1.856700  -3.896211  -2.715843
H    -0.239096  -4.950468  -3.209313
H    -1.235903  -5.340190  -1.848996
O    1.438716  1.874296  1.325783
H    0.729842  2.102696  0.688590
Cd    4.397854  -0.960703  0.580745
