27
Energy: -170626.300081 eV PBE+vdW (tier 2 basis)
N    0.135400  -0.548011  -0.404800
C    -0.126784  -0.079117  0.971025
C    1.162336  0.509552  1.550137
O    2.286453  0.363769  1.071046
H    -0.737095  -0.879810  -0.829547
H    0.474690  0.217588  -0.996688
H    -0.864244  0.742849  0.975234
C    -0.708433  -1.209746  1.864761
C    0.224606  -2.345053  2.335463
C    0.772164  -3.319500  1.275599
N    1.672504  -2.607263  0.350878
C    2.981433  -2.660311  0.303616
N    3.831722  -3.528869  0.847330
N    3.675649  -1.600860  -0.428205
H    -1.579240  -1.629590  1.335563
H    -1.116960  -0.725532  2.762244
H    -0.355367  -2.957522  3.042785
H    1.067116  -1.937115  2.917221
H    -0.038866  -3.756856  0.674946
H    1.296955  -4.151501  1.760858
H    1.166701  -1.781484  -0.153586
H    3.495593  -4.320059  1.400199
H    3.537303  -1.676102  -1.444786
H    3.299042  -0.680989  -0.102700
O    0.914697  1.204693  2.656165
H    1.751158  1.590912  2.999376
Cd    5.676153  -2.533013  0.421189
