27
Energy: -170626.249051 eV PBE+vdW (tier 2 basis)
N    -1.600212  0.328421  1.907716
C    -0.738471  -0.840097  2.322611
C    0.526500  -0.346165  3.021780
O    1.397471  -1.213237  3.348120
H    -2.548497  -0.097709  1.635742
H    -1.730202  0.990634  2.685626
H    -1.355256  -1.353013  3.092600
C    -0.449317  -1.776892  1.139144
C    -1.664218  -2.126037  0.250816
C    -2.946739  -2.564170  0.968517
N    -3.784444  -1.405204  1.435422
C    -4.283079  -1.449791  2.763944
N    -3.394091  -1.592462  3.706524
N    -5.616558  -1.247595  2.912869
H    -0.027298  -2.692778  1.576937
H    0.341498  -1.348959  0.503432
H    -1.341172  -2.951921  -0.399291
H    -1.895987  -1.302446  -0.444896
H    -2.726624  -3.186072  1.845769
H    -3.558033  -3.167827  0.283651
H    -4.504165  -1.166456  0.749491
H    -3.809308  -1.690849  4.638554
H    -6.015346  -1.133498  3.841507
H    -6.277688  -1.391292  2.153478
O    0.647094  0.898666  3.272328
H    -1.207976  0.851717  1.112058
Cd    2.648317  0.403971  4.277059
