27
Energy: -170626.617297 eV PBE+vdW (tier 2 basis)
N    1.292971  -0.915568  0.434063
C    0.654504  -0.540417  1.688624
C    1.674650  -0.549647  2.855110
O    2.697630  -1.241318  2.870545
H    0.609022  -1.358241  -0.191820
H    -3.536993  1.929602  -1.376441
H    0.367659  0.528767  1.569043
C    -0.594426  -1.363789  2.117331
C    -1.819660  -1.253442  1.174524
C    -2.995630  -0.409484  1.696529
N    -2.796294  1.056668  1.678130
C    -3.030927  1.855620  0.612567
N    -3.386560  1.330765  -0.569007
N    -2.845066  3.179411  0.722684
H    -0.892820  -1.090386  3.142716
H    -0.279980  -2.417815  2.179654
H    -2.228431  -2.262129  1.019489
H    -1.522794  -0.901220  0.173417
H    -3.213229  -0.669339  2.741017
H    -3.915757  -0.662578  1.146915
H    -2.823829  1.523355  2.581555
H    -3.778039  0.395863  -0.624969
H    -3.176099  3.820343  0.006552
H    -2.494616  3.599831  1.577692
O    1.422520  0.189491  3.923973
H    0.624162  0.742441  3.803979
Cd    2.887834  -2.269034  0.832946
