27
Energy: -170627.095801 eV PBE+vdW (tier 2 basis)
N    1.132829  -0.443727  0.851806
C    0.602863  -0.739856  2.189605
C    1.775893  -1.485423  2.900665
O    1.823519  -1.799145  4.133192
H    0.532819  -0.754604  0.084929
H    1.376748  0.538025  0.703224
H    0.420287  0.192968  2.755386
C    -0.673971  -1.616580  2.133745
C    -1.991672  -0.879519  1.775292
C    -2.958734  -0.562072  2.931939
N    -2.577284  0.594355  3.774067
C    -1.851949  0.578038  4.901660
N    -1.642837  -0.541524  5.651264
N    -1.242160  1.709641  5.323301
H    -0.808089  -2.170679  3.077971
H    -0.483742  -2.408380  1.391760
H    -2.562411  -1.523823  1.091021
H    -1.783431  0.037880  1.201928
H    -3.116330  -1.443837  3.566608
H    -3.944444  -0.316687  2.516550
H    -2.899702  1.505198  3.443649
H    -2.379197  -1.242991  5.541355
H    -1.107833  1.821476  6.328114
H    -1.315164  2.574461  4.790405
O    2.750602  -1.775738  2.130611
H    2.411942  -1.328450  1.221198
Cd    0.265426  -1.322944  5.424315
