27
Energy: -170625.996105 eV PBE+vdW (tier 2 basis)
N    0.341536  0.125802  0.497119
C    0.055035  -0.276020  1.832703
C    1.255141  -0.034279  2.837390
O    1.282928  -0.543319  3.933757
H    1.032579  -0.417994  -0.021595
H    0.399179  1.125361  0.303929
H    -0.730857  0.389242  2.233390
C    -0.395035  -1.744065  1.937752
C    -1.765981  -1.991199  1.290192
C    -2.199397  -3.448083  1.468690
N    -3.524040  -3.677226  0.854643
C    -4.215965  -4.814962  0.949900
N    -3.865738  -5.910759  1.579746
N    -5.515576  -4.911094  0.320030
H    -0.419661  -1.998779  3.007188
H    0.371260  -2.391124  1.478695
H    -1.723779  -1.743492  0.217459
H    -2.515592  -1.329714  1.754681
H    -2.271179  -3.696885  2.540105
H    -1.469970  -4.129812  1.000806
H    -3.911034  -2.929958  0.279702
H    -2.952827  -5.954983  2.038383
H    -5.453892  -4.889286  -0.705626
H    -6.155752  -4.162506  0.612016
O    2.163461  0.803559  2.329566
H    2.863799  0.962685  3.003442
Cd    -5.632809  -7.222401  1.359936
