27
Energy: -170626.049113 eV PBE+vdW (tier 2 basis)
N    0.268466  0.052391  -0.046811
C    -0.113550  0.044243  1.321903
C    1.083211  -0.255202  2.289503
O    0.975256  -0.220942  3.504649
H    0.473122  -0.826132  -0.522181
H    0.729143  0.871760  -0.439156
H    -0.432187  1.063877  1.596490
C    -1.288423  -0.945711  1.570492
C    -1.974148  -0.821683  2.951576
C    -1.653429  -1.992075  3.901456
N    -2.220647  -1.815413  5.246701
C    -1.614413  -1.201605  6.282333
N    -2.270189  -1.152924  7.473365
N    -0.413647  -0.624934  6.121324
H    -0.941345  -1.976388  1.391092
H    -2.018036  -0.728261  0.780448
H    -3.062352  -0.786659  2.796249
H    -1.711012  0.133230  3.430593
H    -0.572988  -2.151931  4.011542
H    -2.069690  -2.928030  3.503559
H    -3.228586  -1.925406  5.343418
H    -1.832400  -0.503246  8.133047
H    0.128961  -0.336727  6.930231
H    -0.017104  -0.416364  5.199113
O    2.207173  -0.540542  1.637039
H    2.931566  -0.699861  2.284640
Cd    -3.044274  -2.855194  8.563751
