27
Energy: -170625.714617 eV PBE+vdW (tier 2 basis)
N    -0.363424  0.318817  0.056303
C    0.057709  -0.058956  1.354735
C    1.580868  -0.492860  1.373062
O    2.089634  -1.221373  0.565348
H    -0.447665  -0.394218  -0.669459
H    -0.163374  1.258330  -0.282837
H    -0.004489  0.830500  1.999585
C    -0.782600  -1.244262  1.903924
C    -0.465436  -1.670689  3.346089
C    -0.874500  -0.617643  4.392770
N    -0.545608  -1.002608  5.773373
C    0.582082  -0.683555  6.436651
N    0.681798  -1.004054  7.748656
N    1.596022  -0.079264  5.787489
H    -0.636363  -2.108607  1.239034
H    -1.838818  -0.948726  1.814767
H    0.599271  -1.931391  3.455505
H    -1.017724  -2.601102  3.545653
H    -1.960639  -0.451933  4.357279
H    -0.408966  0.361570  4.210728
H    -1.112801  -1.730912  6.203614
H    1.639516  -0.936734  8.103757
H    1.682285  -0.101992  4.771775
H    2.353029  0.356977  6.305516
O    2.225283  0.054129  2.446178
H    3.173496  -0.198675  2.356133
Cd    -0.733589  -0.518074  9.316325
