27
Energy: -170625.986141 eV PBE+vdW (tier 2 basis)
N    0.231696  0.852865  0.544826
C    0.161472  0.231709  1.834542
C    1.590515  0.050639  2.404203
O    1.920848  -0.861004  3.151973
H    0.798069  1.692185  0.430561
H    -0.566115  0.771962  -0.081232
H    -0.313140  0.925602  2.572535
C    -0.645898  -1.088816  1.789307
C    -1.574826  -1.385102  2.982294
C    -0.941612  -1.528253  4.376129
N    0.142844  -2.525483  4.433464
C    0.085134  -3.748427  4.936651
N    -0.941585  -4.389446  5.462354
N    1.301650  -4.544849  4.969624
H    0.045609  -1.923601  1.604091
H    -1.292132  -1.047880  0.901302
H    -2.129876  -2.305144  2.744099
H    -2.333442  -0.590773  3.066356
H    -1.711060  -1.782319  5.116969
H    -0.491222  -0.583352  4.713371
H    1.014773  -2.183549  3.993250
H    -1.865419  -3.952506  5.467479
H    2.108106  -4.018680  5.328859
H    1.553373  -4.893751  4.035648
O    2.405039  1.028080  2.017022
H    3.294316  0.898661  2.416223
Cd    -0.008536  -6.163458  6.325772
