27
Energy: -170627.938567 eV PBE+vdW (tier 2 basis)
N    0.239439  -0.194613  -0.000390
C    -0.080216  -0.019517  1.448147
C    1.235748  0.199005  2.214145
O    2.337006  -0.153757  1.767595
H    0.349814  0.724987  -0.446547
H    -0.556215  -0.633596  -0.476963
H    -0.692525  0.890302  1.562981
C    -0.908601  -1.201829  2.037224
C    -0.265911  -2.542788  2.468258
C    0.152135  -3.582570  1.407067
N    1.605313  -3.432699  1.062818
C    2.121218  -4.124243  -0.101870
N    2.646357  -3.300720  -0.978602
N    2.030133  -5.451518  -0.186327
H    -1.739687  -1.387667  1.337358
H    -1.401084  -0.800133  2.935165
H    -1.034011  -3.029046  3.086580
H    0.573168  -2.370186  3.162701
H    -0.425019  -3.476546  0.476754
H    -0.052710  -4.589970  1.800020
H    2.180413  -3.671526  1.882109
H    3.075918  -3.681141  -1.826816
H    2.389852  -5.965858  -0.989658
H    1.655947  -6.008314  0.577884
O    1.202854  0.740548  3.412695
H    0.313697  1.061311  3.675633
Cd    2.205590  -1.375125  -0.105044
