27
Energy: -170625.695895 eV PBE+vdW (tier 2 basis)
N    -0.102822  0.904064  0.525123
C    0.276305  0.193955  1.727505
C    1.779302  -0.190979  1.624636
O    2.175128  -1.329376  1.417503
H    -1.097073  1.118531  0.442898
H    0.467872  1.704928  0.252295
H    0.224001  0.852088  2.626330
C    -0.654636  -1.007000  2.029695
C    -1.289707  -1.790747  0.858350
C    -0.384731  -2.399936  -0.222437
N    0.669253  -3.275336  0.326459
C    0.865639  -4.557478  0.086031
N    0.150308  -5.405253  -0.634546
N    2.040427  -5.201617  0.668527
H    -1.492533  -0.620282  2.627544
H    -0.112376  -1.683341  2.705957
H    -2.003235  -1.150253  0.318162
H    -1.898997  -2.587779  1.310382
H    0.132441  -1.610761  -0.789426
H    -0.996975  -2.960688  -0.940192
H    1.375926  -2.730828  0.866289
H    -0.704371  -5.092133  -1.099198
H    2.045633  -5.136291  1.695082
H    2.914212  -4.770513  0.336953
O    2.678328  0.782909  1.770032
H    2.281840  1.631460  2.056246
Cd    1.254617  -7.256311  -0.405634
