27
Energy: -170627.206632 eV PBE+vdW (tier 2 basis)
N    0.792652  -0.695969  0.195918
C    -0.428854  -0.578765  0.968081
C    -0.174354  0.138008  2.284892
O    -0.874011  0.066754  3.342058
H    0.582926  -0.974854  -0.764618
H    1.316454  0.179392  0.144589
H    -1.192138  0.112520  0.524631
C    -1.107847  -1.967463  1.066703
C    -0.214287  -3.131998  1.562375
C    -0.693630  -3.907028  2.799542
N    -2.061978  -4.450520  2.685533
C    -3.101238  -4.267879  3.535396
N    -3.197224  -3.167225  4.308045
N    -4.062431  -5.205342  3.573113
H    -1.468961  -2.186247  0.050738
H    -2.076526  -1.899793  1.610314
H    0.801846  -2.761943  1.765131
H    -0.084002  -3.850035  0.741069
H    -0.635566  -3.313434  3.728106
H    -0.007701  -4.748649  2.981178
H    -2.167955  -5.220011  2.025035
H    -3.893953  -3.218355  5.050661
H    -3.894349  -6.157421  3.256354
H    -4.971658  -5.014171  3.985883
O    0.814405  0.987509  2.246123
H    0.890370  1.501339  3.085074
Cd    -2.221498  -1.419182  3.874600
