27
Energy: -170625.762779 eV PBE+vdW (tier 2 basis)
N    0.157023  -0.251322  -0.019790
C    0.201040  0.277591  1.311005
C    1.637957  0.759563  1.568206
O    2.451755  0.881359  0.678555
H    -0.745714  -0.335367  -0.483762
H    0.955372  -0.018224  -0.618782
H    -0.398542  1.214226  1.379183
C    -0.380730  -0.699862  2.363966
C    0.429649  -2.003436  2.471345
C    -0.208204  -3.086122  3.340994
N    -0.208553  -2.716778  4.777609
C    -0.633128  -3.513985  5.757501
N    -1.142507  -4.718930  5.641233
N    -0.547427  -3.067539  7.133562
H    -1.419637  -0.926303  2.074929
H    -0.433086  -0.154357  3.318013
H    1.454568  -1.806582  2.826471
H    0.538332  -2.436601  1.465181
H    0.360491  -4.023412  3.233436
H    -1.249728  -3.270517  3.030285
H    0.164756  -1.803294  5.032191
H    -1.258593  -5.130916  4.712191
H    -1.155897  -2.260458  7.321007
H    0.408654  -2.810176  7.408873
O    1.851745  1.059657  2.865178
H    2.749617  1.455223  2.932718
Cd    -1.459580  -5.340613  7.727218
