27
Energy: -170627.413529 eV PBE+vdW (tier 2 basis)
N    -0.229889  -0.944850  -0.142339
C    0.236845  -0.381331  1.169998
C    1.595949  -1.026358  1.456840
O    1.881907  -2.183340  1.106205
H    0.311357  -0.545092  -0.921809
H    -1.203726  -0.663343  -0.311210
H    0.398110  0.702225  1.078832
C    -0.833139  -0.681861  2.280155
C    -0.362583  -1.324896  3.611564
C    -1.360439  -2.362350  4.179130
N    -1.659182  -3.433821  3.200722
C    -0.726890  -4.214000  2.610571
N    -0.844174  -4.719584  1.336954
N    0.434802  -4.457791  3.239207
H    -1.577312  -1.346977  1.810724
H    -1.367524  0.254418  2.485410
H    -0.205797  -0.552598  4.376713
H    0.612756  -1.819638  3.492781
H    -2.324131  -1.902873  4.431504
H    -0.979280  -2.790118  5.117896
H    -2.536278  -3.345161  2.693033
H    -1.824337  -4.827817  1.053326
H    0.553320  -4.249200  4.227776
H    1.008095  -5.211253  2.862957
O    2.414172  -0.238075  2.112405
H    3.278020  -0.685628  2.280091
Cd    0.073724  -3.212072  0.123784
