27
Energy: -170625.886686 eV PBE+vdW (tier 2 basis)
N    0.173120  1.213245  0.889667
C    0.176159  0.115623  1.924958
C    1.587948  -0.528399  2.088206
O    2.670332  0.161035  1.841644
H    -0.011629  0.821313  -0.044245
H    -0.584599  1.882930  1.071472
H    -0.019708  0.620307  2.886874
C    -0.925880  -0.942536  1.639280
C    -1.719288  -1.478701  2.852949
C    -1.002043  -2.151201  4.025048
N    -0.158527  -3.358853  3.629977
C    -0.801296  -4.391909  2.692566
N    -0.327815  -4.667272  1.554483
N    -1.964153  -4.885824  3.201616
H    -0.491105  -1.765513  1.055373
H    -1.682586  -0.481131  0.988102
H    -2.478029  -2.169310  2.455009
H    -2.291638  -0.653313  3.305588
H    -1.746335  -2.482687  4.759129
H    -0.302793  -1.480294  4.542724
H    0.191203  -3.829364  4.480737
H    0.539209  -4.195262  1.289229
H    -2.368500  -5.651652  2.661348
H    -2.107530  -4.956796  4.205917
O    1.672596  -1.684034  2.507765
H    0.675987  -2.957258  3.137924
Cd    2.323328  2.031549  0.935499
