27
Energy: -170627.565144 eV PBE+vdW (tier 2 basis)
N    1.169266  -1.679546  0.335814
C    0.520058  -0.696610  1.262829
C    1.647180  -0.004086  2.038770
O    2.720377  -0.574626  2.275775
H    0.451028  -2.259192  -0.116656
H    1.667744  -1.198988  -0.425818
H    -0.024245  0.061899  0.677329
C    -0.487823  -1.483819  2.172817
C    -0.802462  -1.052688  3.617672
C    0.276155  -1.257184  4.726441
N    1.356026  -2.202753  4.396266
C    1.314602  -3.568802  4.275838
N    2.197018  -4.107002  3.422779
N    0.383942  -4.272649  4.935010
H    -0.155433  -2.536384  2.191487
H    -1.439188  -1.498469  1.622286
H    -1.696214  -1.631170  3.889386
H    -1.129746  -0.002993  3.657071
H    -0.228225  -1.527968  5.665508
H    0.793169  -0.314557  4.940093
H    2.300016  -1.828668  4.471544
H    2.375794  -5.109982  3.500699
H    0.252804  -5.264904  4.750506
H    -0.017119  -3.916744  5.800872
O    1.460237  1.210449  2.512790
H    0.627302  1.625422  2.201440
Cd    2.535379  -2.811740  1.782451
