27
Energy: -170626.821576 eV PBE+vdW (tier 2 basis)
N    2.574133  0.183391  0.852179
C    1.492724  -0.077539  1.787344
C    1.908427  -1.120473  2.852860
O    2.801768  -1.959777  2.687548
H    2.209890  0.494197  -0.055487
H    -3.940571  0.452544  -1.273451
H    1.370128  0.868784  2.360094
C    0.088142  -0.439980  1.208116
C    0.030859  -1.721719  0.359274
C    -1.380172  -2.299508  0.172771
N    -2.286793  -1.373046  -0.528644
C    -3.633954  -1.421764  -0.465368
N    -4.358242  -0.436815  -1.017534
N    -4.251104  -2.422204  0.179825
H    -0.245663  0.432850  0.627106
H    -0.624165  -0.522477  2.045948
H    0.607265  -2.530896  0.836863
H    0.496337  -1.560796  -0.626606
H    -1.819728  -2.512522  1.158270
H    -1.304302  -3.248051  -0.383781
H    -1.896640  -0.832188  -1.298657
H    -5.353779  -0.547264  -1.189958
H    -5.248298  -2.377615  0.372577
H    -3.803583  -3.324835  0.306256
O    1.239990  -1.156448  3.993353
H    0.621857  -0.400927  4.084745
Cd    3.867298  -1.486392  0.707532
