27
Energy: -170625.967292 eV PBE+vdW (tier 2 basis)
N    1.112462  0.035241  0.544166
C    0.046692  -0.150976  1.471021
C    0.616475  -0.500900  2.906212
O    0.359970  -1.525081  3.514611
H    1.696535  0.867919  0.605808
H    1.526645  -0.760898  0.063559
H    -0.435151  0.831223  1.628207
C    -1.011394  -1.164290  1.020185
C    -0.529385  -2.624816  0.849051
C    -1.567159  -3.605470  1.430749
N    -1.067274  -4.973094  1.625511
C    -0.460955  -5.424182  2.741313
N    -0.167520  -6.746540  2.834437
N    -0.128774  -4.565556  3.721358
H    -1.445104  -0.785924  0.084806
H    -1.815609  -1.119206  1.769593
H    0.430391  -2.781051  1.364337
H    -0.355275  -2.859364  -0.210955
H    -2.448219  -3.671846  0.778207
H    -1.927049  -3.248243  2.406303
H    -0.998549  -5.579571  0.810851
H    0.475514  -6.952866  3.603960
H    -0.041340  -3.556402  3.570503
H    0.126464  -4.912928  4.641243
O    1.402001  0.480266  3.340527
H    1.746046  0.266550  4.237420
Cd    -1.548980  -8.396010  2.581000
