27
Energy: -170626.057731 eV PBE+vdW (tier 2 basis)
N    -1.179392  -0.868410  -0.205448
C    -0.755706  -0.279288  1.047214
C    0.636241  0.453269  0.923418
O    1.610907  -0.124010  0.363269
H    -0.432586  -1.208866  -0.820458
H    -1.614541  -2.639234  0.194900
H    -1.471544  0.503950  1.325564
C    -0.702005  -1.277858  2.235108
C    0.199596  -2.526757  2.183046
C    0.144344  -3.436384  0.949524
N    -1.262565  -3.622081  0.402622
C    -1.286780  -4.316695  -0.944688
N    -0.770765  -3.602016  -1.857422
N    -1.914148  -5.517363  -0.909634
H    -1.754827  -1.571024  2.383937
H    -0.441441  -0.712238  3.141821
H    -0.037139  -3.111704  3.084774
H    1.257805  -2.245327  2.291922
H    0.544527  -4.432305  1.178117
H    0.712856  -3.033251  0.103715
H    -1.889794  -4.064542  1.089090
H    -0.745459  -4.039791  -2.783018
H    -1.969740  -6.062142  -1.767569
H    -2.056725  -6.042459  -0.051482
O    0.691842  1.616203  1.431265
H    -1.802724  -0.267703  -0.749090
Cd    2.829857  1.804398  0.806384
