27
Energy: -170625.952815 eV PBE+vdW (tier 2 basis)
N    -0.601116  0.182150  0.129342
C    0.346427  -0.278614  1.098219
C    1.629884  -0.796520  0.410106
O    2.354285  -1.656278  0.889157
H    -0.276856  0.789579  -0.622698
H    -1.561969  0.340527  0.428510
H    0.746418  0.585568  1.686542
C    -0.279455  -1.250996  2.117369
C    -0.879772  -2.552522  1.540209
C    0.040133  -3.782840  1.444955
N    0.360250  -4.415004  2.741932
C    1.468217  -4.277301  3.493622
N    1.531442  -4.834395  4.737727
N    2.526352  -3.574133  3.055368
H    -1.080301  -0.690473  2.622426
H    0.459745  -1.453079  2.904697
H    -1.263776  -2.366949  0.524703
H    -1.759683  -2.830559  2.138908
H    0.975198  -3.568401  0.916596
H    -0.472880  -4.561790  0.863955
H    -0.328771  -5.081778  3.085983
H    0.642241  -5.251463  5.029261
H    3.167030  -3.222366  3.761614
H    2.472598  -3.002708  2.202986
O    1.879187  -0.147939  -0.725244
H    2.733614  -0.454592  -1.103865
Cd    3.149147  -6.137410  5.358923
