27
Energy: -170625.831643 eV PBE+vdW (tier 2 basis)
N    0.294103  -1.992010  0.099086
C    0.766583  -0.818853  0.880766
C    2.198373  -1.074111  1.394004
O    2.661705  -2.188671  1.613072
H    -0.669297  -1.816439  -0.208823
H    0.845665  -2.063223  -0.764216
H    0.820941  0.067097  0.223448
C    -0.220759  -0.465917  2.033966
C    -0.872729  -1.635391  2.791555
C    0.074031  -2.489302  3.673429
N    -0.195988  -3.941885  3.585517
C    0.153681  -4.751380  2.586962
N    -0.158024  -6.037808  2.472401
N    0.935267  -4.261575  1.482108
H    -1.032830  0.128281  1.589707
H    0.284060  0.214250  2.736725
H    -1.396433  -2.295737  2.084729
H    -1.666318  -1.211668  3.421976
H    -0.038182  -2.233817  4.733426
H    1.131211  -2.334091  3.433008
H    -0.771080  -4.347144  4.325143
H    -0.714344  -6.506439  3.192563
H    1.800375  -3.731450  1.759477
H    0.469379  -3.446690  0.876158
O    2.952686  -0.006378  1.645371
H    2.529125  0.833727  1.372059
Cd    1.088130  -6.428153  0.756230
