27
Energy: -170625.68213 eV PBE+vdW (tier 2 basis)
N    -0.597820  -0.379400  -0.122546
C    0.042755  -0.333664  1.150156
C    1.549195  -0.173916  0.865805
O    1.980332  0.091293  -0.232475
H    -1.611763  -0.351501  -0.200445
H    -0.034952  -0.157403  -0.948967
H    -0.230483  0.609999  1.679986
C    -0.378210  -1.539401  2.051296
C    -0.699150  -1.241653  3.524870
C    0.508684  -0.974732  4.433196
N    0.065621  -0.933299  5.842250
C    0.742063  -0.413018  6.884129
N    0.124515  -0.122473  8.048402
N    2.059773  -0.144270  6.764326
H    0.386737  -2.326131  1.960411
H    -1.284380  -1.969177  1.602076
H    -1.228058  -2.129339  3.908982
H    -1.406436  -0.399215  3.594454
H    0.993814  -0.018147  4.192064
H    1.254400  -1.778551  4.308097
H    -0.831988  -1.368895  6.051548
H    -0.896144  -0.172229  7.996040
H    2.461603  0.611053  7.312010
H    2.579212  -0.433009  5.941387
O    2.309816  -0.331785  1.972558
H    3.242382  -0.194182  1.692908
Cd    0.873372  -0.621138  10.027995
