27
Energy: -170626.106516 eV PBE+vdW (tier 2 basis)
N    -1.676867  1.014983  1.401213
C    -0.617487  0.145980  1.780686
C    0.097914  -0.530455  0.564118
O    1.213721  -1.017187  0.653618
H    -2.538397  0.621348  1.023076
H    -1.462697  1.959875  1.086790
H    0.167055  0.754633  2.255446
C    -1.136385  -0.946659  2.766368
C    -0.136304  -2.021733  3.220990
C    1.108693  -1.446585  3.920126
N    2.085941  -2.473153  4.320104
C    2.944519  -3.118881  3.506979
N    3.620921  -4.213512  3.939464
N    3.131145  -2.701843  2.240167
H    -1.995082  -1.455874  2.302068
H    -1.533177  -0.398650  3.633411
H    0.166980  -2.651856  2.372391
H    -0.664381  -2.685547  3.921384
H    0.826448  -0.922826  4.842945
H    1.630098  -0.710044  3.290411
H    2.116107  -2.721578  5.306699
H    3.319780  -4.530423  4.865405
H    3.462919  -3.388984  1.569017
H    2.570163  -1.946686  1.837132
O    -0.649932  -0.527193  -0.535888
H    -0.162660  -0.969030  -1.268219
Cd    5.765419  -4.465605  3.733337
