27
Energy: -170627.521587 eV PBE+vdW (tier 2 basis)
N    -0.177700  -0.309776  0.753587
C    0.364816  0.101525  2.076396
C    1.882639  -0.164769  2.030902
O    2.348385  -1.155815  1.433971
H    0.109818  0.358855  0.027150
H    -1.201880  -0.272373  0.766314
H    0.171448  1.172304  2.254981
C    -0.201934  -0.740008  3.261039
C    -1.735913  -0.902682  3.376281
C    -2.385709  -2.107968  2.654233
N    -1.813688  -3.408605  3.042890
C    -0.868196  -4.090422  2.359364
N    -0.645164  -3.925826  1.023578
N    -0.083671  -4.966407  3.008792
H    0.162976  -0.254608  4.177609
H    0.274598  -1.736597  3.270346
H    -2.262440  0.011523  3.058028
H    -1.964307  -0.994062  4.448433
H    -2.336746  -2.027527  1.561965
H    -3.455849  -2.130283  2.899483
H    -2.096627  -3.773971  3.953459
H    -1.512165  -3.685909  0.533956
H    0.350602  -5.711768  2.466744
H    -0.118629  -5.085870  4.018860
O    2.721737  0.606105  2.675007
H    2.299951  1.396877  3.076427
Cd    0.803752  -2.463322  0.558936
