27
Energy: -170625.826568 eV PBE+vdW (tier 2 basis)
N    -1.522574  0.231316  1.949826
C    -0.352424  0.600992  2.838339
C    0.945762  0.450533  2.020980
O    2.041964  0.638613  2.634521
H    -1.838011  -0.787968  2.151998
H    -2.332149  0.843444  2.121423
H    -0.428635  1.678951  3.050665
C    -0.345856  -0.177365  4.161520
C    -0.246308  -1.718042  4.071093
C    -1.572101  -2.488470  4.060515
N    -2.374737  -2.292332  2.814002
C    -3.774956  -2.026383  2.920285
N    -4.329958  -1.200576  3.753762
N    -4.550000  -2.569827  1.940348
H    -1.233180  0.125357  4.740000
H    0.512565  0.212141  4.725635
H    0.303283  -2.067144  4.957089
H    0.375217  -2.025767  3.212751
H    -2.189698  -2.194166  4.919477
H    -1.373204  -3.562644  4.178717
H    -2.173235  -3.030189  2.132475
H    -3.706649  -0.865098  4.494565
H    -5.544883  -2.347628  1.987274
H    -4.297246  -3.428236  1.457022
O    0.864362  0.200890  0.777402
H    -1.246220  0.313014  0.956390
Cd    3.202208  0.426968  0.716688
