27
Energy: -170626.068397 eV PBE+vdW (tier 2 basis)
N    -0.484527  0.673484  0.595845
C    -0.205230  -0.215747  1.783738
C    1.329301  -0.228220  1.924484
O    2.018985  0.566806  1.315478
H    0.238995  1.418498  0.584118
H    -0.380781  0.155211  -0.288709
H    -0.596701  0.332590  2.656010
C    -0.896561  -1.576472  1.648733
C    -2.373098  -1.532079  1.195706
C    -3.314007  -0.564019  1.931756
N    -3.222313  0.806198  1.400367
C    -4.216005  1.619758  1.624334
N    -5.329283  1.474343  2.386277
N    -4.208405  2.949542  1.027130
H    -0.815968  -2.068591  2.628191
H    -0.332184  -2.210764  0.947673
H    -2.773020  -2.547555  1.329344
H    -2.452655  -1.341268  0.113083
H    -3.090255  -0.556791  3.014454
H    -4.349593  -0.940056  1.832622
H    -1.478610  1.021606  0.687078
H    -5.512844  0.555205  2.797619
H    -3.671629  2.984514  0.155260
H    -3.824474  3.653671  1.669005
O    1.739372  -1.157330  2.785179
H    2.718475  -1.103014  2.871706
Cd    -6.638671  2.834521  1.387576
