27
Energy: -170626.818284 eV PBE+vdW (tier 2 basis)
N    1.223638  -0.361509  0.166331
C    0.511752  0.164570  1.323995
C    1.488941  0.691836  2.406181
O    2.634551  1.088571  2.166480
H    0.664674  -0.216429  -0.683662
H    -3.217734  -2.285770  -0.354965
H    0.033423  -0.718385  1.804309
C    -0.557757  1.262353  1.044545
C    -1.828234  0.791631  0.309910
C    -2.818388  0.026052  1.208097
N    -4.167884  -0.054242  0.625659
C    -4.835014  -1.160074  0.247008
N    -4.180664  -2.298676  -0.037315
N    -6.172386  -1.126144  0.163987
H    -0.070996  2.047965  0.444934
H    -0.856601  1.752789  1.985730
H    -1.583433  0.193652  -0.583445
H    -2.331861  1.693200  -0.070299
H    -2.922946  0.545126  2.174317
H    -2.485872  -0.995791  1.435783
H    -4.706712  0.810517  0.620771
H    -4.690110  -3.170905  -0.149459
H    -6.717586  -0.411263  0.637740
H    -6.686831  -1.822487  -0.368781
O    1.068657  0.763702  3.657271
H    0.176788  0.375256  3.772628
Cd    3.079090  0.666667  -0.033197
