27
Energy: -170625.740552 eV PBE+vdW (tier 2 basis)
N    -0.036787  0.004563  0.033378
C    -0.158386  -0.174409  1.457973
C    1.223083  -0.176126  2.132163
O    1.508200  -0.827695  3.131448
H    -0.912401  0.083466  -0.484201
H    0.668309  0.671226  -0.282833
H    -0.641950  0.717755  1.927226
C    -1.067384  -1.372971  1.820222
C    -0.670026  -2.743632  1.228669
C    0.478421  -3.537918  1.854308
N    0.106519  -4.398318  3.029177
C    -0.341610  -3.826410  4.298301
N    -1.260912  -4.563837  4.880474
N    0.215587  -2.712202  4.748542
H    -2.065724  -1.124884  1.429955
H    -1.188484  -1.397813  2.910782
H    -0.399478  -2.592751  0.172273
H    -1.568448  -3.385659  1.207178
H    1.330471  -2.898849  2.130963
H    0.863147  -4.257427  1.119096
H    0.930711  -4.977976  3.248611
H    -1.585191  -4.321376  5.820673
H    0.827072  -2.114464  4.161309
H    -0.096327  -2.308361  5.631231
O    2.063763  0.665645  1.535526
H    2.914571  0.692578  2.028664
Cd    -1.753387  -5.987655  3.305220
