27
Energy: -170625.988353 eV PBE+vdW (tier 2 basis)
N    0.381564  -0.677526  -0.006238
C    0.023722  -0.302972  1.334041
C    1.345269  -0.045621  2.127767
O    1.828816  -0.800523  2.962339
H    0.761034  0.036558  -0.626601
H    0.722828  -1.621748  -0.181155
H    -0.478074  0.677932  1.279593
C    -0.910314  -1.339472  1.980484
C    -1.652933  -0.859530  3.244225
C    -0.973668  -1.059928  4.606338
N    -0.944947  -2.472439  5.053342
C    0.119185  -3.274531  5.109821
N    1.326404  -3.049823  4.640685
N    -0.002853  -4.544548  5.796352
H    -0.366592  -2.281556  2.159989
H    -1.662905  -1.566776  1.213189
H    -2.635783  -1.353743  3.276769
H    -1.884801  0.213805  3.158053
H    -1.539533  -0.516608  5.375962
H    0.054078  -0.681475  4.636019
H    -1.833817  -2.860915  5.368801
H    1.511431  -2.224591  4.039655
H    -0.544584  -4.488593  6.667305
H    -0.433895  -5.264102  5.201778
O    1.913383  1.090279  1.730919
H    2.777129  1.211278  2.186704
Cd    2.507081  -4.604039  5.599944
