27
Energy: -170628.150889 eV PBE+vdW (tier 2 basis)
N    0.400986  -0.370952  0.155012
C    -0.064369  0.004130  1.554931
C    0.903507  -0.637806  2.543327
O    1.345490  -1.796699  2.281548
H    1.206032  0.199231  -0.150296
H    0.710619  -1.362229  0.171888
H    -0.035382  1.097210  1.640178
C    -1.497978  -0.552621  1.791869
C    -1.913951  -0.674690  3.281353
C    -1.723219  -2.100200  3.851920
N    -1.762310  -2.123131  5.323234
C    -0.964397  -2.842446  6.158237
N    0.305909  -3.149960  5.846393
N    -1.492683  -3.224857  7.336662
H    -1.575751  -1.541939  1.310485
H    -2.197726  0.113941  1.268961
H    -2.975853  -0.404396  3.357545
H    -1.368593  0.054138  3.896966
H    -0.781020  -2.559539  3.527153
H    -2.515146  -2.763180  3.466282
H    -2.630563  -1.791059  5.741186
H    0.709589  -3.866332  6.449600
H    -0.899008  -3.510677  8.110341
H    -2.496912  -3.306552  7.473332
O    1.073459  -0.043955  3.656113
H    -0.346455  -0.259466  -0.547962
Cd    1.548448  -1.958314  4.646270
