27
Energy: -170625.455492 eV PBE+vdW (tier 2 basis)
N    0.670527  0.996775  1.133028
C    0.220976  0.043194  2.179547
C    1.431961  -0.456995  2.996709
O    2.590016  -0.478400  2.563290
H    0.083719  0.923210  0.295277
H    0.588301  1.967898  1.457344
H    -0.452866  0.569028  2.878212
C    -0.510030  -1.182460  1.567554
C    -1.994475  -0.922332  1.258159
C    -2.676074  -2.169158  0.644675
N    -4.121473  -2.040340  0.537300
C    -5.000035  -2.279350  1.564227
N    -4.680217  -2.688385  2.782941
N    -6.320290  -2.047337  1.350309
H    -0.431863  -2.028556  2.267683
H    0.040750  -1.500982  0.665484
H    -2.122598  -0.070828  0.570091
H    -2.519371  -0.651541  2.188270
H    -2.438175  -3.069492  1.232273
H    -2.293049  -2.362114  -0.367066
H    -4.488691  -1.653441  -0.330093
H    -3.699619  -2.982466  2.854116
H    -6.723157  -1.892035  0.430493
H    -6.949838  -2.292262  2.112677
O    1.221075  -0.943346  4.202933
H    0.294872  -0.841319  4.508655
Cd    3.015658  0.601866  0.611098
