27
Energy: -170627.3614 eV PBE+vdW (tier 2 basis)
N    0.232994  0.707562  0.034232
C    0.372283  0.258144  1.468952
C    1.761842  -0.366826  1.780900
O    2.821135  -0.047248  1.065612
H    -0.105489  -0.063262  -0.556278
H    -0.472837  1.450754  -0.040166
H    0.371785  1.186538  2.065998
C    -0.833238  -0.582262  1.959460
C    -1.134480  -1.943933  1.302178
C    -0.153840  -3.106676  1.560380
N    0.158656  -3.332029  2.974878
C    -0.319848  -4.304167  3.766284
N    0.308628  -4.579667  4.920273
N    -1.412747  -5.007567  3.428286
H    -1.726020  0.050295  1.847421
H    -0.706033  -0.708924  3.043444
H    -1.248969  -1.854989  0.207985
H    -2.136233  -2.231398  1.657265
H    0.809001  -2.940062  1.057239
H    -0.555974  -4.033476  1.128965
H    0.886418  -2.717987  3.351446
H    -0.136875  -5.132983  5.646102
H    -1.652346  -5.866281  3.914850
H    -2.055327  -4.687403  2.713290
O    1.881362  -1.105272  2.753050
H    1.257862  -4.262533  5.092314
Cd    2.393729  1.227651  -0.546935
