27
Energy: -170625.912333 eV PBE+vdW (tier 2 basis)
N    0.550229  -1.591724  0.229973
C    0.228141  -0.771350  1.349435
C    1.429774  -0.565002  2.353198
O    1.424513  0.333746  3.161988
H    1.120151  -1.177578  -0.507496
H    0.805585  -2.562174  0.421286
H    0.010695  0.246151  0.992456
C    -0.949238  -1.342305  2.179690
C    -2.297362  -1.379444  1.437699
C    -2.962817  -0.005203  1.311366
N    -4.281262  -0.138125  0.658408
C    -5.227555  0.804051  0.644980
N    -5.166555  2.006408  1.167476
N    -6.501326  0.518322  0.026331
H    -1.032591  -0.759369  3.108407
H    -0.694534  -2.369162  2.483816
H    -2.969488  -2.046016  1.999032
H    -2.152601  -1.821162  0.438215
H    -2.347299  0.694891  0.723143
H    -3.122644  0.429640  2.311167
H    -4.447055  -0.985507  0.115867
H    -4.289953  2.328502  1.583861
H    -6.450154  0.556583  -0.999471
H    -6.885699  -0.396398  0.290918
O    2.378144  -1.493571  2.198493
H    3.092410  -1.337089  2.858139
Cd    -7.247223  2.740825  1.020752
