27
Energy: -170627.518969 eV PBE+vdW (tier 2 basis)
N    0.492274  -0.626220  -0.486621
C    0.471090  0.224358  0.752653
C    1.925038  0.473496  1.187404
O    2.841507  -0.299725  0.885747
H    -0.452113  -0.982423  -0.680716
H    0.740261  -0.046725  -1.299689
H    0.018257  1.196931  0.499642
C    -0.391967  -0.406105  1.892481
C    -0.219110  -1.902686  2.236621
C    0.965819  -2.326374  3.147220
N    1.210643  -3.777718  3.042173
C    1.794249  -4.352709  1.964638
N    2.741937  -3.709067  1.209918
N    1.465529  -5.596464  1.603645
H    -1.439837  -0.252039  1.595754
H    -0.259791  0.208579  2.795955
H    -0.205620  -2.511369  1.313699
H    -1.149744  -2.216516  2.731560
H    0.737379  -2.113250  4.198688
H    1.897634  -1.788189  2.934833
H    0.689096  -4.377213  3.683089
H    3.352228  -3.163250  1.831609
H    2.109319  -6.107279  1.000979
H    0.706984  -6.118515  2.038003
O    2.201819  1.512938  1.946470
H    1.443006  2.120260  2.081598
Cd    2.068194  -2.217379  -0.115826
