27
Energy: -170627.209744 eV PBE+vdW (tier 2 basis)
N    -0.439065  -0.064953  1.230722
C    -0.555271  -0.577777  2.583800
C    0.216625  0.354831  3.577152
O    0.673820  -0.137619  4.655232
H    -0.755762  0.907415  1.165589
H    2.396353  0.304942  -1.152688
H    -1.572381  -0.421206  3.008549
C    -0.226124  -2.077219  2.694880
C    0.889862  -2.587537  1.771656
C    2.264126  -1.926234  1.988488
N    3.171263  -2.124803  0.853320
C    3.177712  -1.358593  -0.252753
N    2.292538  -0.359204  -0.391923
N    4.097521  -1.578479  -1.206079
H    -1.145675  -2.627136  2.442520
H    -0.015457  -2.313900  3.746108
H    0.590382  -2.462045  0.720252
H    0.984180  -3.672989  1.918742
H    2.763185  -2.331171  2.878388
H    2.183112  -0.840892  2.146603
H    3.716378  -2.983716  0.828191
H    1.451963  -0.277462  0.194992
H    4.026827  -1.143404  -2.120542
H    4.887475  -2.197066  -1.050774
O    0.248165  1.597795  3.308449
H    -0.998878  -0.630515  0.585967
Cd    1.084395  1.959077  5.380108
