27
Energy: -170625.877948 eV PBE+vdW (tier 2 basis)
N    -0.013113  -0.566000  0.019894
C    0.113312  -0.377633  1.454601
C    1.612651  -0.404698  1.950636
O    1.911627  0.386487  2.898785
H    0.251534  0.267113  -0.514462
H    -1.743646  -1.224787  -0.274685
H    -0.256843  0.620600  1.725504
C    -0.638102  -1.482112  2.236787
C    -2.144532  -1.216825  2.456049
C    -2.999352  -0.734455  1.279524
N    -2.743895  -1.476431  -0.018035
C    -2.916819  -3.013920  0.021429
N    -3.778823  -3.626479  0.700848
N    -1.924191  -3.602469  -0.724006
H    -0.196446  -1.600204  3.235960
H    -0.470837  -2.439301  1.718143
H    -2.270689  -0.452094  3.237470
H    -2.566305  -2.141321  2.875118
H    -2.807100  0.319707  1.036225
H    -4.067038  -0.814457  1.519977
H    -3.370361  -1.100779  -0.747082
H    -4.404070  -3.077782  1.293930
H    -2.046773  -4.614666  -0.800792
H    -1.678592  -3.177092  -1.617594
O    2.429216  -1.212864  1.421498
H    0.569437  -1.345875  -0.304948
Cd    4.007779  -0.414010  2.872605
