27
Energy: -170625.927279 eV PBE+vdW (tier 2 basis)
N    0.743789  -0.379397  0.766701
C    0.090396  -0.936125  2.031986
C    1.254551  -1.273972  2.997691
O    0.961896  -1.858944  4.079140
H    0.272478  0.460106  0.402891
H    0.779799  -1.080673  0.012028
H    -0.457030  -0.098152  2.491151
C    -0.849146  -2.111500  1.758126
C    -2.120679  -1.737556  0.980376
C    -3.113456  -2.924869  0.922785
N    -4.368463  -2.598159  0.267224
C    -5.420317  -1.954788  0.873887
N    -5.465142  -1.549020  2.131139
N    -6.509463  -1.662379  0.115053
H    -1.117059  -2.508476  2.748918
H    -0.292525  -2.919640  1.252483
H    -1.890977  -1.427117  -0.052678
H    -2.618111  -0.882047  1.466135
H    -3.320223  -3.297671  1.937931
H    -2.671921  -3.768082  0.373637
H    -4.428748  -2.779570  -0.732745
H    -4.675141  -1.894109  2.687291
H    -7.297645  -1.245113  0.606428
H    -6.685754  -2.081261  -0.793444
O    2.419612  -0.909075  2.656346
H    1.730631  -0.150908  1.032458
Cd    3.148854  -1.808353  4.801413
