27
Energy: -170625.369951 eV PBE+vdW (tier 2 basis)
N    0.584348  0.134489  -0.130965
C    -0.254962  0.287280  1.084364
C    0.455512  1.208352  2.099116
O    1.682116  1.357425  2.143718
H    0.429043  -0.780351  -0.568764
H    0.348729  0.839628  -0.839698
H    -1.207049  0.772462  0.808136
C    -0.512975  -1.087244  1.760992
C    -1.623605  -1.946892  1.124729
C    -3.047825  -1.516860  1.544048
N    -4.092591  -2.410682  1.068387
C    -4.519623  -3.537384  1.729316
N    -4.007412  -4.039873  2.840397
N    -5.546939  -4.241062  1.188259
H    -0.742025  -0.927756  2.826207
H    0.438254  -1.644576  1.756098
H    -1.462224  -2.987622  1.442501
H    -1.551620  -1.959760  0.024573
H    -3.295046  -0.515849  1.159033
H    -3.114613  -1.446896  2.641444
H    -4.502857  -2.204676  0.159814
H    -3.291846  -3.440173  3.265513
H    -5.846649  -5.069227  1.700118
H    -6.149966  -3.887359  0.451036
O    -0.269048  1.826604  3.010084
H    -1.234160  1.708475  2.886141
Cd    2.925438  0.457092  0.468090
