27
Energy: -170625.769521 eV PBE+vdW (tier 2 basis)
N    0.266513  0.998546  0.902425
C    -0.548499  0.382794  1.938687
C    0.953756  1.006273  2.204402
O    0.879702  1.985995  3.051669
H    -0.077341  1.947305  0.700006
H    -0.273256  -3.764500  -2.801172
H    -1.355063  0.990380  2.362539
C    -0.696127  -1.108377  2.037155
C    -2.041857  -1.601417  1.442299
C    -2.180367  -1.526852  -0.087489
N    -1.317113  -2.461259  -0.831256
C    -1.670152  -3.679005  -1.283745
N    -0.906257  -4.288935  -2.205115
N    -2.768428  -4.295525  -0.825337
H    -0.683163  -1.384347  3.102725
H    0.155876  -1.622121  1.569347
H    -2.873458  -1.028253  1.880327
H    -2.179717  -2.638716  1.785613
H    -1.945148  -0.522112  -0.464211
H    -3.222149  -1.718853  -0.381018
H    -0.396028  -2.131166  -1.106748
H    -1.026167  -5.275360  -2.417172
H    -3.239914  -3.997171  0.021112
H    -3.149274  -5.106531  -1.304454
O    2.042344  0.191324  2.305515
H    2.227635  -0.207055  1.430885
Cd    2.567789  3.396100  3.189063
