27
Energy: -170626.070627 eV PBE+vdW (tier 2 basis)
N    0.582068  -1.198224  -0.426072
C    0.375764  -0.680480  0.949706
C    0.991604  -1.679660  1.932306
O    1.401335  -2.795622  1.627128
H    1.579337  -1.361849  -0.601718
H    0.284597  -0.489212  -1.104821
H    0.917336  0.268649  1.102076
C    -1.123498  -0.404267  1.233675
C    -2.084431  -1.599168  1.394358
C    -2.366623  -2.460113  0.140065
N    -1.152783  -3.171722  -0.274278
C    -0.897740  -4.456887  -0.156662
N    0.331325  -4.949264  0.019980
N    -1.894835  -5.489160  -0.252481
H    -1.490401  0.270929  0.443484
H    -1.168762  0.180693  2.162936
H    -3.057751  -1.194206  1.709682
H    -1.754303  -2.260160  2.212217
H    -2.673201  -1.816298  -0.700380
H    -3.183447  -3.164009  0.345794
H    -0.292105  -2.442158  -0.437858
H    1.084604  -4.292646  0.283581
H    -2.218059  -5.821435  0.664056
H    -2.709264  -5.237196  -0.822791
O    1.035450  -1.180194  3.166779
H    1.466558  -1.829153  3.766679
Cd    0.149627  -6.896012  -0.799273
