27
Energy: -170625.908285 eV PBE+vdW (tier 2 basis)
N    -0.053611  -0.957132  -0.297249
C    -0.201253  -0.194523  0.924597
C    1.223935  0.308497  1.353252
O    1.399658  1.048820  2.316684
H    -0.446497  -0.537572  -1.140347
H    -0.276193  -1.952083  -0.239603
H    -0.766881  0.729364  0.720481
C    -0.917301  -1.005329  2.035641
C    -1.128096  -0.296701  3.395919
C    -0.039604  -0.653663  4.421495
N    -0.105233  0.114118  5.690572
C    0.336733  1.350334  5.920207
N    0.315969  1.996727  7.072823
N    0.924087  2.138050  4.866140
H    -0.388014  -1.961875  2.182654
H    -1.902412  -1.264574  1.624051
H    -2.104191  -0.601245  3.799144
H    -1.182210  0.791562  3.247213
H    0.968671  -0.535125  4.007261
H    -0.133860  -1.705337  4.721295
H    -0.481450  -0.385259  6.497505
H    -0.120024  1.572770  7.895696
H    0.192414  2.684270  4.391401
H    1.390404  1.606939  4.107230
O    2.217506  -0.108652  0.603056
H    1.779885  -0.654193  -0.120577
Cd    1.745759  3.586835  6.671102
