27
Energy: -170625.825955 eV PBE+vdW (tier 2 basis)
N    0.014954  0.694457  -0.165835
C    0.210566  0.390632  1.244164
C    1.583795  -0.330248  1.522208
O    2.165733  -0.040546  2.614509
H    -1.645695  0.987648  -0.640089
H    0.615062  1.467658  -0.471180
H    0.273372  1.335155  1.800223
C    -0.919997  -0.459616  1.873403
C    -1.321282  -1.799117  1.214107
C    -2.513592  -1.783226  0.234385
N    -2.187415  -1.503952  -1.184373
C    -2.549769  -0.409769  -1.927709
N    -2.711078  -0.198518  -3.166416
N    -2.610780  0.856062  -1.116061
H    -1.796019  0.206458  1.947019
H    -0.626795  -0.644036  2.916727
H    -1.619912  -2.473781  2.029245
H    -0.461448  -2.292215  0.732262
H    -3.294344  -1.092855  0.587090
H    -2.985626  -2.774744  0.246149
H    -2.081218  -2.341976  -1.755698
H    -2.678786  -1.027154  -3.769926
H    -2.791324  1.605771  -1.803410
H    -3.368320  0.865246  -0.419112
O    2.038560  -1.165269  0.684301
H    0.241813  -0.115234  -0.755212
Cd    3.823468  -1.451018  2.100355
