27
Energy: -170627.549719 eV PBE+vdW (tier 2 basis)
N    0.627378  0.344527  2.001659
C    0.348893  -1.054825  1.887357
C    1.120014  -1.971347  2.953630
O    1.459444  -3.124020  2.549133
H    -0.417684  1.568955  0.336582
H    0.366416  0.744594  2.907812
H    0.732667  -1.415091  0.923299
C    -1.151160  -1.405955  2.060058
C    -2.090643  -0.494715  1.251522
C    -1.831177  -0.503002  -0.266462
N    -2.463151  0.625994  -0.957379
C    -1.913195  1.846258  -1.078283
N    -0.777854  2.147050  -0.426629
N    -2.493062  2.762624  -1.869554
H    -1.429028  -1.320282  3.121432
H    -1.286106  -2.460517  1.778903
H    -2.020215  0.533405  1.635625
H    -3.123471  -0.817002  1.448460
H    -2.218050  -1.420904  -0.727833
H    -0.758697  -0.468992  -0.506392
H    -3.413980  0.506125  -1.298676
H    -0.266954  2.993479  -0.656666
H    -3.204854  2.505116  -2.546337
H    -2.219678  3.739775  -1.835781
O    1.325339  -1.535261  4.118355
H    1.601107  0.583796  1.801627
Cd    2.321847  -3.547206  4.590609
