27
Energy: -170627.057344 eV PBE+vdW (tier 2 basis)
N    0.638477  -0.424901  -0.291542
C    0.677521  -0.199814  1.187359
C    2.108723  -0.563520  1.633773
O    2.724380  -1.499670  1.094529
H    -0.310461  -0.271148  -0.647137
H    1.225934  0.273867  -0.766267
H    0.463077  0.859615  1.403194
C    -0.291064  -1.115075  2.003972
C    -1.769453  -1.235171  1.575715
C    -2.192117  -2.041746  0.327156
N    -2.185017  -3.530910  0.364574
C    -1.165968  -4.270597  -0.160776
N    0.118177  -4.100093  0.253331
N    -1.423054  -5.222290  -1.060132
H    -0.289204  -0.705332  3.025334
H    0.160072  -2.112478  2.119444
H    -2.185053  -0.223737  1.436595
H    -2.311636  -1.647778  2.439616
H    -1.650920  -1.740301  -0.582431
H    -3.240582  -1.776483  0.137088
H    -3.114313  -3.948963  0.296222
H    0.085454  -3.877448  1.253836
H    -0.737671  -5.961897  -1.209541
H    -2.322664  -5.306153  -1.529499
O    2.681973  0.061880  2.633054
H    2.160312  0.819801  2.975070
Cd    1.467873  -2.605124  -0.409992
