27
Energy: -170626.268396 eV PBE+vdW (tier 2 basis)
N    0.658427  0.682556  0.695461
C    0.064879  -0.524898  1.365802
C    1.082506  -1.666016  1.601147
O    2.185854  -1.765070  0.914736
H    -0.038445  1.169025  0.118402
H    0.979077  1.362173  1.397103
H    -0.260928  -0.217522  2.383622
C    -1.149945  -1.085451  0.567244
C    -2.432381  -1.361622  1.385804
C    -2.509339  -2.622813  2.247910
N    -1.633275  -2.607818  3.504377
C    -1.913541  -1.516948  4.484009
N    -1.245323  -0.448477  4.275579
N    -2.879017  -1.832708  5.380371
H    -0.858215  -1.989091  0.008661
H    -1.432485  -0.343505  -0.195709
H    -3.246668  -1.487051  0.655839
H    -2.702569  -0.475486  1.977860
H    -2.187421  -3.514075  1.691603
H    -3.542633  -2.778529  2.582142
H    -1.697771  -3.531965  3.956624
H    -1.436097  0.292245  4.958734
H    -3.109348  -1.163349  6.111649
H    -3.161847  -2.791114  5.567540
O    0.779776  -2.533208  2.430518
H    -0.607358  -2.507602  3.179752
Cd    2.498113  -0.134893  -0.392295
