27
Energy: -170625.873677 eV PBE+vdW (tier 2 basis)
N    2.464994  -1.427251  0.942354
C    1.191309  -0.885156  0.341392
C    1.192586  0.672059  0.254775
O    2.312226  1.341510  0.194021
H    2.370221  -1.504939  1.964361
H    2.651091  -2.378555  0.601619
H    1.196835  -1.225005  -0.708666
C    -0.064905  -1.430391  1.079231
C    -1.241522  -1.908632  0.199424
C    -1.915000  -0.943678  -0.777701
N    -2.428261  0.330344  -0.127978
C    -3.344042  0.124168  1.098837
N    -4.374605  -0.598868  1.107408
N    -2.816434  0.766133  2.186093
H    -0.402589  -0.687322  1.815594
H    0.235247  -2.314806  1.659750
H    -2.000691  -2.314257  0.885112
H    -0.919499  -2.765249  -0.413723
H    -2.764882  -1.443278  -1.259626
H    -1.242642  -0.601266  -1.576295
H    -2.952521  0.879557  -0.826478
H    -4.617431  -1.105496  0.253773
H    -2.338594  1.656450  2.055294
H    -3.431025  0.748923  3.002083
O    0.112828  1.264873  0.188760
H    -1.560721  0.870831  0.120265
Cd    4.045469  0.171095  0.473213
