27
Energy: -170625.964658 eV PBE+vdW (tier 2 basis)
N    0.857472  -0.456775  0.337182
C    -0.092680  -0.050165  1.324429
C    0.562758  0.376096  2.680559
O    -0.048669  0.405964  3.740142
H    1.279270  -1.381710  0.423337
H    1.483131  0.245875  -0.055151
H    -0.548568  0.891607  0.963429
C    -1.189823  -1.126273  1.552713
C    -2.644552  -0.620346  1.520776
C    -3.066236  0.430022  2.560969
N    -2.817378  0.010339  3.954646
C    -3.690215  -0.297603  4.904436
N    -3.413610  -0.585303  6.163781
N    -5.114709  -0.355935  4.634298
H    -0.985431  -1.674977  2.483275
H    -1.097162  -1.857361  0.738473
H    -3.300756  -1.500392  1.608801
H    -2.859557  -0.183263  0.532539
H    -4.128116  0.672269  2.431532
H    -2.517122  1.374101  2.427953
H    -1.811397  0.036010  4.195247
H    -2.444072  -0.541643  6.488358
H    -5.344597  -0.963707  3.838934
H    -5.506727  0.573530  4.436169
O    1.834567  0.732352  2.537006
H    2.194030  1.030500  3.403495
Cd    -5.347382  -1.113917  7.010178
