27
Energy: -170626.65007 eV PBE+vdW (tier 2 basis)
N    0.443510  -0.722016  0.395642
C    -0.270320  -0.517213  1.700706
C    0.641545  0.441128  2.493819
O    1.010484  1.488089  1.926323
H    1.355233  -1.177247  0.529224
H    -0.106659  -1.321576  -0.228664
H    -1.111818  0.158991  1.486844
C    -0.932948  -1.757186  2.314668
C    -2.016179  -2.361096  1.377009
C    -3.297635  -1.541690  1.058416
N    -3.097086  -0.164830  0.530804
C    -2.407614  0.205302  -0.569300
N    -1.911249  1.456712  -0.765895
N    -2.068365  -0.743418  -1.482899
H    -1.401674  -1.469913  3.270671
H    -0.193059  -2.543684  2.533057
H    -2.382699  -3.283196  1.852103
H    -1.542525  -2.715297  0.448080
H    -3.898776  -1.409070  1.966585
H    -3.929833  -2.120234  0.367212
H    -3.362562  0.592412  1.157772
H    -2.422366  2.171674  -0.238213
H    -2.604919  -1.609626  -1.508857
H    -1.835993  -0.377289  -2.406736
O    1.003285  0.235654  3.734419
H    0.697927  -0.626356  4.091110
Cd    0.197608  1.521817  -0.206382
