27
Energy: -170627.939372 eV PBE+vdW (tier 2 basis)
N    0.961815  -0.780321  -0.481295
C    0.776651  -0.213074  0.880765
C    1.941102  -0.714454  1.755309
O    2.513904  -1.797703  1.532874
H    0.090438  -0.697882  -1.015780
H    1.676946  -0.255898  -1.000644
H    0.810457  0.887969  0.840738
C    -0.590753  -0.632440  1.495182
C    -0.833509  -2.134260  1.811373
C    -1.817673  -2.924689  0.933360
N    -1.516173  -3.077805  -0.530601
C    -0.931811  -4.235293  -1.021062
N    0.286042  -4.567809  -0.588136
N    -1.592065  -4.946690  -1.944894
H    -1.371914  -0.243059  0.823629
H    -0.705470  -0.056216  2.423722
H    -1.267148  -2.191842  2.821606
H    0.108618  -2.696685  1.941716
H    -2.800374  -2.436889  0.976695
H    -1.940918  -3.923895  1.374492
H    -2.294393  -2.766114  -1.111542
H    0.599096  -5.512799  -0.817082
H    -1.126906  -5.671116  -2.489130
H    -2.601907  -4.876996  -2.051346
O    2.325408  -0.026769  2.802812
H    1.876284  0.841978  2.889360
Cd    1.535337  -2.974161  -0.056234
