27
Energy: -170626.247146 eV PBE+vdW (tier 2 basis)
N    1.246658  -0.742483  1.200573
C    0.046284  -0.227763  1.873100
C    0.286891  -0.276264  3.382361
O    1.404302  -0.562801  3.855490
H    1.149838  -0.612840  0.188101
H    2.063581  -0.183552  1.466541
H    -0.111672  0.854779  1.682063
C    -1.250004  -0.951840  1.347010
C    -1.082311  -2.372944  0.759132
C    -1.397280  -3.596496  1.636111
N    -0.869214  -3.587468  3.024523
C    0.391444  -3.609366  3.464055
N    0.756840  -3.790854  4.726042
N    1.494958  -3.289539  2.607625
H    -1.630045  -0.313354  0.539128
H    -2.039572  -0.940053  2.114335
H    -0.094091  -2.483943  0.295879
H    -1.785848  -2.460727  -0.082096
H    -1.064179  -4.513147  1.128487
H    -2.482380  -3.686943  1.768013
H    -1.576159  -3.733100  3.746414
H    0.063220  -4.095757  5.414762
H    1.346441  -2.532895  1.885771
H    1.937796  -4.124786  2.206794
O    -0.674912  0.055096  4.224031
H    -1.485709  0.372521  3.769872
Cd    2.386125  -2.366257  4.665561
