27
Energy: -170625.594428 eV PBE+vdW (tier 2 basis)
N    0.342702  -0.675971  -0.354991
C    -0.123045  -0.017678  0.832830
C    1.076068  0.260272  1.782766
O    2.236673  0.397827  1.303853
H    -0.408796  -0.975096  -0.977516
H    1.054122  -0.160860  -0.877155
H    -0.487700  1.022257  0.664369
C    -1.259038  -0.801694  1.523780
C    -1.029652  -2.315952  1.745498
C    0.266116  -2.766132  2.422439
N    0.408789  -2.170605  3.833327
C    1.663558  -2.450969  4.625528
N    1.726376  -2.882289  5.796303
N    2.860654  -2.041676  3.942426
H    -2.156386  -0.703889  0.895222
H    -1.517376  -0.286685  2.459665
H    -1.025139  -2.842434  0.779282
H    -1.897183  -2.722578  2.288046
H    1.139200  -2.438744  1.840877
H    0.302683  -3.857827  2.530158
H    -0.394276  -2.471223  4.406646
H    0.860050  -3.116250  6.293723
H    3.640113  -2.361235  4.536342
H    2.968966  -2.503829  3.029533
O    0.858421  0.334769  3.051617
H    0.351177  -1.113568  3.705874
Cd    3.140048  0.406272  3.369267
