27
Energy: -170625.678056 eV PBE+vdW (tier 2 basis)
N    -0.339319  -0.890389  -0.446031
C    -0.083641  -0.642789  0.936758
C    1.437541  -0.581074  1.102412
O    2.222216  -1.177385  0.413724
H    0.357675  -1.424655  -0.969608
H    -1.295849  -0.913311  -0.791732
H    -0.540727  0.321444  1.219554
C    -0.685371  -1.779807  1.856712
C    -0.485552  -1.671348  3.377650
C    -1.163700  -0.507887  4.110095
N    -0.377585  0.747544  4.030291
C    -0.701163  1.870154  4.663997
N    -1.759487  2.101452  5.411097
N    0.175180  3.024626  4.566389
H    -0.250488  -2.729567  1.514066
H    -1.760796  -1.821710  1.626861
H    0.578219  -1.719818  3.656811
H    -0.925361  -2.589771  3.796377
H    -1.269060  -0.769270  5.175140
H    -2.171101  -0.321770  3.702044
H    0.504676  0.713967  3.501342
H    -2.448359  1.360061  5.559327
H    0.278767  3.357737  3.599465
H    1.117386  2.830123  4.928754
O    1.813734  0.218322  2.162168
H    2.796021  0.170944  2.205199
Cd    -1.464384  4.170471  6.066357
