27
Energy: -170626.890203 eV PBE+vdW (tier 2 basis)
N    1.576527  -0.579211  0.858986
C    0.776649  0.103627  1.875306
C    1.566685  0.597009  3.121566
O    2.583300  0.034543  3.538856
H    -4.924134  -4.320896  3.004688
H    1.874058  0.104905  0.148623
H    0.309250  0.995293  1.417784
C    -0.329650  -0.896342  2.345319
C    -1.334279  -0.390988  3.393631
C    -2.469706  -1.381645  3.694148
N    -3.437957  -1.456496  2.585088
C    -4.308378  -2.464695  2.377471
N    -4.389234  -3.488948  3.238818
N    -5.070699  -2.461641  1.272766
H    0.177334  -1.799149  2.724890
H    -0.843509  -1.198718  1.421949
H    -1.779414  0.572972  3.088058
H    -0.836356  -0.202390  4.356372
H    -2.981789  -1.068380  4.618067
H    -2.054253  -2.387951  3.852631
H    -3.655703  -0.579980  2.113608
H    -4.095102  -3.392373  4.205470
H    -5.887796  -3.060376  1.193358
H    -4.875531  -1.840772  0.493622
O    1.099884  1.623828  3.815767
H    0.345813  2.057835  3.365749
Cd    3.388072  -1.256915  1.775935
