27
Energy: -170626.932794 eV PBE+vdW (tier 2 basis)
N    1.443632  -1.394826  -0.309812
C    0.725668  -0.277653  0.323530
C    1.717728  0.220948  1.423468
O    1.563969  1.242218  2.168507
H    0.939886  -2.283979  -0.284351
H    1.736251  -1.210207  -1.272299
H    0.617558  0.559071  -0.389282
C    -0.657481  -0.656195  0.897027
C    -1.802972  -0.686519  -0.145220
C    -3.158231  -0.169004  0.385494
N    -3.027217  1.245409  0.800112
C    -2.774733  1.707441  2.034213
N    -2.145765  2.922131  2.274042
N    -3.038898  0.976589  3.127308
H    -0.905272  0.064303  1.693744
H    -0.577516  -1.618409  1.427384
H    -1.961824  -1.706338  -0.523852
H    -1.528822  -0.083444  -1.026181
H    -3.527473  -0.771885  1.223954
H    -3.922218  -0.227036  -0.400428
H    -2.789635  1.888640  0.044766
H    -2.351799  3.625729  1.555721
H    -3.042454  1.472759  4.017921
H    -3.584403  0.118908  3.084391
O    2.773347  -0.484789  1.513870
H    2.573052  -1.203098  0.721929
Cd    -0.100297  2.472111  2.318663
