27
Energy: -170625.999984 eV PBE+vdW (tier 2 basis)
N    -2.026649  0.157816  1.321109
C    -0.852271  -0.149836  2.071986
C    0.359775  0.771915  1.755019
O    1.270959  0.953484  2.557636
H    -2.583878  0.966073  1.592052
H    -2.028215  -0.032234  0.318991
H    -1.074306  0.032718  3.135543
C    -0.462251  -1.642587  1.851061
C    0.796660  -2.206670  2.533698
C    0.836582  -2.211909  4.071152
N    1.327734  -0.916921  4.606005
C    1.850230  -0.692841  5.804131
N    2.440287  0.418498  6.211216
N    1.803428  -1.699047  6.843779
H    -0.352068  -1.806212  0.767637
H    -1.344261  -2.222372  2.160815
H    1.717140  -1.743070  2.146659
H    0.857330  -3.259309  2.221434
H    1.517321  -3.008486  4.401153
H    -0.162873  -2.424873  4.485815
H    1.359522  -0.131880  3.917048
H    2.583283  1.182993  5.545758
H    2.504336  -2.436345  6.691969
H    0.888142  -2.158656  6.920201
O    0.311229  1.305656  0.542041
H    1.113395  1.855445  0.387898
Cd    2.672123  0.113901  8.348151
