27
Energy: -170627.475425 eV PBE+vdW (tier 2 basis)
N    0.551210  -1.005316  2.715127
C    0.528623  0.400046  3.029302
C    1.565980  1.225428  2.141149
O    2.325815  2.020240  2.770568
H    -1.181077  -1.875436  3.424104
H    0.529340  -1.198829  1.709991
H    0.880714  0.536149  4.059076
C    -0.855818  1.081363  2.889848
C    -1.666741  0.851425  1.605337
C    -2.437881  -0.477399  1.485688
N    -3.370133  -0.727160  2.596419
C    -3.246824  -1.675054  3.543497
N    -2.065615  -2.263717  3.778308
N    -4.321694  -2.021808  4.271391
H    -0.705576  2.161015  3.034930
H    -1.435433  0.757707  3.770341
H    -1.032935  0.948436  0.708861
H    -2.395456  1.672838  1.528805
H    -1.781724  -1.351428  1.403107
H    -3.032466  -0.457591  0.561361
H    -4.242791  -0.202461  2.592403
H    -2.024127  -3.118667  4.324743
H    -5.265511  -1.819207  3.955910
H    -4.225938  -2.562318  5.125797
O    1.580082  1.067253  0.887699
H    1.352710  -1.493629  3.122462
Cd    3.295233  2.613364  0.826939
