27
Energy: -170626.077581 eV PBE+vdW (tier 2 basis)
N    -0.871177  0.310612  -0.130617
C    -0.575711  0.284691  1.296000
C    0.947815  0.498044  1.448365
O    1.472885  0.763328  2.534963
H    -1.239509  1.202259  -0.468691
H    -1.465536  -0.451877  -0.460345
H    -1.063178  1.108721  1.841281
C    -0.994471  -1.074665  1.926598
C    -0.440905  -1.373595  3.336275
C    0.888875  -2.162358  3.306779
N    1.683556  -1.973990  4.542420
C    2.780033  -1.238437  4.714031
N    3.372315  -0.960995  5.865015
N    3.463524  -0.637521  3.585717
H    -0.719903  -1.885650  1.231166
H    -2.092334  -1.065401  1.970390
H    -1.187815  -1.959799  3.888888
H    -0.300587  -0.435635  3.891724
H    1.518547  -1.878725  2.456221
H    0.701803  -3.241065  3.212062
H    1.273039  -2.371258  5.390340
H    2.968463  -1.279871  6.749831
H    2.814340  0.043920  3.067584
H    3.782322  -1.342083  2.906569
O    1.651311  0.298963  0.353764
H    0.939746  0.180968  -0.362012
Cd    5.014689  0.237991  5.126667
