27
Energy: -170627.550981 eV PBE+vdW (tier 2 basis)
N    0.299990  1.162203  0.379399
C    0.884936  0.239585  1.261590
C    1.647700  -0.920538  0.376500
O    0.960099  -1.855582  -0.103050
H    -0.519598  0.882193  -0.158233
H    0.895520  1.849689  -0.078088
H    1.708812  0.724394  1.801819
C    -0.126722  -0.407638  2.220938
C    0.507591  -1.305609  3.291056
C    -0.505297  -1.850719  4.314356
N    -1.160071  -0.822433  5.142027
C    -0.782601  -0.424516  6.369861
N    -1.621451  0.314086  7.113935
N    0.425150  -0.741436  6.859896
H    -0.872635  -0.971421  1.638266
H    -0.645341  0.440404  2.695043
H    1.308262  -0.753639  3.811407
H    0.981936  -2.184960  2.827671
H    -0.027050  -2.580084  4.982770
H    -1.310846  -2.395450  3.802151
H    -2.025848  -0.422069  4.789464
H    -2.616593  0.350925  6.915181
H    0.627186  -0.645935  7.850757
H    1.149935  -1.143503  6.277365
O    2.878713  -0.734765  0.187680
H    -1.301867  0.788628  7.953282
Cd    2.888062  -2.518584  -1.264768
