27
Energy: -170626.881245 eV PBE+vdW (tier 2 basis)
N    0.761552  -1.350250  -0.195045
C    0.251577  -1.093140  1.148070
C    1.227557  -1.406522  2.325011
O    2.135508  -2.239812  2.240586
H    1.270895  -0.516202  -0.522512
H    -2.778301  0.487483  -1.844961
H    0.018485  -0.014177  1.228643
C    -1.016619  -1.963450  1.398826
C    -2.198974  -1.674871  0.458289
C    -2.954949  -0.376116  0.791304
N    -4.275312  -0.291901  0.145798
C    -4.613389  0.463352  -0.913158
N    -3.668776  0.959600  -1.731712
N    -5.904101  0.744543  -1.141718
H    -1.339427  -1.874281  2.448732
H    -0.722347  -3.017370  1.267788
H    -2.901648  -2.516715  0.548723
H    -1.846522  -1.673246  -0.584575
H    -2.392007  0.527199  0.515980
H    -3.139924  -0.313293  1.874639
H    -5.032084  -0.812149  0.586078
H    -3.906367  1.667422  -2.420901
H    -6.221599  1.067919  -2.051390
H    -6.606539  0.647247  -0.413871
O    1.040365  -0.813570  3.490575
H    0.331166  -0.138569  3.455620
Cd    2.319265  -2.819664  0.013590
