27
Energy: -170627.897293 eV PBE+vdW (tier 2 basis)
N    -0.528390  -0.483116  0.371726
C    -0.385536  -0.098625  1.796777
C    1.124611  -0.045866  2.095168
O    1.911622  -0.861143  1.572168
H    -1.494271  -0.764859  0.172891
H    -0.316110  0.308431  -0.247914
H    -0.851538  0.882312  1.981869
C    -0.987261  -1.174911  2.756142
C    -2.306402  -1.875791  2.342590
C    -2.186228  -3.271316  1.692121
N    -2.132822  -3.302675  0.198173
C    -1.295463  -4.150041  -0.496656
N    0.020557  -4.123863  -0.250618
N    -1.828278  -4.940251  -1.439953
H    -1.140458  -0.673259  3.721465
H    -0.229168  -1.950523  2.963158
H    -2.961804  -1.219131  1.747309
H    -2.867387  -2.033389  3.274713
H    -3.062316  -3.864641  1.991363
H    -1.306507  -3.809115  2.071253
H    -3.058888  -3.229694  -0.226351
H    0.547557  -4.914494  -0.624539
H    -1.245708  -5.399132  -2.137416
H    -2.812615  -5.199240  -1.427945
O    1.616021  0.804748  2.959047
H    0.952921  1.444114  3.299507
Cd    0.905136  -2.300945  0.260161
