27
Energy: -170627.833164 eV PBE+vdW (tier 2 basis)
N    0.588320  1.065802  0.978419
C    0.350791  0.151313  2.141697
C    0.958441  -1.216349  1.795178
O    1.122895  -1.582268  0.626670
H    0.053170  1.934955  1.098698
H    1.577311  1.346101  0.942949
H    0.883075  0.548833  3.021358
C    -1.165312  0.066890  2.511073
C    -2.247784  -0.020598  1.401333
C    -2.785441  -1.379669  0.919447
N    -1.895208  -2.282110  0.118699
C    -1.917603  -2.272798  -1.268083
N    -1.491666  -1.169210  -1.888213
N    -2.307517  -3.374502  -1.919483
H    -1.369722  0.978702  3.090419
H    -1.295455  -0.759537  3.226224
H    -2.022917  0.631926  0.538469
H    -3.135568  0.471042  1.830226
H    -3.700029  -1.184095  0.341560
H    -3.087904  -1.972207  1.793227
H    -1.856001  -3.226439  0.502098
H    -1.675128  -1.106284  -2.891196
H    -2.128047  -3.498304  -2.914585
H    -2.871248  -4.089644  -1.464813
O    1.276917  -2.046321  2.768535
H    1.201947  -1.650495  3.663206
Cd    0.002833  -0.191039  -0.793859
