27
Energy: -170625.951677 eV PBE+vdW (tier 2 basis)
N    0.030795  0.386227  0.369107
C    0.151695  -0.293026  1.613476
C    1.646117  -0.604087  2.028720
O    1.912924  -1.382866  2.916224
H    0.275185  -0.123700  -0.480599
H    0.288064  1.371991  0.332814
H    -0.185402  0.391557  2.412554
C    -0.664608  -1.599782  1.663720
C    -2.179508  -1.345670  1.630645
C    -3.036192  -2.612977  1.636804
N    -2.971074  -3.320640  2.937421
C    -3.661504  -4.424392  3.228923
N    -4.469453  -5.090379  2.438136
N    -3.554489  -5.005097  4.551568
H    -0.349831  -2.129738  2.575229
H    -0.369029  -2.243251  0.817545
H    -2.442589  -0.794888  0.715834
H    -2.484857  -0.693238  2.466259
H    -2.705731  -3.308075  0.847485
H    -4.087352  -2.344214  1.447459
H    -2.398907  -2.910207  3.673644
H    -4.615710  -4.764409  1.479875
H    -2.599906  -5.319427  4.766203
H    -3.844660  -4.355190  5.292759
O    2.518739  0.111592  1.315327
H    3.429594  -0.077423  1.638322
Cd    -5.212779  -6.730195  3.716739
