27
Energy: -170625.904826 eV PBE+vdW (tier 2 basis)
N    -0.686926  0.531091  0.637605
C    0.055170  -0.207250  1.751794
C    1.543765  0.199920  1.608104
O    2.401048  -0.396925  2.318362
H    -0.824980  -0.068803  -0.190300
H    -1.609558  0.878937  0.935205
H    -0.293217  0.238228  2.697114
C    -0.258209  -1.711002  1.715480
C    0.138339  -2.459264  2.999428
C    -0.325461  -3.933488  2.957497
N    0.049848  -4.686284  4.145265
C    -0.645136  -4.682456  5.328086
N    -1.765674  -4.022614  5.573601
N    -0.132408  -5.385560  6.372070
H    0.230433  -2.166231  0.837670
H    -1.346917  -1.814529  1.565837
H    -0.311080  -1.963964  3.875258
H    1.227413  -2.423387  3.137726
H    0.122400  -4.452504  2.098178
H    -1.415767  -4.001237  2.818832
H    0.956030  -5.150164  4.125548
H    -2.172862  -3.608854  4.727544
H    -0.701269  -5.413293  7.216073
H    0.599952  -6.082076  6.270128
O    1.802157  1.152457  0.807996
H    -0.075175  1.326697  0.347094
Cd    4.096972  0.992763  1.507622
