27
Energy: -170626.870774 eV PBE+vdW (tier 2 basis)
N    0.188953  -0.791060  0.149949
C    -0.020573  0.022055  1.347473
C    1.265235  0.443387  2.127516
O    2.335914  -0.168955  2.052158
H    -4.324752  0.570868  0.006442
H    0.275638  -0.165229  -0.664619
H    -0.508565  0.970164  1.050336
C    -0.914129  -0.751821  2.362425
C    -2.419317  -0.784177  2.043010
C    -2.829100  -1.589316  0.795204
N    -4.265812  -1.917760  0.788001
C    -5.246941  -1.265995  0.142647
N    -5.040977  -0.039849  -0.368560
N    -6.441413  -1.855064  -0.017497
H    -0.804238  -0.319807  3.368467
H    -0.521162  -1.779855  2.432274
H    -2.809247  0.246233  1.984437
H    -2.914693  -1.235268  2.916711
H    -2.292045  -2.547258  0.766267
H    -2.584922  -1.077863  -0.145137
H    -4.550970  -2.730103  1.331562
H    -5.720057  0.377651  -0.998292
H    -7.268481  -1.314988  -0.255770
H    -6.561351  -2.856778  0.100932
O    1.199206  1.463757  2.962887
H    0.330685  1.916740  2.935026
Cd    2.156286  -1.650466  0.308458
