27
Energy: -170627.824777 eV PBE+vdW (tier 2 basis)
N    -0.434638  -0.072532  1.060597
C    0.126122  -0.121730  2.441198
C    1.438494  -0.922530  2.338093
O    1.521098  -1.896745  1.571606
H    -1.381075  0.321196  1.083286
H    0.121650  0.560646  0.471491
H    0.313024  0.899652  2.808266
C    -0.785249  -0.904687  3.441311
C    -2.318503  -0.675990  3.381637
C    -3.114945  -1.922776  2.952090
N    -2.805709  -2.288485  1.540230
C    -2.775797  -3.649466  1.107198
N    -1.777162  -3.917309  0.287062
N    -3.678920  -4.520103  1.558978
H    -0.418050  -0.659420  4.447112
H    -0.583463  -1.983662  3.325850
H    -2.597783  0.183197  2.750471
H    -2.674349  -0.399477  4.383673
H    -4.190303  -1.736480  3.092461
H    -2.836578  -2.773743  3.589627
H    -3.359926  -1.735017  0.877000
H    -1.748482  -4.833083  -0.169531
H    -3.627047  -5.513349  1.335677
H    -4.514302  -4.206310  2.047788
O    2.465457  -0.639836  3.103116
H    2.339172  0.169573  3.643774
Cd    -0.397950  -2.297728  0.465259
