27
Energy: -170627.372293 eV PBE+vdW (tier 2 basis)
N    0.193490  0.938165  0.026274
C    0.188063  0.239687  1.365452
C    1.476098  -0.614075  1.580927
O    2.622768  -0.229444  1.059958
H    -0.159183  0.308282  -0.707391
H    -0.442235  1.745212  0.038559
H    0.242324  1.044586  2.119087
C    -1.097408  -0.589392  1.579831
C    -1.407656  -0.812654  3.072570
C    -2.417334  -1.933007  3.352600
N    -2.115713  -3.263903  2.764776
C    -1.213610  -4.156840  3.235438
N    -0.045406  -3.737692  3.740683
N    -1.499190  -5.466765  3.181353
H    -0.984473  -1.555856  1.063188
H    -1.944622  -0.065406  1.111069
H    -1.836463  0.103618  3.507272
H    -0.482312  -0.998240  3.631676
H    -3.401900  -1.665423  2.948089
H    -2.533297  -2.041701  4.441041
H    -2.870844  -3.673966  2.220003
H    0.555933  -4.398488  4.225969
H    -0.769678  -6.169604  3.267540
H    -2.457973  -5.799648  3.129049
O    1.430839  -1.617881  2.283981
H    0.407746  -2.900439  3.362885
Cd    2.427373  1.342273  -0.317755
