27
Energy: -170628.112042 eV PBE+vdW (tier 2 basis)
N    0.738280  0.614711  -0.038662
C    0.506341  0.196731  1.407531
C    1.772364  0.548530  2.185361
O    1.688268  0.789242  3.415110
H    1.714457  0.376008  -0.291644
H    0.091116  0.140965  -0.685373
H    -0.353883  0.763379  1.783033
C    0.250277  -1.330309  1.455773
C    -0.164337  -1.913808  2.833820
C    0.848060  -2.839634  3.528573
N    1.976091  -2.084859  4.084117
C    3.219231  -2.546193  4.385871
N    4.190260  -1.640301  4.573226
N    3.443468  -3.866459  4.438389
H    1.143976  -1.845812  1.070760
H    -0.562129  -1.534842  0.742116
H    -1.071983  -2.512001  2.685165
H    -0.462954  -1.112536  3.526662
H    1.240577  -3.582281  2.819266
H    0.316668  -3.386319  4.323871
H    1.726054  -1.200295  4.519823
H    5.042711  -1.972630  5.018867
H    4.388070  -4.232140  4.490793
H    2.690491  -4.523440  4.613193
O    2.882373  0.437854  1.555423
H    0.626574  1.630753  -0.168601
Cd    3.939579  0.165688  3.525536
