27
Energy: -170627.881106 eV PBE+vdW (tier 2 basis)
N    0.682181  -0.204803  0.313667
C    0.027955  -0.024309  1.681698
C    1.145090  -0.141238  2.722619
O    1.096634  0.532408  3.771254
H    1.239287  0.621596  0.043446
H    -0.011625  -0.373263  -0.431622
H    -0.431768  0.971937  1.701798
C    -0.994711  -1.167694  1.896805
C    -2.050303  -1.031289  3.021700
C    -1.660263  -0.812227  4.495781
N    -0.587439  -1.707506  4.971781
C    0.026778  -1.596325  6.191448
N    1.306273  -2.000625  6.278673
N    -0.638969  -1.048150  7.216403
H    -0.432234  -2.109735  1.996733
H    -1.582488  -1.266098  0.969567
H    -2.658861  -1.945632  2.949942
H    -2.736035  -0.207851  2.773376
H    -2.588081  -0.952764  5.073423
H    -1.312394  0.216939  4.661401
H    -0.433779  -2.593725  4.494209
H    1.663041  -2.148601  7.225014
H    -0.156688  -0.769628  8.067541
H    -1.656140  -1.036256  7.241193
O    2.010208  -1.078090  2.498328
H    1.332066  -1.012062  0.362041
Cd    2.434554  -1.251195  4.657891
