27
Energy: -170627.215899 eV PBE+vdW (tier 2 basis)
N    0.968681  0.890331  2.273596
C    0.921095  -0.290785  3.070802
C    2.271244  -1.013942  3.102471
O    2.549223  -1.896735  3.967712
H    0.069651  1.190927  1.902960
H    1.462408  1.681135  2.686251
H    0.717789  -0.112222  4.162694
C    -0.164642  -1.273771  2.531040
C    -1.599465  -0.992206  3.031640
C    -2.117983  -1.931903  4.126677
N    -1.342854  -1.772320  5.412815
C    -1.475303  -2.841469  6.375517
N    -0.347874  -3.490480  6.573748
N    -2.646660  -3.079184  6.957512
H    0.107541  -2.323391  2.749004
H    -0.118381  -1.204095  1.433929
H    -2.297036  -1.105642  2.189593
H    -1.705234  0.056132  3.354912
H    -2.009783  -2.981736  3.815404
H    -3.189295  -1.742914  4.294354
H    -1.585586  -0.873784  5.852088
H    -0.322144  -4.278686  7.227318
H    -2.767574  -3.820274  7.648065
H    -3.472647  -2.528063  6.735153
O    3.137190  -0.679408  2.196754
H    3.975418  -1.193240  2.292730
Cd    1.055582  -2.503787  5.330512
