27
Energy: -170625.85584 eV PBE+vdW (tier 2 basis)
N    1.575024  -0.702004  0.615133
C    1.053178  0.635561  0.797336
C    2.601850  0.169306  1.197328
O    3.447917  0.859471  0.501774
H    -3.846177  -0.951446  2.306394
H    1.782893  -0.871245  -0.378277
H    0.999537  1.272872  -0.091647
C    0.118289  0.969580  1.922932
C    -1.345635  0.722619  1.473263
C    -2.397930  1.324238  2.421219
N    -2.470561  0.708346  3.757153
C    -3.388218  -0.186809  4.168474
N    -4.104787  -0.896331  3.284979
N    -3.578159  -0.382487  5.483299
H    0.256015  2.033942  2.171703
H    0.354830  0.379078  2.818982
H    -1.505481  -0.358835  1.340616
H    -1.517240  1.189827  0.490996
H    -3.393936  1.262029  1.961030
H    -2.203083  2.395013  2.576333
H    -1.867117  1.091186  4.481161
H    -4.941725  -1.395728  3.572064
H    -4.106231  -1.180574  5.824864
H    -3.312083  0.319629  6.167411
O    2.933334  -0.107346  2.489233
H    2.491690  -0.941232  2.752763
Cd    5.513898  0.116446  0.224939
