27
Energy: -170625.982198 eV PBE+vdW (tier 2 basis)
N    -0.468168  -0.542422  -0.589863
C    -0.295089  -0.158249  0.797391
C    0.808062  0.948158  0.847238
O    1.333514  1.333571  1.892975
H    -1.427266  -0.545126  -0.937315
H    0.034859  -1.380783  -0.887552
H    -1.214956  0.359655  1.116311
C    -0.003243  -1.334962  1.771871
C    -0.417985  -1.092783  3.253964
C    0.700639  -1.145675  4.301004
N    1.547726  0.061395  4.203734
C    2.496295  0.469572  5.022848
N    3.335492  1.473883  4.794527
N    2.723210  -0.147308  6.315568
H    1.057059  -1.622839  1.694194
H    -0.577208  -2.190985  1.394653
H    -1.137975  -1.871829  3.540219
H    -0.961863  -0.141985  3.365316
H    1.321194  -2.046486  4.168002
H    0.246957  -1.191323  5.303291
H    1.434008  0.599916  3.299385
H    3.277384  1.982914  3.906511
H    3.236124  -1.034924  6.229373
H    1.852238  -0.346364  6.822713
O    1.134665  1.476633  -0.308499
H    0.599475  0.972333  -0.990693
Cd    4.195270  1.823161  6.729720
