27
Energy: -170626.699995 eV PBE+vdW (tier 2 basis)
N    1.182375  -1.253351  0.593678
C    0.761133  -0.664381  1.859146
C    1.890944  -0.731333  2.918733
O    2.791228  -1.577605  2.913330
H    0.373012  -1.670159  0.116797
H    -0.952489  3.367017  -0.246586
H    0.635523  0.423427  1.662052
C    -0.540190  -1.233032  2.495242
C    -1.843863  -1.037255  1.694802
C    -2.568951  0.307225  1.845886
N    -1.959638  1.392596  1.045408
C    -2.302709  2.697218  1.164259
N    -1.723742  3.608394  0.367657
N    -3.166919  3.092989  2.107729
H    -0.680795  -0.818658  3.507123
H    -0.382998  -2.314308  2.640772
H    -2.555222  -1.795229  2.053037
H    -1.712003  -1.273043  0.624747
H    -2.555857  0.613764  2.902944
H    -3.619410  0.170889  1.540340
H    -1.619796  1.120194  0.123439
H    -2.088861  4.554220  0.294611
H    -3.329217  4.081094  2.284231
H    -3.817301  2.442968  2.537839
O    1.878566  0.138260  3.914699
H    1.161750  0.798403  3.818564
Cd    2.603497  -2.794653  0.989865
