27
Energy: -170626.606082 eV PBE+vdW (tier 2 basis)
N    0.556238  0.056518  0.730744
C    -0.112841  -0.264455  1.975563
C    0.920306  -0.700838  3.018574
O    2.114818  -0.277137  2.953154
H    -0.104463  0.414878  0.037930
H    1.295630  0.752485  0.851641
H    -0.597519  0.602046  2.482382
C    -1.202732  -1.340264  1.772476
C    -0.793353  -2.589114  0.957556
C    0.482990  -3.342502  1.323702
N    0.456513  -3.872969  2.786125
C    1.658461  -4.629504  3.192356
N    2.638868  -3.977106  3.754344
N    1.612505  -5.932159  2.911528
H    -2.035725  -0.870487  1.229526
H    -1.620404  -1.609814  2.752440
H    -0.620711  -2.301057  -0.091147
H    -1.646243  -3.285389  0.932668
H    1.376786  -2.707159  1.255345
H    0.626092  -4.213521  0.671804
H    -0.392683  -4.441027  2.935453
H    3.447398  -4.575289  3.953720
H    2.385955  -6.552350  3.152743
H    0.828425  -6.368259  2.429932
O    0.572827  -1.539684  3.944394
H    0.360115  -2.982192  3.399184
Cd    2.807534  -1.817746  4.393392
