27
Energy: -170627.268498 eV PBE+vdW (tier 2 basis)
N    -0.139971  -2.331406  1.175272
C    -0.462332  -0.919305  1.581811
C    0.237250  -0.672268  2.917460
O    0.451549  -1.567673  3.744448
H    -0.701947  -2.589781  0.353756
H    0.841737  -2.406420  0.873723
H    -0.033438  -0.213858  0.854919
C    -2.017195  -0.749892  1.618683
C    -2.708230  0.204686  2.617479
C    -2.796315  -0.219626  4.107706
N    -3.039188  -1.670350  4.240888
C    -2.307326  -2.534658  4.977907
N    -2.042516  -3.844334  4.597745
N    -1.686825  -2.116147  6.079966
H    -2.446771  -1.761020  1.735515
H    -2.313458  -0.433931  0.608800
H    -3.732729  0.333548  2.238437
H    -2.261140  1.208682  2.582492
H    -3.593661  0.359421  4.595066
H    -1.862334  0.000869  4.641153
H    -3.640137  -2.099034  3.539116
H    -2.867421  -4.325867  4.220866
H    -1.171724  -2.809413  6.620656
H    -1.890340  -1.222508  6.521412
O    0.576456  0.589271  3.086361
H    1.054770  0.711626  3.940061
Cd    -0.609363  -3.560602  3.036168
