27
Energy: -170627.515953 eV PBE+vdW (tier 2 basis)
N    -0.854359  0.766748  0.650077
C    -0.185371  0.612992  1.899667
C    1.373466  1.012037  1.829764
O    2.084166  0.577839  0.887224
H    -0.397002  0.291363  -0.131905
H    -4.457044  -2.295832  -0.650903
H    -0.603318  1.322267  2.626272
C    -0.240862  -0.835974  2.440377
C    -1.484981  -1.120307  3.304827
C    -2.860652  -0.811600  2.695147
N    -3.155390  -1.516474  1.438145
C    -3.887109  -2.634002  1.302271
N    -4.342831  -2.984001  0.086737
N    -4.161462  -3.414903  2.357712
H    0.640019  -1.037652  3.065745
H    -0.171494  -1.527067  1.585672
H    -1.416459  -0.543917  4.240832
H    -1.430233  -2.179610  3.603374
H    -2.965850  0.259234  2.475224
H    -3.653253  -1.044236  3.419579
H    -2.822412  -1.069473  0.585765
H    -4.725331  -3.909591  -0.083048
H    -4.893443  -4.117638  2.311890
H    -3.660733  -3.324844  3.234466
O    1.788318  1.746456  2.773942
H    -1.079983  1.730087  0.395946
Cd    3.855158  1.726447  1.855691
