27
Energy: -170625.957633 eV PBE+vdW (tier 2 basis)
N    1.072312  0.577308  0.324932
C    0.332610  0.304754  1.562041
C    1.263155  -0.228862  2.703612
O    0.924070  0.056343  3.896465
H    0.117551  0.641412  -1.114374
H    1.596466  1.455256  0.408456
H    -0.068361  1.253681  1.942535
C    -0.858416  -0.671959  1.395026
C    -0.615651  -2.036712  0.729425
C    -0.519130  -2.055644  -0.813196
N    -1.655294  -1.417692  -1.491743
C    -1.785743  -0.115834  -1.881041
N    -2.775727  0.616275  -2.189522
N    -0.475631  0.607610  -2.029956
H    -1.637488  -0.116565  0.848071
H    -1.281316  -0.831228  2.397205
H    -1.453177  -2.690034  1.016533
H    0.286522  -2.529904  1.126574
H    -0.487485  -3.099479  -1.154099
H    0.412803  -1.603664  -1.175620
H    -2.532362  -1.938822  -1.481300
H    -3.700929  0.179934  -2.116854
H    -0.746835  1.563746  -2.312782
H    0.091346  0.201445  -2.790353
O    2.283541  -0.923418  2.412975
H    1.775528  -0.153426  0.163103
Cd    2.704124  -1.050497  4.670514
