27
Energy: -170626.574654 eV PBE+vdW (tier 2 basis)
N    -0.433777  -0.287456  -0.067495
C    -0.590243  0.215434  1.308385
C    0.545990  1.186713  1.611434
O    1.318252  1.552236  0.701824
H    -1.231743  -0.892094  -0.288295
H    -0.484197  0.484316  -0.739636
H    -1.516230  0.815451  1.430665
C    -0.682150  -0.953412  2.336496
C    0.569964  -1.790084  2.666167
C    1.207244  -2.606729  1.522567
N    1.890584  -1.752612  0.540768
C    3.147036  -1.314233  0.613116
N    3.691192  -0.503113  -0.365758
N    3.967345  -1.608519  1.642051
H    -1.485190  -1.613185  1.971423
H    -1.078238  -0.551096  3.282570
H    0.265045  -2.515945  3.435577
H    1.340804  -1.164760  3.148607
H    0.445156  -3.176768  0.973299
H    1.911942  -3.348205  1.922451
H    1.205445  -1.212904  -0.045503
H    3.169453  -0.602010  -1.245733
H    4.969126  -1.575069  1.458043
H    3.672802  -2.224079  2.395348
O    0.729695  1.668373  2.824261
H    0.046050  1.368712  3.462816
Cd    3.470069  1.542493  0.212628
