27
Energy: -170625.998937 eV PBE+vdW (tier 2 basis)
N    0.022368  -0.062050  0.014955
C    0.005200  -0.101082  1.452702
C    1.447459  -0.154448  2.001826
O    1.801306  -0.840755  2.954620
H    0.634270  0.622081  -0.430379
H    -0.870749  -0.184997  -0.460595
H    -0.376547  0.863713  1.868753
C    -0.891630  -1.217239  2.005551
C    -0.470621  -2.655511  1.602388
C    -0.445468  -3.644835  2.770128
N    0.604759  -3.244621  3.738513
C    0.998947  -3.901579  4.817932
N    1.946708  -3.537265  5.665037
N    0.384820  -5.163355  5.193521
H    -1.920152  -1.016859  1.673068
H    -0.919292  -1.098512  3.098532
H    0.512904  -2.659101  1.108119
H    -1.170657  -3.059144  0.858746
H    -0.228771  -4.654289  2.390083
H    -1.423551  -3.666396  3.277562
H    1.075082  -2.337609  3.527036
H    2.461033  -2.668220  5.497536
H    0.511526  -5.884468  4.471085
H    -0.627535  -5.071561  5.349438
O    2.250030  0.678085  1.344653
H    3.151987  0.654413  1.735151
Cd    1.948660  -5.138935  7.127492
