27
Energy: -170627.497378 eV PBE+vdW (tier 2 basis)
N    0.753027  0.395725  0.534776
C    0.235180  0.090583  1.917819
C    1.234397  -0.789414  2.728376
O    2.529316  -0.635974  2.561737
H    0.546871  -0.378591  -0.107835
H    0.285537  1.222249  0.148312
H    0.209160  1.060842  2.441704
C    -1.184419  -0.513401  1.889136
C    -1.983513  -0.262847  3.197957
C    -2.761602  -1.473829  3.715734
N    -1.840996  -2.481915  4.251085
C    -2.193804  -3.542855  4.983215
N    -1.243079  -4.282576  5.574859
N    -3.483172  -3.873442  5.137459
H    -1.103012  -1.589108  1.674322
H    -1.736376  -0.068912  1.049804
H    -2.705681  0.545838  3.030154
H    -1.319511  0.086308  4.001411
H    -3.375961  -1.905580  2.907261
H    -3.441836  -1.138731  4.513712
H    -0.842810  -2.309861  4.096956
H    -1.458901  -5.163073  6.025409
H    -3.766251  -4.606236  5.776541
H    -4.214784  -3.421198  4.605504
O    0.812442  -1.583261  3.560122
H    -0.278783  -3.974763  5.595668
Cd    3.010561  0.529021  0.888802
