27
Energy: -170626.484658 eV PBE+vdW (tier 2 basis)
N    -0.238110  -1.897571  -0.708275
C    0.044043  -0.990572  0.369132
C    1.537687  -0.560008  0.350561
O    2.400828  -1.274956  0.914955
H    -0.275014  -1.505119  -1.647425
H    0.253137  -2.790949  -0.684890
H    -0.553194  -0.074641  0.213541
C    -0.288033  -1.600644  1.744752
C    0.062343  -0.678775  2.934735
C    0.512750  -1.452515  4.194214
N    1.331644  -0.613678  5.093261
C    2.629037  -0.312828  4.889107
N    3.480314  -1.163895  4.249825
N    3.132609  0.851229  5.337300
H    0.249308  -2.558250  1.829801
H    -1.358588  -1.843711  1.732758
H    -0.788414  -0.027734  3.181835
H    0.882763  0.007115  2.660533
H    1.084846  -2.347048  3.915601
H    -0.341814  -1.812657  4.780010
H    0.835047  -0.090509  5.815506
H    3.143509  -2.129890  4.305384
H    4.121718  0.889452  5.578055
H    2.534964  1.568132  5.743030
O    1.943709  0.532256  -0.264847
H    1.206359  1.024186  -0.689315
Cd    4.046657  -0.827151  2.235970
