27
Energy: -170625.789668 eV PBE+vdW (tier 2 basis)
N    1.344352  0.242061  0.443316
C    0.524493  -0.216954  1.621173
C    1.060793  -1.546325  2.232895
O    2.333673  -1.828433  2.179322
H    1.026685  -0.203864  -0.427413
H    1.235209  1.253967  0.301556
H    0.703592  0.532434  2.411568
C    -0.993648  -0.247212  1.353997
C    -1.531651  -1.361384  0.412831
C    -2.697845  -2.152948  1.013726
N    -2.221175  -3.142621  2.077735
C    -3.239828  -3.353443  3.217491
N    -4.336770  -3.957550  3.083719
N    -2.827403  -2.688446  4.335445
H    -1.290705  0.739271  0.971239
H    -1.470823  -0.316014  2.342298
H    -0.741002  -2.063415  0.098175
H    -1.912627  -0.914778  -0.516157
H    -3.231117  -2.728520  0.248599
H    -3.420283  -1.487980  1.504102
H    -2.041218  -4.060910  1.646643
H    -4.584694  -4.327136  2.163659
H    -3.448097  -2.802285  5.138428
H    -1.836567  -2.654104  4.568773
O    0.278392  -2.292247  2.831215
H    -1.293628  -2.805553  2.453791
Cd    3.464615  -0.504872  0.976506
