27
Energy: -170625.812883 eV PBE+vdW (tier 2 basis)
N    1.500300  -0.887600  -0.184174
C    0.584050  -0.195361  0.827730
C    1.526307  0.557264  1.796174
O    0.984873  1.295323  2.669924
H    1.313103  -1.897564  -0.261960
H    1.447606  -0.477461  -1.126797
H    0.000499  0.558689  0.282144
C    -0.319716  -1.199660  1.561043
C    -1.506758  -1.752996  0.748713
C    -2.704325  -0.777880  0.676752
N    -3.870894  -1.338513  0.012092
C    -4.820572  -2.119555  0.625774
N    -4.817121  -2.515650  1.886811
N    -5.857639  -2.567039  -0.129502
H    -0.690828  -0.685317  2.460004
H    0.305252  -2.027398  1.934486
H    -1.837892  -2.684203  1.231489
H    -1.210057  -2.045369  -0.273137
H    -2.445032  0.142402  0.133003
H    -2.988740  -0.454820  1.690248
H    -3.949759  -1.190668  -0.991696
H    -4.068089  -2.086702  2.441102
H    -6.562448  -3.119110  0.355604
H    -6.084458  -2.202194  -1.049805
O    2.773569  0.385734  1.655062
H    2.472676  -0.739790  0.184981
Cd    3.012370  1.933733  3.542596
