27
Energy: -170626.266345 eV PBE+vdW (tier 2 basis)
N    0.516093  -0.546178  0.952692
C    -0.171221  -0.285975  2.187469
C    0.814611  -0.608377  3.354601
O    0.764507  -1.696698  3.972359
H    1.270704  0.086723  0.691505
H    0.696901  -1.518007  0.704747
H    -0.362512  0.797631  2.247617
C    -1.477302  -1.087091  2.304257
C    -2.468988  -0.544924  3.363150
C    -3.310304  -1.608525  4.091253
N    -2.514314  -2.287935  5.138442
C    -1.826169  -3.431158  5.069618
N    -0.967106  -3.841216  6.069700
N    -1.893968  -4.245610  3.998959
H    -1.211893  -2.136620  2.494889
H    -1.949032  -1.057608  1.312971
H    -3.167533  0.153856  2.880990
H    -1.947260  0.053937  4.128814
H    -3.736611  -2.352216  3.404483
H    -4.163434  -1.140622  4.599530
H    -2.314415  -1.713175  5.956371
H    -1.217350  -3.450017  6.984850
H    -2.561450  -4.077444  3.250626
H    -1.639814  -5.219124  4.159181
O    1.715170  0.327632  3.550894
H    2.399665  0.065071  4.207032
Cd    1.018847  -3.234899  5.551154
