27
Energy: -170626.867992 eV PBE+vdW (tier 2 basis)
N    -0.658292  0.787267  1.780770
C    0.551750  0.040949  1.649249
C    1.783788  0.743278  1.026606
O    2.966442  0.277462  1.054344
H    -1.077905  1.071437  0.894363
H    -0.592384  1.593499  2.402007
H    0.915523  -0.168703  2.678172
C    0.272918  -1.330424  0.951345
C    -0.145342  -2.401021  1.976369
C    -0.330652  -3.831281  1.455418
N    0.769201  -4.412694  0.637645
C    2.089954  -4.198114  0.698766
N    2.734585  -3.718126  1.800594
N    2.855175  -4.419293  -0.396612
H    1.140078  -1.663635  0.347542
H    -0.520387  -1.171900  0.205028
H    -1.114567  -2.109934  2.408598
H    0.549726  -2.391361  2.832173
H    -1.209135  -3.874172  0.797062
H    -0.542352  -4.502876  2.301090
H    0.453656  -5.057829  -0.088397
H    2.236634  -3.909616  2.672821
H    2.434350  -4.684811  -1.285032
H    3.813646  -4.732288  -0.246012
O    1.565722  1.916193  0.510001
H    2.397691  2.332334  0.176845
Cd    3.309450  -1.732096  1.610785
