27
Energy: -170625.824219 eV PBE+vdW (tier 2 basis)
N    0.298310  0.246414  0.427399
C    -0.214850  0.047343  1.751066
C    0.880030  0.475169  2.742232
O    1.876974  1.071373  2.390705
H    -0.363375  0.324441  -0.343006
H    1.138949  0.829471  0.362762
H    -1.042079  0.763917  1.961024
C    -0.799400  -1.369744  1.967223
C    0.256899  -2.480496  1.832638
C    -0.376644  -3.865927  1.964279
N    0.653069  -4.922128  1.844410
C    0.427800  -6.225538  2.015507
N    -0.710150  -6.809479  2.310515
N    1.526902  -7.160903  1.888354
H    -1.603405  -1.518791  1.229049
H    -1.270473  -1.391675  2.960098
H    1.025450  -2.359076  2.613225
H    0.753705  -2.388441  0.852793
H    -1.133627  -4.022350  1.178177
H    -0.864631  -3.975202  2.946695
H    1.589301  -4.632359  1.563253
H    -1.558310  -6.245167  2.400345
H    1.879651  -7.219608  0.924392
H    2.320498  -6.928028  2.498460
O    0.573039  0.145910  4.008425
H    1.256386  0.535421  4.598453
Cd    -0.141267  -8.924820  2.552577
