27
Energy: -170627.392045 eV PBE+vdW (tier 2 basis)
N    0.720164  1.080398  1.293913
C    0.134177  -0.011966  2.150031
C    1.168480  -1.116701  2.467818
O    2.091195  -1.442125  1.594007
H    -0.019512  1.603440  0.812658
H    1.232948  1.759106  1.868112
H    -0.144846  0.433209  3.118139
C    -1.115994  -0.600802  1.451728
C    -2.215087  -1.236092  2.330279
C    -1.966939  -2.636675  2.933402
N    -1.430191  -2.638477  4.293273
C    -2.053102  -3.053125  5.402349
N    -1.325324  -3.313686  6.499184
N    -3.384220  -3.209023  5.450928
H    -0.802474  -1.318815  0.674835
H    -1.604410  0.230239  0.918046
H    -3.092554  -1.320991  1.673933
H    -2.505943  -0.537413  3.128821
H    -1.275101  -3.215502  2.303449
H    -2.904873  -3.204410  2.932820
H    -0.443609  -2.372733  4.366915
H    -1.757742  -3.412791  7.409785
H    -3.823466  -3.707564  6.215566
H    -3.994093  -2.821117  4.744102
O    1.070441  -1.730079  3.525270
H    -0.322399  -3.443647  6.443495
Cd    2.235476  -0.063657  0.014144
