27
Energy: -170625.957065 eV PBE+vdW (tier 2 basis)
N    -0.209894  -0.886239  0.595030
C    -0.462675  -0.172822  1.845588
C    0.861230  0.317989  2.543845
O    0.803870  1.415635  3.181685
H    0.204784  -0.252229  -0.096851
H    -1.622035  -1.659320  -0.399150
H    -1.025814  0.742877  1.617357
C    -1.235248  -1.001348  2.894393
C    -2.635274  -1.413282  2.392806
C    -2.675124  -2.817136  1.742720
N    -3.732417  -2.961492  0.734150
C    -3.716680  -2.336274  -0.481431
N    -4.593551  -1.933446  -1.299668
N    -2.310670  -2.174988  -1.033365
H    -1.338740  -0.381352  3.794959
H    -0.644800  -1.884402  3.188136
H    -3.006216  -0.663756  1.675571
H    -3.339607  -1.385028  3.235548
H    -2.850057  -3.591459  2.500575
H    -1.709609  -3.076370  1.285516
H    -4.669779  -3.148377  1.091213
H    -5.566861  -2.007900  -0.985299
H    -2.444964  -1.653362  -1.914962
H    -1.911313  -3.097523  -1.268578
O    1.903207  -0.399832  2.471780
H    0.480717  -1.631888  0.746221
Cd    2.949895  1.153050  3.779076
