27
Energy: -170626.274977 eV PBE+vdW (tier 2 basis)
N    0.068473  0.796647  0.425054
C    0.064823  0.303624  1.783792
C    1.505008  0.340693  2.453801
O    1.555585  0.725862  3.662214
H    -1.411152  0.119609  -0.419538
H    0.224338  1.805706  0.352850
H    -0.547588  0.964948  2.411922
C    -0.411731  -1.165156  1.857308
C    -1.946314  -1.380420  1.839886
C    -2.833685  -0.511474  0.947017
N    -2.341375  -0.395157  -0.489790
C    -2.048013  -1.669266  -1.235579
N    -0.803953  -1.857513  -1.418527
N    -3.164236  -2.394750  -1.505656
H    -0.041887  -1.626440  2.783330
H    0.061457  -1.705382  1.024663
H    -2.347301  -1.236215  2.854545
H    -2.115609  -2.441524  1.604174
H    -2.888818  0.527285  1.301012
H    -3.854976  -0.911267  0.931954
H    -2.988632  0.199217  -1.031364
H    -0.583274  -2.707300  -1.949088
H    -3.066424  -3.231747  -2.076522
H    -4.089789  -1.973948  -1.521616
O    2.511309  -0.025452  1.783031
H    0.747560  0.305990  -0.167994
Cd    3.782434  0.402790  3.634000
