27
Energy: -170627.443335 eV PBE+vdW (tier 2 basis)
N    1.045724  1.020017  0.387911
C    0.874427  0.263265  1.685731
C    2.233057  -0.250494  2.248217
O    3.355823  0.387069  1.991167
H    1.028560  0.366302  -0.406961
H    0.260566  1.666076  0.240364
H    0.529965  1.014268  2.417787
C    -0.184163  -0.868248  1.548819
C    -1.163994  -1.034581  2.730515
C    -0.597618  -1.471418  4.091646
N    0.120013  -2.751436  4.072417
C    -0.330303  -3.935972  4.507701
N    0.543834  -4.931325  4.733434
N    -1.639066  -4.153331  4.717199
H    0.329034  -1.816226  1.331370
H    -0.806923  -0.643807  0.670498
H    -1.923369  -1.760579  2.400071
H    -1.707908  -0.090211  2.894504
H    -1.411043  -1.526851  4.828082
H    0.110934  -0.729812  4.486665
H    1.096617  -2.682616  3.778960
H    0.233460  -5.891539  4.845407
H    -1.956650  -4.957684  5.249376
H    -2.349035  -3.524178  4.361365
O    2.241305  -1.227026  2.989079
H    1.535454  -4.745259  4.845995
Cd    3.151118  1.913391  0.566749
