27
Energy: -170626.048292 eV PBE+vdW (tier 2 basis)
N    0.534543  0.050399  -0.691459
C    0.265515  0.206193  0.701087
C    1.342636  -0.420780  1.631166
O    1.513172  -0.064483  2.792880
H    0.517608  -0.886707  -1.092846
H    1.190110  0.687186  -1.140235
H    0.288338  1.282543  0.928534
C    -1.137782  -0.388785  1.041237
C    -1.550895  -0.390701  2.520787
C    -1.673319  1.012789  3.139021
N    -1.783878  0.955619  4.610408
C    -0.803526  1.125733  5.499324
N    -0.907022  1.039101  6.810756
N    0.538677  1.441955  5.065279
H    -1.169451  -1.427409  0.678278
H    -1.859140  0.174116  0.431331
H    -0.845807  -0.989105  3.116206
H    -2.521522  -0.904008  2.592576
H    -2.564898  1.537218  2.768757
H    -0.812026  1.646350  2.896452
H    -2.696535  0.686874  4.982485
H    -1.817684  0.858961  7.241844
H    0.607384  2.423670  4.765778
H    0.878144  0.856187  4.272950
O    2.028140  -1.393797  1.040644
H    2.684308  -1.768674  1.670686
Cd    1.175075  1.212358  7.439222
