27
Energy: -170625.857513 eV PBE+vdW (tier 2 basis)
N    0.512835  1.183548  0.871437
C    0.463385  -0.189444  1.491034
C    0.661791  -1.309001  0.423535
O    1.354438  -1.079356  -0.653296
H    -0.422997  1.464137  0.547313
H    0.794375  1.884117  1.568021
H    1.355873  -0.254080  2.137059
C    -0.813933  -0.370007  2.351912
C    -0.705206  -1.363100  3.549230
C    -1.638315  -2.580556  3.508910
N    -1.085319  -3.684369  2.636924
C    -2.093623  -4.751239  2.148133
N    -3.184122  -5.040274  2.712953
N    -1.583102  -5.394086  1.068246
H    -1.654061  -0.640540  1.693621
H    -1.061731  0.614801  2.770700
H    -0.968630  -0.818441  4.465843
H    0.335065  -1.689390  3.705882
H    -2.625222  -2.316736  3.106623
H    -1.776054  -2.988955  4.517361
H    -0.343696  -4.189965  3.146583
H    -3.431966  -4.560895  3.579485
H    -2.151790  -6.146615  0.681327
H    -0.887961  -4.975437  0.456249
O    0.201974  -2.437449  0.638905
H    -0.609623  -3.220768  1.809548
Cd    1.895578  0.949176  -0.960387
