27
Energy: -170625.968829 eV PBE+vdW (tier 2 basis)
N    -0.091487  1.661207  2.692097
C    0.202644  0.282284  3.069771
C    1.741129  0.006018  3.219749
O    2.092117  -0.831959  4.110523
H    -1.799036  1.727979  2.297005
H    0.125577  2.318251  3.448893
H    -0.222357  0.089237  4.065163
C    -0.344994  -0.749971  2.055076
C    -1.881519  -0.910539  2.029314
C    -2.703491  0.132411  1.271050
N    -2.803335  1.455973  2.017640
C    -3.418012  2.587304  1.196453
N    -2.748111  3.316984  0.406775
N    -4.763320  2.659285  1.352275
H    0.076866  -1.729827  2.319638
H    0.035770  -0.509005  1.048986
H    -2.273351  -1.046048  3.051361
H    -2.089445  -1.864450  1.521156
H    -3.728501  -0.221647  1.106164
H    -2.265891  0.368519  0.291729
H    -3.322814  1.314500  2.897742
H    -1.752957  3.105791  0.317731
H    -5.236016  3.404091  0.840538
H    -5.259315  2.269814  2.147295
O    2.557284  0.594271  2.449285
H    0.473824  1.946839  1.883764
Cd    4.232324  -0.547029  3.506715
