27
Energy: -170627.471098 eV PBE+vdW (tier 2 basis)
N    -0.031686  0.563903  -0.255326
C    -0.470373  0.169532  1.136425
C    0.712756  0.169975  2.152310
O    1.715090  1.009832  2.002554
H    0.343028  -0.248072  -0.764026
H    -0.834669  0.897969  -0.802679
H    -1.127352  0.987082  1.479675
C    -1.282600  -1.139428  1.170357
C    -0.492860  -2.441231  0.870667
C    -0.825553  -3.587610  1.835810
N    -0.372331  -3.244193  3.190992
C    -0.371244  -4.064882  4.249594
N    0.254121  -3.684630  5.376882
N    -0.966274  -5.266604  4.192052
H    -2.130107  -1.037326  0.477722
H    -1.735372  -1.182775  2.170741
H    0.596403  -2.273991  0.909444
H    -0.715246  -2.800370  -0.143184
H    -0.320356  -4.505551  1.498121
H    -1.914320  -3.768329  1.829521
H    0.007471  -2.297722  3.322133
H    0.816355  -2.839855  5.402507
H    -0.877430  -5.933461  4.952248
H    -1.585707  -5.517709  3.430052
O    0.672969  -0.570128  3.131293
H    0.116524  -4.178669  6.252694
Cd    1.657335  2.052495  0.179893
