27
Energy: -170625.792024 eV PBE+vdW (tier 2 basis)
N    0.681716  1.466550  0.658044
C    0.028615  0.917570  1.807280
C    1.018363  0.451796  2.909429
O    0.834495  0.685175  4.101051
H    1.094140  2.395020  0.731688
H    1.210488  0.829461  0.061512
H    -0.542614  1.727572  2.284963
C    -0.938189  -0.221160  1.365205
C    -1.413784  -1.293616  2.364646
C    -1.931078  -0.888538  3.756738
N    -2.773967  0.328909  3.762055
C    -2.669507  1.372095  4.587570
N    -3.503433  2.388829  4.688308
N    -1.531593  1.495518  5.474977
H    -0.451573  -0.765932  0.542278
H    -1.797045  0.290395  0.907375
H    -0.611797  -2.024744  2.551807
H    -2.195639  -1.865262  1.842462
H    -1.099958  -0.713916  4.444870
H    -2.527394  -1.714345  4.172358
H    -3.602345  0.304908  3.163105
H    -4.364744  2.402735  4.135179
H    -1.577176  0.807984  6.239838
H    -0.620016  1.338179  4.979479
O    2.058233  -0.215774  2.426273
H    2.660689  -0.478357  3.159428
Cd    -2.443084  3.670007  6.104814
