27
Energy: -170625.924729 eV PBE+vdW (tier 2 basis)
N    0.686629  -0.239794  0.275551
C    0.886365  -0.662285  1.731011
C    2.112911  -1.609445  1.732434
O    2.389294  -2.224707  2.802826
H    -0.030522  -0.814525  -0.193224
H    0.412415  0.748565  0.181411
H    1.198274  0.245136  2.271916
C    -0.411607  -1.229485  2.326111
C    -0.392882  -1.315399  3.861206
C    -1.713760  -1.895628  4.416218
N    -1.739604  -1.963631  5.869855
C    -1.127199  -2.939517  6.614498
N    -0.475088  -3.986461  6.132938
N    -1.146782  -2.820115  7.967633
H    -0.611325  -2.220790  1.885229
H    -1.237933  -0.567467  2.015245
H    -0.234936  -0.312138  4.287716
H    0.448123  -1.940316  4.194455
H    -1.906848  -2.897834  4.002448
H    -2.567942  -1.272810  4.115272
H    -2.120499  -1.155640  6.358873
H    -0.603463  -4.089126  5.120007
H    -0.754002  -3.598310  8.493178
H    -1.753028  -2.172043  8.461935
O    2.791784  -1.675705  0.663105
H    1.593126  -0.412409  -0.214025
Cd    4.302825  -3.143006  1.854452
