27
Energy: -170625.060988 eV PBE+vdW (tier 2 basis)
N    -0.236943  0.177382  -0.106556
C    0.124972  0.198369  1.289486
C    1.679077  0.109535  1.435672
O    2.345145  1.144680  1.571910
H    0.020190  -0.658047  -0.634165
H    -0.023515  1.026302  -0.631221
H    -0.130205  1.186741  1.696096
C    -0.580593  -0.900321  2.117550
C    -2.094038  -0.682971  2.308107
C    -2.962510  -0.981494  1.067277
N    -4.385441  -0.763511  1.300332
C    -5.258278  -1.684312  1.815013
N    -4.937994  -2.893558  2.260424
N    -6.566722  -1.349629  1.932825
H    -0.117056  -0.928364  3.115360
H    -0.409371  -1.893431  1.659585
H    -2.281153  0.346558  2.652271
H    -2.421907  -1.338675  3.130401
H    -2.812436  -2.015742  0.721057
H    -2.672378  -0.330927  0.229861
H    -4.728647  0.186375  1.161830
H    -3.967750  -3.153551  2.046262
H    -7.184783  -2.056141  2.328225
H    -6.984995  -0.536655  1.489313
O    2.307904  -1.055856  1.338570
H    1.691613  -1.818740  1.308903
Cd    4.694269  1.280181  1.576600
