27
Energy: -170627.657921 eV PBE+vdW (tier 2 basis)
N    0.475206  1.163922  -0.621683
C    -0.182079  0.996873  0.741783
C    0.426038  -0.254647  1.383878
O    0.584912  -1.265731  0.625628
H    0.548048  0.228113  -1.064886
H    -0.060679  1.792780  -1.239966
H    0.033431  1.895550  1.333332
C    -1.701234  0.747161  0.560535
C    -2.441485  0.491456  1.896092
C    -3.677766  -0.421507  1.799966
N    -3.464029  -1.752012  1.186998
C    -2.575195  -2.707383  1.544009
N    -1.886414  -2.706860  2.695655
N    -2.316633  -3.705005  0.657788
H    -1.817255  -0.121791  -0.107269
H    -2.143419  1.619215  0.054487
H    -2.796864  1.445765  2.310037
H    -1.745678  0.102459  2.649813
H    -4.451126  0.050831  1.180759
H    -4.119213  -0.530690  2.802641
H    -4.164526  -2.029573  0.501137
H    -2.308608  -2.139852  3.432953
H    -2.109054  -4.625105  1.041046
H    -2.751214  -3.702341  -0.261407
O    0.559660  -0.275189  2.642707
H    1.432220  1.543971  -0.541609
Cd    0.243983  -2.522373  2.567412
