27
Energy: -170625.229182 eV PBE+vdW (tier 2 basis)
N    0.447068  -0.482895  -0.450291
C    -0.152536  0.034964  0.805816
C    0.879505  0.897392  1.561076
O    2.103102  0.778700  1.423939
H    0.034803  -1.385722  -0.706729
H    0.276901  0.155689  -1.236821
H    -1.003439  0.691169  0.554198
C    -0.619938  -1.119901  1.751810
C    -2.139718  -1.236249  1.961184
C    -2.942746  -1.680932  0.730312
N    -4.350132  -1.825443  1.087283
C    -5.385348  -1.842149  0.181821
N    -5.292204  -1.717662  -1.131195
N    -6.643485  -2.009169  0.663943
H    -0.157173  -0.994010  2.741014
H    -0.209845  -2.068459  1.367194
H    -2.548303  -0.285475  2.340151
H    -2.284638  -1.971221  2.768744
H    -2.538344  -2.632692  0.337604
H    -2.872262  -0.927390  -0.070987
H    -4.538299  -2.205754  2.014495
H    -4.329048  -1.575364  -1.453364
H    -6.885297  -1.984306  1.650333
H    -7.395339  -2.045118  -0.022151
O    0.445268  1.766091  2.451003
H    -0.531637  1.845015  2.476075
Cd    2.869192  -0.622087  -0.191736
