27
Energy: -170628.143248 eV PBE+vdW (tier 2 basis)
N    1.307741  0.118118  1.627205
C    -0.109813  -0.269751  2.040717
C    0.012528  -1.092809  3.318427
O    -1.029094  -1.284893  4.006882
H    1.386337  0.307704  0.616747
H    1.630858  0.959365  2.130727
H    -0.670360  0.657869  2.208946
C    -0.810650  -1.138303  0.960563
C    -0.384764  -2.629505  0.875905
C    -1.364404  -3.598194  1.584391
N    -0.782811  -4.935090  1.776143
C    -0.768172  -5.687589  2.909291
N    -0.776585  -5.152466  4.140062
N    -0.718919  -7.025652  2.749084
H    -0.671933  -0.642042  -0.011885
H    -1.887876  -1.057160  1.166796
H    0.626515  -2.787315  1.281184
H    -0.325700  -2.912376  -0.184381
H    -2.283615  -3.697444  0.985381
H    -1.696568  -3.219828  2.558801
H    -0.587878  -5.453042  0.920542
H    -0.984059  -5.833842  4.869912
H    -0.449972  -7.636415  3.515213
H    -1.055982  -7.475335  1.901785
O    1.115199  -1.709834  3.514400
H    1.945963  -0.656680  1.895693
Cd    -0.122911  -3.236838  4.697428
