27
Energy: -170626.749366 eV PBE+vdW (tier 2 basis)
N    -1.174463  -0.573946  0.713067
C    -0.420363  0.031753  1.820217
C    0.870692  0.822051  1.416235
O    1.167178  1.090827  0.242372
H    -0.812937  -1.535045  0.594133
H    -5.172099  -0.335390  1.185306
H    -1.054443  0.845068  2.230338
C    -0.158843  -1.011330  2.941936
C    -1.367728  -1.359622  3.833833
C    -2.424834  -2.337959  3.300495
N    -3.329355  -1.738108  2.307216
C    -4.620944  -2.066536  2.149735
N    -5.393732  -1.313343  1.341117
N    -5.156469  -3.123942  2.776503
H    0.625481  -0.642212  3.620012
H    0.275486  -1.919389  2.489514
H    -1.864072  -0.439057  4.179891
H    -0.959010  -1.834870  4.737607
H    -3.034239  -2.653882  4.157969
H    -1.941150  -3.238652  2.884293
H    -2.882320  -1.165005  1.572360
H    -6.329872  -1.616509  1.088616
H    -6.163792  -3.246679  2.829777
H    -4.581720  -3.876007  3.142326
O    1.646930  1.319341  2.355100
H    1.358096  1.073929  3.258601
Cd    -0.454748  0.322611  -1.119069
