27
Energy: -170625.998641 eV PBE+vdW (tier 2 basis)
N    0.528610  0.618836  0.600802
C    0.034046  0.163754  1.872009
C    1.154842  0.201474  2.933849
O    1.315991  -0.642888  3.807003
H    1.047940  1.497452  0.595468
H    -0.103273  0.523173  -0.193869
H    -0.687822  0.904658  2.298802
C    -0.737458  -1.166213  1.784674
C    -0.091923  -2.348944  1.032897
C    1.232191  -2.908421  1.574485
N    1.180002  -3.263095  3.006459
C    1.103912  -4.474687  3.532405
N    1.029258  -5.646600  2.929838
N    1.122124  -4.607105  4.983052
H    -1.691275  -0.948897  1.281372
H    -1.017651  -1.453886  2.808272
H    0.099542  -2.075398  -0.015866
H    -0.839368  -3.155966  1.000831
H    2.046349  -2.176650  1.472706
H    1.538099  -3.788076  0.992956
H    1.185842  -2.431642  3.624341
H    0.984727  -5.693990  1.909905
H    1.923484  -4.121918  5.407294
H    0.271300  -4.221709  5.413614
O    1.883674  1.311145  2.825529
H    2.547171  1.347421  3.550268
Cd    1.141356  -7.050372  4.590768
