27
Energy: -170626.944966 eV PBE+vdW (tier 2 basis)
N    0.701317  0.118353  0.446577
C    0.621619  0.679477  1.794989
C    1.986326  0.700464  2.523468
O    3.056355  0.359385  2.004997
H    -4.852057  -2.140082  3.092553
H    0.112903  0.675408  -0.184696
H    0.280768  1.732756  1.799339
C    -0.415849  -0.157314  2.624540
C    -0.063931  -1.647254  2.752221
C    -0.891461  -2.415670  3.790010
N    -2.324358  -2.470395  3.444515
C    -3.310840  -2.763467  4.315473
N    -4.591770  -2.649377  3.931238
N    -3.023356  -3.126682  5.574060
H    -1.387605  -0.019187  2.129505
H    -0.531605  0.298382  3.623344
H    0.984181  -1.769837  3.068703
H    -0.136621  -2.135301  1.768586
H    -0.805018  -1.928999  4.773261
H    -0.485457  -3.437210  3.873909
H    -2.560461  -2.548304  2.456591
H    -5.344003  -3.068178  4.470925
H    -3.755858  -3.189831  6.275873
H    -2.125290  -3.534662  5.814038
O    2.027624  1.109170  3.782920
H    1.156369  1.425729  4.097538
Cd    2.709009  0.147689  -0.245965
