27
Energy: -170626.179182 eV PBE+vdW (tier 2 basis)
N    0.814397  0.980311  0.135737
C    0.100213  0.253925  1.252666
C    1.059029  -0.092991  2.430687
O    2.339805  -0.289394  2.223129
H    0.804505  1.994612  0.312246
H    0.325217  0.842448  -0.757227
H    -0.193745  -0.721879  0.827923
C    -1.155066  1.042784  1.715219
C    -2.411597  0.221134  2.084407
C    -2.377111  -0.764494  3.252300
N    -1.940833  -0.132426  4.571379
C    -2.665775  1.118291  4.999272
N    -2.002544  2.175060  4.766184
N    -3.920010  0.864014  5.462873
H    -1.473441  1.683853  0.880016
H    -0.883971  1.719629  2.539500
H    -2.738240  -0.371678  1.214945
H    -3.219166  0.948381  2.255012
H    -1.671309  -1.590547  3.095839
H    -3.376751  -1.190790  3.402063
H    -1.965296  -0.847628  5.315334
H    -2.465414  3.038379  5.070314
H    -4.166979  -0.036661  5.866556
H    -4.452088  1.648047  5.835525
O    0.590927  -0.247021  3.556456
H    -0.934583  0.128131  4.445076
Cd    2.969859  0.222305  0.286303
