27
Energy: -170626.178351 eV PBE+vdW (tier 2 basis)
N    1.668777  -1.082105  0.366985
C    0.381680  -0.417063  0.796845
C    0.622175  0.642312  1.913421
O    1.757607  1.296864  1.985762
H    1.872838  -1.885154  0.978325
H    1.580465  -1.462910  -0.583191
H    0.044859  0.164102  -0.079582
C    -0.690017  -1.470481  1.186687
C    -2.153240  -1.166086  0.789553
C    -2.875307  0.050558  1.368925
N    -2.885379  0.083501  2.894789
C    -3.372375  -1.158212  3.597399
N    -2.424362  -1.873444  4.045013
N    -4.723926  -1.303554  3.525665
H    -0.621616  -1.689130  2.263033
H    -0.444565  -2.406924  0.664519
H    -2.733737  -2.070570  1.024144
H    -2.226972  -1.053261  -0.304003
H    -3.918351  0.054435  1.029171
H    -2.415031  1.002907  1.075422
H    -3.404472  0.916985  3.213302
H    -2.731248  -2.713085  4.547936
H    -5.140966  -2.082262  4.032054
H    -5.340978  -0.502609  3.411931
O    -0.289813  0.910911  2.691924
H    -1.889990  0.226896  3.185781
Cd    3.248781  0.540484  0.714422
