27
Energy: -170625.967739 eV PBE+vdW (tier 2 basis)
N    0.785413  -0.496946  -0.296100
C    0.342418  -0.345182  1.158377
C    1.490660  0.422992  1.864165
O    1.431960  0.563886  3.118774
H    1.180925  -1.431484  -0.480181
H    0.021148  -0.336955  -0.967404
H    -0.520829  0.338741  1.146534
C    -0.051585  -1.702713  1.760001
C    -0.797338  -1.590058  3.103901
C    -1.308412  -2.939013  3.627748
N    -2.362112  -3.476029  2.784235
C    -2.786842  -4.780386  2.690369
N    -3.734324  -4.967015  1.791555
N    -2.192410  -5.725074  3.466819
H    0.850034  -2.326597  1.880052
H    -0.701582  -2.213732  1.029484
H    -1.647015  -0.893389  3.009552
H    -0.136380  -1.159587  3.866834
H    -1.673314  -2.796275  4.661860
H    -0.485697  -3.671876  3.671204
H    -3.007026  -2.837890  2.316212
H    -4.029185  -5.949088  1.718378
H    -2.514313  -6.685781  3.389946
H    -1.719127  -5.489249  4.334887
O    2.401083  0.903283  1.121929
H    1.550647  0.202503  -0.441271
Cd    3.353142  1.880608  3.130265
