27
Energy: -170627.957782 eV PBE+vdW (tier 2 basis)
N    0.328837  -1.457396  0.614744
C    0.109189  -0.238426  1.458741
C    1.327558  -0.106051  2.382967
O    1.952284  -1.104452  2.768857
H    -0.527755  -1.670988  0.089387
H    1.055777  -1.282719  -0.093001
H    0.058924  0.641397  0.798588
C    -1.235794  -0.361503  2.265479
C    -1.236403  -0.476221  3.808337
C    -0.839358  -1.794960  4.498209
N    -1.614531  -2.970900  4.037489
C    -1.108967  -4.239404  3.931188
N    0.107283  -4.440269  3.409006
N    -1.889584  -5.263633  4.313074
H    -1.798222  -1.208443  1.838384
H    -1.829430  0.526900  2.014040
H    -2.265720  -0.234849  4.115249
H    -0.626158  0.317311  4.266877
H    -1.003288  -1.665760  5.579912
H    0.229242  -2.025525  4.404424
H    -2.607489  -2.935410  4.269849
H    0.490248  -5.375613  3.545353
H    -1.678034  -6.219477  4.037334
H    -2.649185  -5.138189  4.978002
O    1.693551  1.075286  2.827098
H    1.195042  1.818054  2.422961
Cd    0.938587  -3.033929  2.110694
