27
Energy: -170627.753077 eV PBE+vdW (tier 2 basis)
N    0.226740  -0.969723  -0.186677
C    -0.262611  -0.115996  0.977075
C    0.947027  0.671672  1.489867
O    0.729849  1.799621  2.022729
H    1.160293  -1.351222  0.061105
H    -0.416990  -1.748495  -0.397279
H    -1.016424  0.579363  0.586850
C    -0.862002  -1.035768  2.073075
C    -1.079182  -0.351747  3.448598
C    0.029453  -0.706601  4.474512
N    0.192281  0.322003  5.511429
C    1.193968  1.230598  5.549483
N    2.437167  0.990508  5.054671
N    0.970046  2.435913  6.100818
H    -0.211383  -1.917340  2.196654
H    -1.826195  -1.402290  1.692677
H    -2.053743  -0.665477  3.844166
H    -1.132565  0.739223  3.324757
H    0.998346  -0.831961  3.976375
H    -0.189369  -1.665398  4.964527
H    -0.595998  0.464180  6.144309
H    2.669568  -0.006172  5.092646
H    1.763560  2.949046  6.479316
H    0.039620  2.746371  6.369237
O    2.086024  0.104149  1.452588
H    0.341599  -0.415654  -1.050357
Cd    2.742213  1.684410  3.063759
