27
Energy: -170626.470808 eV PBE+vdW (tier 2 basis)
N    0.366262  -1.141557  -0.875903
C    0.396846  -0.195398  0.251682
C    1.834255  0.243881  0.509926
O    2.776423  -0.212740  -0.167355
H    -0.613449  -1.394676  -1.039833
H    0.646680  -0.649669  -1.731464
H    -0.157314  0.737893  0.020078
C    -0.268371  -0.768117  1.548356
C    0.498125  -1.739811  2.475394
C    0.488544  -3.244978  2.157810
N    1.160924  -3.602102  0.890868
C    2.431688  -3.353442  0.595851
N    3.420803  -3.069285  1.427174
N    2.798270  -3.213402  -0.785424
H    -1.227918  -1.209081  1.234420
H    -0.563286  0.095650  2.163607
H    0.023495  -1.667271  3.465997
H    1.528711  -1.386927  2.644813
H    -0.539096  -3.618627  2.066701
H    0.942910  -3.808337  2.985390
H    0.563135  -3.889039  0.118386
H    3.303348  -3.237525  2.428657
H    2.014132  -2.832404  -1.337232
H    3.177324  -4.074587  -1.198002
O    2.112525  1.115399  1.459521
H    1.311125  1.480362  1.894761
Cd    4.410051  -1.629394  0.146035
