27
Energy: -170626.366246 eV PBE+vdW (tier 2 basis)
N    0.691817  -0.597413  -0.326861
C    0.590954  -0.029323  1.031560
C    1.984097  0.008690  1.669239
O    3.008576  -0.327889  1.049454
H    -0.244858  -0.608186  -0.744003
H    1.242484  0.026270  -0.927387
H    0.272520  1.032610  0.997228
C    -0.485657  -0.773406  1.875116
C    -0.230082  -2.190926  2.425514
C    -0.083470  -3.385113  1.433293
N    1.244309  -4.027814  1.571720
C    2.362875  -3.641898  0.955265
N    3.609572  -3.824924  1.363912
N    2.288909  -2.898188  -0.276606
H    -1.404233  -0.767132  1.267333
H    -0.739623  -0.137779  2.737895
H    -1.081549  -2.409529  3.085248
H    0.644311  -2.180477  3.096917
H    -0.231317  -3.100721  0.386324
H    -0.825643  -4.161652  1.651063
H    1.371187  -4.562596  2.433794
H    3.780676  -4.332716  2.236830
H    1.545845  -2.124591  -0.326069
H    2.201526  -3.532835  -1.081324
O    2.126041  0.446017  2.905537
H    1.286107  0.765889  3.300808
Cd    4.336077  -1.997417  0.420189
