27
Energy: -170626.787602 eV PBE+vdW (tier 2 basis)
N    0.614465  -0.352583  -0.068973
C    0.086623  0.050658  1.218075
C    1.139227  -0.094491  2.293409
O    2.137098  -0.843393  2.139077
H    -0.108638  -0.266036  -0.786980
H    1.381905  0.254805  -0.367641
H    -0.276928  1.099259  1.277281
C    -1.128804  -0.865353  1.657261
C    -1.208551  -2.301293  1.095772
C    -0.109459  -3.336352  1.351531
N    0.158191  -3.562948  2.835170
C    0.841406  -4.778720  3.165286
N    2.142766  -4.638685  3.348516
N    0.159455  -5.914421  3.292357
H    -2.033804  -0.348138  1.308121
H    -1.213142  -0.867102  2.755355
H    -1.303318  -2.262344  0.001260
H    -2.172347  -2.706967  1.446418
H    0.826781  -3.023632  0.869121
H    -0.422537  -4.283252  0.885599
H    -0.727736  -3.510018  3.352193
H    2.729090  -5.462305  3.505868
H    0.602714  -6.782634  3.592952
H    -0.825693  -5.972005  3.043772
O    0.998285  0.505117  3.457205
H    0.252408  1.146876  3.462774
Cd    2.505537  -2.576586  3.214347
