27
Energy: -170626.103726 eV PBE+vdW (tier 2 basis)
N    2.824037  0.304149  0.785777
C    1.695579  0.552982  1.620958
C    2.066621  0.893282  3.096170
O    1.301543  1.469282  3.858014
H    3.348528  1.095540  0.417441
H    3.384806  -0.531276  0.951781
H    1.191519  1.455910  1.244686
C    0.723534  -0.666991  1.584817
C    -0.529780  -0.591276  2.470143
C    -1.452365  0.591628  2.132510
N    -2.571970  0.739285  3.080475
C    -2.509683  1.431635  4.220509
N    -1.464318  2.042697  4.728485
N    -3.714411  1.601182  5.005930
H    1.287978  -1.568674  1.867666
H    0.444156  -0.794961  0.528857
H    -0.249342  -0.553019  3.533033
H    -1.086100  -1.530440  2.332796
H    -1.899166  0.472321  1.136284
H    -0.914353  1.549853  2.130609
H    -3.431514  0.229904  2.879720
H    -0.524799  1.916024  4.316637
H    -4.536388  1.844621  4.439419
H    -3.944225  0.756304  5.545180
O    3.284018  0.471672  3.429042
H    3.466080  0.697934  4.369132
Cd    -2.336684  3.224306  6.343919
