27
Energy: -170626.129981 eV PBE+vdW (tier 2 basis)
N    0.969877  1.267053  1.706458
C    0.046964  0.175456  2.188814
C    0.745000  -1.219498  2.175436
O    2.032612  -1.314777  2.375683
H    0.929181  1.344251  0.680612
H    0.671051  2.179456  2.072388
H    -0.135433  0.392706  3.255428
C    -1.296010  0.190734  1.422219
C    -2.507716  -0.398368  2.206288
C    -3.272342  -1.515511  1.498903
N    -2.569416  -2.855640  1.630338
C    -2.966858  -3.667581  2.863069
N    -3.961549  -3.222323  3.501786
N    -2.182989  -4.771666  2.971023
H    -1.159007  -0.322856  0.457688
H    -1.528976  1.236564  1.178453
H    -3.234880  0.405578  2.381916
H    -2.214524  -0.739781  3.210306
H    -3.388671  -1.325576  0.424474
H    -4.260945  -1.654636  1.952016
H    -2.766986  -3.441201  0.804618
H    -4.248008  -3.775497  4.314967
H    -2.351532  -5.414887  3.741030
H    -1.260682  -4.825187  2.544915
O    0.063506  -2.239038  2.035821
H    -1.530248  -2.677421  1.669358
Cd    3.051309  0.536157  2.334350
