27
Energy: -170627.515606 eV PBE+vdW (tier 2 basis)
N    0.372677  -2.052159  1.185314
C    0.421943  -0.611633  0.726274
C    1.386104  -0.399922  -0.478822
O    2.407728  -1.205227  -0.677059
H    -0.361894  -2.560664  0.673626
H    0.111381  -2.103840  2.177782
H    0.882864  -0.050632  1.557542
C    -1.008213  -0.079357  0.475518
C    -1.115259  1.465690  0.357677
C    -1.630615  1.903613  -1.028112
N    -1.515361  3.346177  -1.255519
C    -0.505251  3.961615  -1.900010
N    0.606210  3.296413  -2.235419
N    -0.623429  5.265848  -2.203832
H    -1.636852  -0.417134  1.311293
H    -1.409201  -0.562725  -0.430757
H    -0.141387  1.936815  0.547199
H    -1.796116  1.843198  1.133120
H    -2.691795  1.642672  -1.144528
H    -1.090100  1.386192  -1.831073
H    -2.234473  3.944762  -0.855686
H    1.264074  3.700760  -2.894573
H    -1.526466  5.729537  -2.207499
H    0.171442  5.801915  -2.537448
O    1.224738  0.571705  -1.209914
H    0.815892  2.362231  -1.880113
Cd    2.418250  -2.883393  0.582952
