27
Energy: -170627.10132 eV PBE+vdW (tier 2 basis)
N    0.324024  0.842407  0.986603
C    0.170971  0.231739  2.258145
C    1.545747  0.011725  2.909516
O    1.786909  0.246061  4.125963
H    0.681902  1.795741  0.971295
H    -0.466100  0.731678  0.354130
H    -0.384779  0.869914  3.024855
C    -0.592322  -1.116124  2.091197
C    -0.991432  -1.935737  3.330658
C    -2.097700  -1.338271  4.233464
N    -1.522938  -0.937550  5.572775
C    -2.272527  0.022651  6.353189
N    -1.639578  1.169711  6.477516
N    -3.460756  -0.301268  6.855358
H    0.017198  -1.745580  1.426603
H    -1.503151  -0.868302  1.523279
H    -0.111782  -2.191190  3.944498
H    -1.348489  -2.902614  2.949821
H    -2.911976  -2.063396  4.374269
H    -2.541485  -0.434941  3.790010
H    -1.331485  -1.778338  6.134215
H    -2.073716  1.937335  6.998467
H    -4.003087  0.348497  7.424620
H    -3.865425  -1.223270  6.708529
O    2.471385  -0.450777  2.121705
H    3.327368  -0.564379  2.600077
Cd    0.144763  0.835910  5.352438
