27
Energy: -170627.70347 eV PBE+vdW (tier 2 basis)
N    -1.469563  -0.498669  -0.172036
C    -1.283488  -0.037187  1.270706
C    0.063419  0.688930  1.333918
O    0.273529  1.418137  2.351390
H    -1.890943  0.241035  -0.755182
H    -0.527332  -0.691965  -0.567083
H    -2.085467  0.679241  1.491205
C    -1.371606  -1.204321  2.283319
C    -0.504741  -2.471174  2.104790
C    1.025744  -2.402660  2.293787
N    1.435187  -1.930322  3.623062
C    2.300688  -0.919939  3.869590
N    3.180753  -0.444809  2.956511
N    2.274037  -0.319776  5.076370
H    -2.424460  -1.525494  2.306107
H    -1.192969  -0.744256  3.266383
H    -0.668904  -2.936798  1.118538
H    -0.911052  -3.211207  2.812025
H    1.490584  -1.749018  1.547333
H    1.432344  -3.411716  2.128572
H    1.072280  -2.444433  4.427065
H    3.439736  -1.146739  2.258857
H    3.128037  0.120563  5.411843
H    1.557123  -0.526809  5.766700
O    0.922865  0.450010  0.430928
H    -2.067223  -1.335071  -0.249079
Cd    2.488945  1.347311  2.015790
