27
Energy: -170627.010437 eV PBE+vdW (tier 2 basis)
N    1.620395  1.002755  0.988350
C    1.281421  0.448333  2.299007
C    2.300971  -0.617301  2.759577
O    3.387081  -0.819345  2.201643
H    1.329378  1.987637  0.956748
H    -5.264716  -3.070350  0.021380
H    1.288180  1.206922  3.106926
C    -0.172651  -0.132122  2.241180
C    -0.379165  -1.293794  1.257703
C    -1.829277  -1.795514  1.305747
N    -2.034271  -2.883793  0.336752
C    -3.228355  -3.318976  -0.106253
N    -4.364902  -2.878014  0.452636
N    -3.279509  -4.179336  -1.135221
H    -0.829095  0.709730  1.975769
H    -0.482457  -0.421846  3.260797
H    0.298963  -2.128710  1.504794
H    -0.135234  -0.957032  0.239743
H    -2.518927  -0.976957  1.049359
H    -2.070448  -2.147943  2.323830
H    -1.225002  -3.450001  0.090178
H    -4.379916  -2.496871  1.392994
H    -4.128025  -4.695377  -1.349596
H    -2.485436  -4.316875  -1.752706
O    2.023555  -1.350370  3.827847
H    1.173379  -1.093764  4.239299
Cd    3.712217  0.849377  0.664798
