27
Energy: -170625.098399 eV PBE+vdW (tier 2 basis)
N    -0.237281  -0.409653  0.001114
C    -0.021197  -0.172845  1.410735
C    1.440914  -0.568951  1.810069
O    1.760764  -1.744317  2.022350
H    0.248995  0.219558  -0.638871
H    -0.119316  -1.382899  -0.287538
H    -0.112562  0.913312  1.585072
C    -1.042100  -0.907963  2.297576
C    -2.467740  -0.329339  2.217106
C    -3.247597  -0.672285  0.942220
N    -4.552500  -0.027436  0.946550
C    -5.427878  0.029789  -0.105842
N    -6.512860  0.789615  -0.128526
N    -5.168654  -0.680208  -1.230515
H    -0.709154  -0.833032  3.342970
H    -1.033673  -1.982687  2.055218
H    -2.425045  0.766790  2.331713
H    -3.024347  -0.712744  3.086470
H    -3.376466  -1.768919  0.861176
H    -2.686963  -0.345885  0.042764
H    -4.834135  0.484333  1.781507
H    -6.680076  1.284197  0.758335
H    -4.514685  -1.454773  -1.265216
H    -5.864715  -0.608208  -1.971270
O    2.380235  0.370596  1.859448
H    2.030675  1.275422  1.716662
Cd    4.019816  -2.436457  2.461616
