27
Energy: -170628.043983 eV PBE+vdW (tier 2 basis)
N    1.819611  -1.541442  1.419555
C    0.830492  -0.644529  2.104993
C    0.980382  -0.800272  3.620851
O    1.478810  -1.789712  4.174660
H    1.514834  -1.719716  0.455595
H    2.722342  -1.057128  1.334990
H    1.089611  0.402960  1.887173
C    -0.647107  -0.833808  1.640264
C    -1.262084  -2.221534  1.339028
C    -1.362671  -3.303717  2.438597
N    -0.266436  -4.306962  2.228351
C    0.038754  -5.287661  3.251385
N    1.304593  -5.267985  3.594713
N    -0.924171  -6.077187  3.727850
H    -0.748945  -0.249202  0.714560
H    -1.269898  -0.307346  2.377888
H    -0.786297  -2.669544  0.450683
H    -2.284069  -1.994016  1.003752
H    -2.351918  -3.782771  2.387945
H    -1.252760  -2.891940  3.451657
H    -0.415955  -4.796324  1.335765
H    1.648314  -5.952529  4.274468
H    -0.741369  -6.768427  4.454358
H    -1.861200  -6.070159  3.333085
O    0.503322  0.236671  4.275078
H    0.607165  0.112108  5.247541
Cd    1.979176  -3.437885  2.654175
