27
Energy: -170626.043062 eV PBE+vdW (tier 2 basis)
N    0.151475  -0.428850  0.534227
C    0.016909  0.221423  1.796606
C    0.945403  1.464955  1.954717
O    1.159718  2.011689  3.028116
H    -0.200417  0.035187  -0.302684
H    0.959397  -1.027526  0.372531
H    0.354834  -0.476915  2.579393
C    -1.471925  0.593851  2.064239
C    -1.810889  0.991116  3.517965
C    -1.889692  2.510847  3.747790
N    -2.011836  2.862767  5.177227
C    -0.980732  2.985111  6.015753
N    0.293059  2.812532  5.751035
N    -1.234578  3.379630  7.389672
H    -2.037429  -0.309860  1.803131
H    -1.794372  1.371596  1.353144
H    -1.080247  0.543818  4.209441
H    -2.783740  0.550622  3.778904
H    -2.770345  2.935108  3.248305
H    -1.011221  3.039311  3.356095
H    -2.950475  2.956132  5.562747
H    0.595887  2.491702  4.817059
H    -1.696487  2.634138  7.926856
H    -1.820781  4.221109  7.460153
O    1.468073  1.864033  0.796883
H    2.046708  2.645026  0.950379
Cd    1.253920  3.460037  7.604469
