27
Energy: -170625.988107 eV PBE+vdW (tier 2 basis)
N    -0.422157  0.514062  -0.231792
C    -0.201788  0.413874  1.223051
C    1.227451  -0.085259  1.536860
O    1.470353  -0.563994  2.692281
H    -1.240587  -0.800575  -0.784923
H    -1.200626  1.163929  -0.398919
H    -0.152934  1.422477  1.684536
C    -1.332959  -0.349808  1.923326
C    -1.471376  -1.880694  1.731998
C    -1.194346  -2.521047  0.367614
N    -1.785500  -1.760619  -0.807321
C    -3.247420  -1.438722  -0.771554
N    -3.492220  -0.199763  -0.597853
N    -4.046284  -2.530641  -0.884817
H    -2.258117  0.140028  1.581130
H    -1.266442  -0.159369  3.002413
H    -2.487030  -2.148643  2.056730
H    -0.798703  -2.399063  2.432494
H    -1.569395  -3.552295  0.353329
H    -0.118927  -2.557525  0.141901
H    -1.549935  -2.243191  -1.687729
H    -4.492006  0.031473  -0.594527
H    -3.707820  -3.420576  -1.241277
H    -5.054670  -2.398052  -0.928978
O    2.135547  0.087827  0.657220
H    0.403646  0.887122  -0.711494
Cd    3.654273  -0.566030  2.186894
