27
Energy: -170625.28214 eV PBE+vdW (tier 2 basis)
N    -1.247734  0.959626  0.844354
C    -0.609212  -0.183866  1.551516
C    0.915106  0.043774  1.709262
O    1.468108  1.136878  1.507426
H    -1.357707  0.740644  -0.154960
H    -2.218158  1.101870  1.229125
H    -0.988976  -0.150836  2.588136
C    -0.945237  -1.560436  0.909307
C    -2.435253  -1.790775  0.608732
C    -3.371503  -1.813932  1.851910
N    -4.682886  -1.233795  1.574579
C    -4.918673  0.110634  1.395139
N    -5.835758  0.652120  0.668451
N    -3.999138  0.993817  2.032059
H    -0.599898  -2.362276  1.583085
H    -0.374655  -1.670101  -0.026588
H    -2.520276  -2.744393  0.069989
H    -2.803350  -1.030238  -0.096262
H    -2.927797  -1.284997  2.706586
H    -3.535637  -2.844267  2.191420
H    -5.383469  -1.855462  1.170284
H    -6.510689  0.007556  0.240097
H    -4.399083  1.934803  1.937658
H    -3.911925  0.787086  3.033476
O    1.676222  -0.941318  2.124629
H    1.195611  -1.788362  2.237107
Cd    0.138129  2.833483  0.911129
