27
Energy: -170625.974536 eV PBE+vdW (tier 2 basis)
N    0.074726  0.566897  0.896341
C    0.251612  -0.436190  1.911905
C    1.618557  -1.146153  1.662157
O    1.755865  -2.293742  1.253308
H    0.651008  1.406629  0.933288
H    -0.196182  0.274569  -0.041745
H    0.364247  0.088111  2.876312
C    -0.954197  -1.390272  1.958707
C    -1.123394  -2.197896  3.259913
C    -0.381344  -3.535077  3.379988
N    -0.905176  -4.539744  2.424093
C    -0.232013  -5.307368  1.566706
N    -0.721484  -6.300349  0.849263
N    1.169783  -5.074388  1.313152
H    -0.943388  -2.050995  1.076309
H    -1.838132  -0.747445  1.849400
H    -2.198510  -2.384873  3.409692
H    -0.827737  -1.590247  4.129915
H    -0.523456  -3.942338  4.392083
H    0.695932  -3.432663  3.216396
H    -1.903043  -4.742965  2.518003
H    -1.695041  -6.591621  0.970648
H    1.754524  -5.424877  2.083415
H    1.387784  -4.064503  1.187502
O    2.629161  -0.314342  1.903698
H    3.483713  -0.746554  1.679147
Cd    0.946434  -6.740642  -0.486445
