27
Energy: -170625.852454 eV PBE+vdW (tier 2 basis)
N    0.932632  0.126105  0.581423
C    0.682946  -0.028668  2.081839
C    2.043289  -0.452621  2.690667
O    2.076950  -0.768229  3.915277
H    0.635518  -0.710986  0.057267
H    0.450523  0.942119  0.178726
H    0.475168  0.983237  2.463899
C    -0.505824  -0.964036  2.356300
C    -1.027457  -0.868057  3.799767
C    -2.225220  -1.793337  4.096136
N    -3.437024  -1.510500  3.328164
C    -4.343720  -0.529769  3.646216
N    -4.192854  0.404170  4.568859
N    -5.485593  -0.452375  2.907106
H    -0.216689  -2.001839  2.117812
H    -1.318244  -0.681412  1.665173
H    -1.305410  0.176546  4.013651
H    -0.229272  -1.133228  4.506455
H    -2.451089  -1.746020  5.172138
H    -1.958973  -2.839240  3.890351
H    -3.696342  -2.181395  2.608550
H    -3.383274  0.238920  5.177173
H    -6.154735  0.256305  3.203331
H    -5.840045  -1.227858  2.354371
O    3.055624  -0.418199  1.926009
H    1.966661  0.218657  0.459087
Cd    4.372948  -1.057773  3.848949
