27
Energy: -170627.080954 eV PBE+vdW (tier 2 basis)
N    0.329779  -0.213298  -0.160738
C    0.140250  -0.517413  1.281816
C    1.496666  -1.051898  1.793666
O    2.249196  -1.732283  1.067743
H    -0.567782  -0.009436  -0.608527
H    0.887724  0.643497  -0.270806
H    -0.135619  0.393892  1.838888
C    -0.904928  -1.639489  1.546630
C    -2.377566  -1.471294  1.098105
C    -2.746327  -1.642464  -0.401238
N    -1.948303  -2.705903  -1.044504
C    -1.054741  -2.514206  -2.036429
N    0.096526  -3.245783  -2.193761
N    -1.206860  -1.468252  -2.876817
H    -0.928558  -1.783720  2.637120
H    -0.501716  -2.590812  1.156403
H    -2.782773  -0.503942  1.431400
H    -2.937978  -2.227553  1.667666
H    -2.584588  -0.712731  -0.961147
H    -3.818697  -1.868251  -0.481362
H    -1.829260  -3.562823  -0.505248
H    0.015179  -4.194965  -1.810398
H    -0.623835  -1.495768  -3.713407
H    -2.123062  -1.043289  -3.005462
O    1.869984  -0.856014  3.032636
H    1.266179  -0.269844  3.538899
Cd    1.472247  -2.163970  -0.949404
