27
Energy: -170626.911819 eV PBE+vdW (tier 2 basis)
N    -0.393301  0.752546  0.982741
C    0.604285  0.596877  1.995354
C    2.001854  1.186285  1.707255
O    2.779318  1.647002  2.598375
H    -0.251300  0.156130  0.165162
H    -0.543857  1.714698  0.678582
H    0.255898  1.169583  2.885650
C    0.780412  -0.907006  2.370510
C    -0.476265  -1.590427  2.956117
C    -0.650903  -1.573540  4.484875
N    -1.182676  -0.304674  5.033608
C    -0.484551  0.719157  5.534800
N    0.806623  0.615167  5.972538
N    -1.032733  1.955888  5.579935
H    1.642288  -1.050455  3.045924
H    1.061077  -1.427046  1.441090
H    -0.426840  -2.653399  2.678223
H    -1.376034  -1.195973  2.459650
H    0.285554  -1.826492  4.998866
H    -1.370396  -2.350153  4.774610
H    -2.194368  -0.184325  4.957334
H    1.057060  -0.332198  6.267386
H    -0.731276  2.572346  6.334411
H    -1.971584  2.123841  5.222015
O    2.359835  1.198386  0.456382
H    3.263925  1.577721  0.334253
Cd    2.150243  1.418630  4.610516
