27
Energy: -170627.857856 eV PBE+vdW (tier 2 basis)
N    0.441634  -1.689162  -0.451482
C    0.311025  -0.875167  0.829483
C    0.721104  -1.803163  1.973956
O    0.951518  -1.226544  3.096860
H    -0.269313  -1.449706  -1.157199
H    1.368860  -1.569789  -0.887735
H    1.010875  -0.032121  0.765278
C    -1.114760  -0.321850  1.069045
C    -2.379271  -1.205778  0.910580
C    -2.559472  -2.578360  1.591869
N    -2.197632  -2.605442  3.022132
C    -2.235463  -3.754698  3.788980
N    -1.374322  -3.831326  4.809405
N    -3.061789  -4.751918  3.448042
H    -1.251736  0.537246  0.395169
H    -1.069519  0.119591  2.074981
H    -2.578282  -1.392496  -0.157180
H    -3.210495  -0.552860  1.218967
H    -1.951996  -3.354099  1.102996
H    -3.617067  -2.846181  1.432056
H    -2.297943  -1.741280  3.554654
H    -1.545650  -4.564668  5.500306
H    -2.983642  -5.669147  3.882054
H    -3.902993  -4.577231  2.902845
O    0.687444  -3.046163  1.797241
H    0.357558  -2.691502  -0.173793
Cd    0.467612  -2.939912  4.302247
