27
Energy: -170625.988066 eV PBE+vdW (tier 2 basis)
N    -0.965801  0.917120  2.463267
C    -0.277564  -0.367395  2.557361
C    1.287278  -0.267075  2.400177
O    1.965252  -1.294013  2.719614
H    -2.614515  0.777652  2.949096
H    -0.553933  1.603279  3.104960
H    -0.413835  -0.762115  3.575303
C    -0.772630  -1.392220  1.511387
C    -2.299796  -1.552349  1.404752
C    -3.011184  -2.248982  2.574989
N    -2.808254  -1.677537  3.931291
C    -3.362965  -0.529177  4.448321
N    -3.619471  -0.137551  5.624734
N    -3.573588  0.544814  3.420538
H    -0.299087  -2.358134  1.738619
H    -0.403183  -1.091551  0.517485
H    -2.496435  -2.183730  0.524897
H    -2.766379  -0.589497  1.149045
H    -2.641939  -3.279866  2.650229
H    -4.088879  -2.328329  2.352095
H    -2.673778  -2.388122  4.650851
H    -3.481150  -0.828433  6.370018
H    -3.925413  1.356659  3.953450
H    -4.277487  0.296270  2.710819
O    1.801233  0.804237  1.961353
H    -0.876058  1.320032  1.522932
Cd    3.842363  -0.188603  2.159611
