27
Energy: -170625.766527 eV PBE+vdW (tier 2 basis)
N    -0.314544  1.171962  1.190006
C    0.503151  0.182404  1.996329
C    1.905784  0.053555  1.382042
O    2.180686  0.745175  0.351039
H    -1.178793  1.363067  1.768405
H    0.202528  2.048544  1.023128
H    0.634613  0.651564  2.986701
C    -0.207376  -1.176847  2.115360
C    -1.698738  -1.152532  2.519452
C    -2.068256  -0.303246  3.743575
N    -2.192816  1.142989  3.404080
C    -1.585182  2.205730  4.108448
N    -1.798391  3.460485  3.863230
N    -0.549297  1.883808  4.962496
H    0.374615  -1.751949  2.849984
H    -0.113607  -1.722246  1.162909
H    -1.977547  -2.195766  2.727738
H    -2.336824  -0.859644  1.669446
H    -1.323346  -0.440507  4.536633
H    -3.028998  -0.646158  4.152881
H    -3.144408  1.391942  3.123575
H    -2.592141  3.650219  3.240184
H    -0.176233  2.715930  5.424792
H    -0.673111  1.100691  5.602898
O    2.719425  -0.735534  1.950185
H    -0.584081  0.796188  0.268479
Cd    4.311958  -0.190871  0.428124
