27
Energy: -170627.552717 eV PBE+vdW (tier 2 basis)
N    -0.874830  0.235985  1.757239
C    0.183287  0.088606  2.717769
C    1.305574  1.218243  2.572061
O    1.695973  1.763529  3.647710
H    -4.085918  -4.832903  1.020055
H    -1.470684  1.049763  1.928118
H    -0.224745  0.234932  3.726805
C    0.936650  -1.258451  2.632108
C    0.156505  -2.479918  3.170596
C    -0.756933  -3.236798  2.197849
N    -1.992770  -2.502934  1.888112
C    -3.135945  -3.062616  1.470992
N    -3.194453  -4.360421  1.136629
N    -4.248472  -2.305503  1.388335
H    1.848731  -1.160260  3.238242
H    1.271904  -1.424345  1.595383
H    -0.407027  -2.212179  4.078200
H    0.909789  -3.211323  3.497217
H    -1.037032  -4.187662  2.673463
H    -0.206230  -3.469732  1.269632
H    -1.902522  -1.476376  1.830482
H    -2.357926  -4.892566  0.921589
H    -5.085806  -2.656168  0.933473
H    -4.348530  -1.470674  1.955972
O    1.760621  1.492907  1.427106
H    -0.540302  0.264374  0.788882
Cd    3.144648  3.010394  2.451742
