27
Energy: -170628.029967 eV PBE+vdW (tier 2 basis)
N    0.689466  -0.502027  -0.377544
C    0.257553  0.264682  0.867931
C    1.526459  0.663023  1.612425
O    1.405388  1.532792  2.527024
H    1.576544  -0.996293  -0.154119
H    -0.022498  -1.175347  -0.697636
H    -0.285138  1.159223  0.536580
C    -0.655874  -0.568568  1.799040
C    -0.182863  -1.945363  2.324896
C    0.969305  -2.070790  3.340370
N    0.727215  -1.327109  4.600406
C    1.688928  -1.079483  5.544210
N    2.913067  -0.657635  5.190461
N    1.352070  -1.241676  6.836118
H    -1.607314  -0.723241  1.267126
H    -0.897617  0.105126  2.634289
H    0.079823  -2.620025  1.493241
H    -1.079168  -2.413342  2.762579
H    1.925209  -1.751085  2.914542
H    1.082660  -3.142987  3.570133
H    -0.202149  -1.474350  4.995482
H    3.600408  -0.710065  5.942876
H    1.910556  -0.833736  7.581798
H    0.584592  -1.846291  7.119142
O    2.589378  -0.002504  1.396962
H    0.892163  0.136177  -1.162814
Cd    3.165874  0.680722  3.576297
