27
Energy: -170627.406799 eV PBE+vdW (tier 2 basis)
N    1.817245  -0.708985  1.946335
C    0.350379  -0.441941  1.736178
C    0.062584  0.937827  2.333694
O    0.616833  1.355012  3.361074
H    2.384783  -0.139458  1.302778
H    2.025555  -1.686085  1.702751
H    0.127780  -0.394019  0.660693
C    -0.472474  -1.585959  2.418004
C    -1.828204  -1.246184  3.099314
C    -1.937538  -1.756694  4.554002
N    -0.892513  -1.146197  5.401558
C    0.322274  -1.648052  5.696071
N    1.398635  -0.861953  6.052282
N    0.582485  -2.962576  5.572170
H    0.194877  -2.047276  3.164294
H    -0.624862  -2.361937  1.655946
H    -2.657674  -1.684594  2.528013
H    -2.028988  -0.164924  3.099657
H    -1.865669  -2.850220  4.603558
H    -2.917014  -1.494189  4.974468
H    -0.972703  -0.136359  5.519349
H    1.100092  -0.011307  6.544804
H    1.425247  -3.292721  6.041181
H    -0.161038  -3.645677  5.450316
O    -0.838317  1.613234  1.656550
H    -0.998532  2.496914  2.066934
Cd    2.158813  -0.224420  4.152711
