27
Energy: -170627.587039 eV PBE+vdW (tier 2 basis)
N    -0.545051  -0.531058  0.322932
C    -0.683311  0.299637  1.449083
C    0.740245  0.991761  1.882186
O    0.759613  2.249623  1.880471
H    -0.445953  -0.083968  -0.584508
H    0.034273  -1.362741  0.422384
H    -1.305694  1.164212  1.190682
C    -1.185183  -0.432718  2.708503
C    -2.572203  -1.086000  2.572938
C    -3.737845  -0.097901  2.404650
N    -5.052442  -0.715739  2.617142
C    -5.884398  -1.182927  1.675290
N    -5.465430  -1.364157  0.414907
N    -7.156650  -1.458018  1.992838
H    -1.188010  0.279359  3.547527
H    -0.456616  -1.213660  2.969306
H    -2.740292  -1.666810  3.491675
H    -2.561885  -1.813937  1.748044
H    -3.744700  0.380039  1.415160
H    -3.655805  0.715616  3.139233
H    -5.367570  -0.800489  3.578692
H    -6.126838  -1.534057  -0.333567
H    -7.741827  -2.021475  1.386957
H    -7.578206  -1.108756  2.845493
O    1.702477  0.244757  2.175165
H    -4.482268  -1.435193  0.189519
Cd    2.969569  2.162601  2.484296
