27
Energy: -170625.663577 eV PBE+vdW (tier 2 basis)
N    0.940439  -1.689935  0.451460
C    -0.063586  -0.656704  0.583849
C    0.619182  0.675888  0.923891
O    1.559599  0.763447  1.710093
H    1.768155  -1.435105  -0.089672
H    0.574227  -2.595270  0.151994
H    -0.616183  -0.514207  -0.369528
C    -1.154453  -1.047405  1.638123
C    -0.715716  -1.759463  2.935934
C    -0.147468  -0.939289  4.104940
N    1.283322  -0.614531  3.946719
C    2.188295  -0.477850  4.901801
N    3.355368  0.141773  4.776631
N    2.011911  -1.030676  6.227574
H    -1.834649  -1.738055  1.118892
H    -1.760996  -0.156529  1.863644
H    -0.027892  -2.587505  2.710076
H    -1.630357  -2.223107  3.335244
H    -0.280926  -1.506454  5.036085
H    -0.702964  0.006852  4.224913
H    1.525956  -0.185724  3.008110
H    3.577616  0.615730  3.895687
H    1.466975  -0.405899  6.835931
H    1.557228  -1.950701  6.231705
O    0.145653  1.785498  0.363201
H    -0.551303  1.600559  -0.300336
Cd    4.462913  -0.594233  6.471657
