27
Energy: -170627.670258 eV PBE+vdW (tier 2 basis)
N    0.743753  0.040475  -0.225716
C    0.207400  0.102650  1.075554
C    1.353814  0.518995  2.163037
O    1.190196  1.635918  2.723936
H    -3.161329  -5.187901  -1.741188
H    0.873590  0.917438  -0.727523
H    -0.516043  0.925743  1.131964
C    -0.410379  -1.221353  1.563267
C    -1.698212  -1.550263  0.790786
C    -2.346810  -2.851946  1.293233
N    -3.667981  -3.100491  0.697977
C    -3.951754  -3.913812  -0.333015
N    -2.979409  -4.410659  -1.113353
N    -5.229028  -4.242172  -0.583124
H    -0.631700  -1.131274  2.638039
H    0.337113  -2.024583  1.461377
H    -1.481547  -1.614568  -0.286992
H    -2.420724  -0.727116  0.912037
H    -2.498669  -2.810786  2.381520
H    -1.710373  -3.729206  1.107957
H    -4.454928  -2.597935  1.103468
H    -2.051492  -4.004602  -1.131942
H    -5.504339  -4.650973  -1.471243
H    -5.954250  -4.125672  0.118250
O    2.313874  -0.267388  2.355879
H    1.483543  -0.640080  -0.400907
Cd    3.176357  1.333126  3.823770
