27
Energy: -170626.251996 eV PBE+vdW (tier 2 basis)
N    -0.843211  -0.208120  -1.067704
C    -0.447854  0.054845  0.371429
C    1.075931  0.303308  0.272740
O    1.636567  0.292599  -0.811879
H    -1.614670  0.388714  -1.385919
H    0.039900  0.022042  -1.601803
H    -0.919110  0.999553  0.682595
C    -0.833264  -1.075840  1.329987
C    -2.355430  -1.287534  1.555853
C    -2.945990  -2.642832  1.111163
N    -3.563081  -2.691838  -0.230528
C    -2.958381  -2.923392  -1.409846
N    -3.599586  -2.981881  -2.582340
N    -1.571189  -3.012894  -1.511895
H    -0.361716  -0.821437  2.288338
H    -0.339894  -2.008082  1.011074
H    -2.950751  -0.474276  1.112712
H    -2.540737  -1.214099  2.635854
H    -3.757019  -2.918390  1.796240
H    -2.200094  -3.448217  1.193376
H    -4.579448  -2.624241  -0.251014
H    -4.608927  -2.839349  -2.643577
H    -1.078850  -1.226862  -1.245717
H    -1.125688  -3.547002  -0.758063
O    1.628657  0.526427  1.455085
H    2.588523  0.713742  1.340124
Cd    -1.853610  -3.764409  -3.595406
