27
Energy: -170625.662231 eV PBE+vdW (tier 2 basis)
N    -0.360937  -0.180286  -0.222785
C    -0.009551  -0.090402  1.158815
C    1.442319  -0.542172  1.476864
O    2.138888  0.051646  2.292145
H    0.010644  0.523691  -0.859036
H    -0.430559  -1.110045  -0.637659
H    -0.010269  0.977665  1.427909
C    -1.060156  -0.871240  2.015512
C    -0.735468  -1.375241  3.439536
C    -0.080292  -0.443105  4.464532
N    -0.676983  0.943945  4.493198
C    0.236920  2.043416  4.792833
N    -0.220119  2.860013  5.713106
N    1.385679  2.121199  4.132115
H    -1.343445  -1.766358  1.442072
H    -1.967730  -0.246710  2.011309
H    -0.076474  -2.255196  3.383797
H    -1.684306  -1.759475  3.844160
H    0.995178  -0.355743  4.274311
H    -0.183422  -0.873034  5.469438
H    -1.128887  1.134510  3.588296
H    0.319030  3.692929  5.967443
H    2.065997  2.846215  4.358821
H    1.659800  1.419787  3.416990
O    1.817136  -1.615453  0.793705
H    2.746219  -1.851216  1.020499
Cd    -2.082028  1.895501  6.306815
