27
Energy: -170625.845647 eV PBE+vdW (tier 2 basis)
N    1.607871  1.041824  1.443168
C    1.005155  0.864554  2.836618
C    2.159801  0.322052  3.719723
O    1.892812  -0.034146  4.902384
H    1.365979  0.257235  0.819003
H    1.313391  1.915792  0.985438
H    0.782710  1.877357  3.207515
C    -0.272263  0.011269  2.781485
C    -1.110230  0.067240  4.072851
C    -2.382304  -0.789876  4.009636
N    -3.360795  -0.271461  3.055171
C    -4.290329  -1.016077  2.361925
N    -5.056339  -0.538628  1.402738
N    -4.366494  -2.355381  2.598388
H    -0.001681  -1.033428  2.552844
H    -0.884199  0.375988  1.939273
H    -1.377389  1.111650  4.305721
H    -0.513706  -0.289858  4.922693
H    -2.821523  -0.843611  5.021529
H    -2.129340  -1.817655  3.707381
H    -3.543998  0.730591  3.074225
H    -4.985197  0.480684  1.291595
H    -5.054483  -2.848475  2.030219
H    -4.165563  -2.750379  3.512422
O    3.319468  0.308746  3.203395
H    2.646831  1.031156  1.573164
Cd    4.138162  -0.482736  5.341556
