27
Energy: -170625.712543 eV PBE+vdW (tier 2 basis)
N    0.537178  -0.388992  -0.040231
C    0.036124  0.025633  1.345917
C    1.310417  0.428915  2.131182
O    1.163044  0.770237  3.340591
H    0.458112  -1.403854  -0.195545
H    0.060441  0.097798  -0.810867
H    -0.550821  0.946728  1.210337
C    -0.793439  -1.048472  2.062065
C    -2.267466  -1.198517  1.643973
C    -2.542448  -1.966732  0.333513
N    -3.956190  -2.242826  0.119880
C    -4.644079  -3.269085  0.726649
N    -4.131755  -4.213290  1.496069
N    -5.989040  -3.322090  0.545451
H    -0.778698  -0.754682  3.121079
H    -0.260378  -2.014993  2.021348
H    -2.749598  -0.208878  1.603806
H    -2.770418  -1.739517  2.459588
H    -1.991349  -2.921769  0.317562
H    -2.210908  -1.403472  -0.553315
H    -4.499835  -1.512980  -0.336487
H    -3.106874  -4.194308  1.529363
H    -6.468969  -4.119835  0.958145
H    -6.492379  -2.756263  -0.131389
O    2.413304  0.415930  1.507072
H    1.558612  -0.137810  -0.044644
Cd    3.386345  1.230958  3.610420
