27
Energy: -170625.982409 eV PBE+vdW (tier 2 basis)
N    -0.375816  0.212521  -0.032095
C    0.149779  -0.213196  1.222502
C    1.693708  -0.443053  1.209833
O    2.342572  -0.739890  2.205134
H    -0.264956  1.184557  -0.314120
H    -0.417289  -0.449706  -0.805951
H    0.005330  0.607123  1.946154
C    -0.613953  -1.469121  1.734144
C    -0.379372  -1.813869  3.224002
C    0.514868  -3.048097  3.429164
N    0.897388  -3.212687  4.846363
C    2.056401  -2.874820  5.413894
N    2.401838  -3.083516  6.670641
N    3.076376  -2.201424  4.658224
H    -0.386299  -2.329824  1.084687
H    -1.675916  -1.243024  1.576386
H    -1.353001  -1.996362  3.701349
H    0.060943  -0.954511  3.750956
H    1.431512  -2.992862  2.831782
H    -0.008048  -3.967365  3.130717
H    0.183165  -3.602314  5.464250
H    1.786242  -3.618007  7.288916
H    2.722236  -1.546794  3.939016
H    3.682719  -2.878301  4.177242
O    2.223715  -0.266543  0.001691
H    3.197869  -0.397089  0.047982
Cd    4.142823  -1.796152  6.910500
