27
Energy: -170625.857139 eV PBE+vdW (tier 2 basis)
N    -0.352130  1.486873  1.048272
C    -0.008688  0.402336  1.994604
C    1.366988  -0.162997  1.597073
O    1.902845  0.082084  0.524646
H    -1.215585  1.947597  1.354360
H    0.375001  2.210060  1.053246
H    0.089040  0.795809  3.023486
C    -1.113449  -0.689917  2.016187
C    -1.270613  -1.621822  0.795594
C    -1.787539  -0.995255  -0.518700
N    -0.787504  -0.077165  -1.083945
C    0.003776  -0.285120  -2.116093
N    1.221089  0.240124  -2.239069
N    -0.380782  -1.066511  -3.269065
H    -2.068942  -0.182723  2.227727
H    -0.937124  -1.331349  2.892430
H    -2.003915  -2.393511  1.074003
H    -0.330495  -2.159704  0.591365
H    -2.703075  -0.411477  -0.334929
H    -2.033130  -1.787907  -1.236923
H    -0.503480  0.693047  -0.343310
H    1.676434  0.620118  -1.393154
H    -1.383571  -1.022006  -3.485045
H    -0.106609  -2.053731  -3.187224
O    1.979770  -0.974350  2.462060
H    1.511474  -1.032228  3.320405
Cd    1.539741  0.139964  -4.331169
