27
Energy: -170625.884912 eV PBE+vdW (tier 2 basis)
N    -0.223470  0.293329  0.447148
C    0.091281  -0.151210  1.764040
C    1.623868  -0.256105  2.052412
O    2.068082  -0.338371  3.188588
H    -0.066025  -0.339156  -0.337178
H    -0.094678  1.278018  0.219774
H    -0.258668  0.619109  2.470047
C    -0.622375  -1.506641  2.051645
C    -0.352879  -2.186603  3.407268
C    -0.651981  -1.286736  4.605653
N    -0.403342  -1.947517  5.922161
C    0.937028  -2.376463  6.278055
N    0.941414  -3.393478  7.109226
N    1.990071  -1.739013  5.778074
H    -0.353890  -2.218456  1.256304
H    -1.697035  -1.304577  1.936250
H    0.684945  -2.548707  3.445230
H    -0.997563  -3.078801  3.453573
H    -1.711965  -0.996305  4.622444
H    -0.071308  -0.349359  4.562175
H    -0.720305  -1.307125  6.663785
H    1.824332  -3.709218  7.519161
H    2.933514  -2.069864  5.973882
H    1.905944  -0.996891  5.075285
O    2.359817  -0.251036  0.945466
H    3.313664  -0.307779  1.182223
Cd    -1.118350  -4.119140  7.015880
