27
Energy: -170625.954086 eV PBE+vdW (tier 2 basis)
N    0.518455  0.366272  -0.028020
C    -0.309764  0.083510  1.090536
C    0.310367  0.563979  2.473605
O    -0.220879  0.299559  3.526158
H    0.628704  1.339044  -0.313092
H    1.371457  -0.183465  -0.141389
H    -1.218170  0.706939  1.018987
C    -0.661542  -1.412723  1.217243
C    -1.540529  -1.978042  0.085547
C    -3.020602  -1.570625  0.199408
N    -3.846486  -2.146913  -0.877144
C    -4.719409  -3.171644  -0.780686
N    -5.711980  -3.326196  -1.674602
N    -4.615920  -4.063046  0.231986
H    -1.136700  -1.559610  2.198274
H    0.275421  -1.991341  1.249026
H    -1.464625  -3.075875  0.113142
H    -1.145859  -1.667967  -0.894258
H    -3.144192  -0.479555  0.134859
H    -3.451093  -1.872071  1.164802
H    -3.804333  -1.679265  -1.781436
H    -5.859096  -2.515873  -2.281133
H    -5.465594  -4.481503  0.600693
H    -3.821079  -4.043090  0.862765
O    1.421475  1.282236  2.298564
H    1.752472  1.582203  3.176782
Cd    -6.313073  -5.212689  -2.585362
