27
Energy: -170627.26667 eV PBE+vdW (tier 2 basis)
N    0.074650  0.821974  0.875770
C    0.183109  -0.121148  2.022702
C    1.566718  -0.796703  1.905158
O    2.081384  -1.033510  0.796399
H    -0.896047  1.129994  0.754109
H    0.622607  1.672101  1.058161
H    0.107126  0.428994  2.974948
C    -0.883406  -1.257517  1.960655
C    -2.359210  -0.818090  1.773134
C    -3.153787  -1.696057  0.769105
N    -2.416852  -1.958164  -0.487699
C    -1.906566  -1.015937  -1.304025
N    -0.818704  -1.203881  -2.106780
N    -2.419543  0.240977  -1.269040
H    -0.782656  -1.854996  2.877405
H    -0.593700  -1.938218  1.142835
H    -2.431327  0.236226  1.467591
H    -2.891945  -0.861125  2.732858
H    -4.135560  -1.246279  0.559516
H    -3.364256  -2.683675  1.196949
H    -2.004918  -2.884822  -0.576987
H    -0.655261  -2.192862  -2.324933
H    -2.228225  0.797956  -2.102445
H    -3.352463  0.379071  -0.883106
O    2.206765  -1.198416  2.974961
H    1.774058  -0.933810  3.815756
Cd    0.821415  -0.442200  -0.948741
