27
Energy: -170626.367615 eV PBE+vdW (tier 2 basis)
N    1.098437  -1.067037  1.214344
C    0.384237  0.115928  1.846447
C    1.373295  0.710937  2.859724
O    2.426529  0.168957  3.154517
H    0.508554  -1.506182  0.493033
H    1.975459  -0.759499  0.767864
H    0.242484  0.863265  1.051319
C    -1.002066  -0.284115  2.401507
C    -1.077633  -1.589704  3.210007
C    -0.320485  -1.602658  4.559704
N    0.165865  -2.937957  4.923928
C    1.208732  -3.557355  4.332436
N    1.482388  -4.853530  4.487603
N    2.059435  -2.865450  3.464957
H    -1.692710  -0.364935  1.549284
H    -1.363984  0.572156  2.989133
H    -0.726512  -2.438654  2.601166
H    -2.141060  -1.801250  3.389232
H    -0.973133  -1.268825  5.375542
H    0.538883  -0.920381  4.568022
H    -0.422169  -3.500022  5.536965
H    0.838103  -5.476577  4.977717
H    1.365740  -1.793896  1.938916
H    2.374244  -1.956941  3.833586
O    0.919536  1.868841  3.330250
H    1.583016  2.258053  3.944648
Cd    3.392907  -4.658060  3.498118
