27
Energy: -170627.260015 eV PBE+vdW (tier 2 basis)
N    1.311673  2.977965  2.216700
C    0.185653  2.162362  2.801320
C    0.389597  1.857924  4.303980
O    1.587946  1.645975  4.796338
H    1.365410  2.855126  1.197014
H    1.162721  3.982467  2.379604
H    -0.725946  2.779402  2.758373
C    0.003333  0.879931  1.951851
C    -0.685693  -0.364603  2.553249
C    -2.098093  -0.261365  3.164815
N    -3.035677  0.610485  2.435382
C    -3.788565  1.580934  2.997825
N    -3.394831  2.196318  4.120129
N    -4.918269  1.971880  2.382571
H    1.004756  0.534875  1.636804
H    -0.513245  1.182304  1.027446
H    -0.049553  -0.811033  3.332905
H    -0.703896  -1.103053  1.738051
H    -2.049383  0.084223  4.199945
H    -2.528711  -1.273007  3.199381
H    -3.356655  0.277715  1.527458
H    -4.062723  2.727073  4.671989
H    -5.400910  1.365384  1.726085
H    -5.410857  2.810159  2.677256
O    -0.611555  1.761873  5.010761
H    -2.466771  2.031838  4.527587
Cd    3.104830  2.251799  3.465923
