27
Energy: -170627.892632 eV PBE+vdW (tier 2 basis)
N    1.317171  -0.589875  2.323047
C    0.290786  0.002354  3.232832
C    0.936043  0.147705  4.622277
O    1.831685  -0.620815  5.001859
H    0.871123  -0.906727  1.455002
H    2.004412  0.123984  2.048193
H    0.006448  0.997973  2.855964
C    -1.003721  -0.860036  3.324038
C    -0.996277  -2.208872  4.102704
C    -1.007286  -3.513346  3.291402
N    0.297647  -3.862677  2.606276
C    1.112658  -4.858408  3.242316
N    2.164750  -4.381343  3.873995
N    0.782092  -6.146884  3.135310
H    -1.366453  -1.006898  2.294070
H    -1.756754  -0.208887  3.789769
H    -1.925163  -2.235753  4.692150
H    -0.211587  -2.247407  4.877731
H    -1.770214  -3.456475  2.503481
H    -1.304346  -4.335044  3.959279
H    0.110262  -4.148499  1.640178
H    2.763680  -5.029625  4.392455
H    -0.082326  -6.436151  2.684166
H    1.363319  -6.889512  3.522941
O    0.496318  1.057458  5.462064
H    -0.168716  1.664357  5.071697
Cd    2.212619  -2.289694  3.527307
