27
Energy: -170626.017047 eV PBE+vdW (tier 2 basis)
N    0.460280  0.888408  1.092021
C    0.878200  -0.393677  1.670937
C    1.494816  -1.350701  0.598033
O    2.375716  -2.178585  0.994937
H    -0.080216  0.715981  0.233993
H    -0.559002  1.948780  1.960292
H    1.686856  -0.208692  2.391830
C    -0.289531  -1.154135  2.358371
C    -0.379303  -0.942035  3.879425
C    -0.737818  0.465930  4.384493
N    -2.082528  0.907764  3.989111
C    -2.447513  1.749422  2.982369
N    -3.549668  2.009415  2.405520
N    -1.313975  2.573566  2.445677
H    -0.163364  -2.233777  2.198730
H    -1.229939  -0.886879  1.850171
H    0.573621  -1.230112  4.350869
H    -1.124758  -1.652532  4.269472
H    0.002979  1.210637  4.063863
H    -0.701966  0.467032  5.483285
H    -2.859993  0.406777  4.419913
H    -4.359917  1.467498  2.724050
H    -1.760250  3.191158  1.748001
H    -0.881514  3.165111  3.170978
O    1.080247  -1.289405  -0.599620
H    1.279643  1.434000  0.800298
Cd    2.505596  -3.000446  -1.090829
