27
Energy: -170625.894003 eV PBE+vdW (tier 2 basis)
N    1.059260  0.235773  0.455170
C    0.073286  0.169222  1.482917
C    0.578885  0.893188  2.774143
O    0.335596  0.484746  3.888590
H    1.382751  1.152564  0.149406
H    1.085721  -0.491680  -0.255092
H    -0.811175  0.797318  1.218875
C    -0.439494  -1.248159  1.765388
C    0.621433  -2.241746  2.277510
C    -0.023305  -3.585897  2.623288
N    0.977993  -4.517519  3.182844
C    0.684721  -5.667631  3.794018
N    -0.504906  -6.188410  3.983510
N    1.750214  -6.463915  4.358864
H    -0.909715  -1.625705  0.843587
H    -1.242448  -1.153655  2.510523
H    1.099599  -1.831513  3.179400
H    1.405501  -2.393857  1.517782
H    -0.482683  -4.046012  1.732861
H    -0.806950  -3.439738  3.384265
H    1.961533  -4.294645  3.033978
H    -1.323708  -5.729661  3.577792
H    2.290721  -6.955800  3.636191
H    2.406959  -5.916203  4.927466
O    1.246284  2.009677  2.466985
H    1.502250  2.475031  3.294651
Cd    -0.119424  -7.897688  5.327228
