27
Energy: -170625.998208 eV PBE+vdW (tier 2 basis)
N    -0.462033  0.896260  0.282718
C    -0.228202  0.180461  1.490649
C    0.863728  0.849996  2.422824
O    1.358475  0.257722  3.353536
H    -0.959608  1.784136  0.344613
H    0.284764  0.907673  -0.413233
H    -1.140883  0.239991  2.110499
C    0.152874  -1.292352  1.256490
C    -1.007528  -2.122040  0.686434
C    -0.598144  -3.587557  0.518658
N    -1.727000  -4.389037  0.003916
C    -1.764221  -5.724067  -0.017085
N    -0.828901  -6.553173  0.382568
N    -2.953063  -6.392516  -0.489893
H    0.481245  -1.698665  2.224079
H    1.026421  -1.337397  0.584488
H    -1.322094  -1.708103  -0.285168
H    -1.872158  -2.062748  1.367339
H    -0.299232  -4.013178  1.490183
H    0.252988  -3.677790  -0.176369
H    -2.487713  -3.885648  -0.451510
H    0.076464  -6.181851  0.678926
H    -3.821388  -5.993076  -0.115038
H    -3.017355  -6.387732  -1.515536
O    1.111365  2.113018  2.065098
H    1.757231  2.503918  2.697544
Cd    -1.828351  -8.523493  0.363629
