27
Energy: -170625.757078 eV PBE+vdW (tier 2 basis)
N    0.914710  0.273827  -0.134633
C    0.822779  -0.287990  1.258388
C    2.033798  -1.196629  1.622534
O    3.192594  -1.016352  1.044888
H    0.517091  -0.375303  -0.825694
H    0.368805  1.140972  -0.211199
H    0.943476  0.579677  1.930223
C    -0.558784  -0.903240  1.593262
C    -1.060193  -2.174555  0.870446
C    -0.350268  -3.518530  1.087099
N    -0.129805  -3.844910  2.553324
C    0.569657  -5.212909  2.782986
N    1.814873  -5.321284  2.934108
N    -0.317449  -6.240115  2.675704
H    -1.308439  -0.118606  1.412544
H    -0.574291  -1.041995  2.683854
H    -1.096764  -2.027766  -0.221744
H    -2.117962  -2.286337  1.155947
H    0.648946  -3.561917  0.636539
H    -0.945340  -4.332214  0.654795
H    -1.011787  -3.784042  3.085978
H    2.369861  -4.461859  2.910096
H    0.083443  -7.164544  2.840120
H    -1.286745  -6.139579  2.966574
O    1.900368  -2.038579  2.514110
H    0.530114  -3.115284  2.913426
Cd    3.194236  0.455724  -0.474472
