27
Energy: -170626.957701 eV PBE+vdW (tier 2 basis)
N    0.870293  1.330416  1.395823
C    0.601691  0.558103  2.608962
C    1.878510  -0.085294  3.195886
O    3.022261  0.142045  2.781327
H    -2.359014  -2.144564  -1.280823
H    0.262530  2.158736  1.386139
H    0.192418  1.176402  3.431748
C    -0.469336  -0.538084  2.279634
C    -0.053389  -1.555852  1.206396
C    -1.082503  -2.694368  1.100277
N    -0.738296  -3.684094  0.067188
C    -1.437419  -3.976331  -1.044370
N    -2.350603  -3.125151  -1.536610
N    -1.214089  -5.138508  -1.677327
H    -1.377464  -0.001341  1.967997
H    -0.750521  -1.053091  3.214981
H    0.929801  -1.993022  1.449044
H    0.057636  -1.049111  0.236955
H    -2.090410  -2.311265  0.891430
H    -1.156368  -3.236227  2.056056
H    0.056243  -4.290190  0.263502
H    -3.023730  -3.429898  -2.233718
H    -1.531048  -5.287744  -2.631170
H    -0.773485  -5.924445  -1.208243
O    1.760040  -0.924286  4.214146
H    0.834506  -1.001561  4.523597
Cd    2.905877  1.930178  1.356752
