27
Energy: -170627.14813 eV PBE+vdW (tier 2 basis)
N    0.441923  0.578032  1.143307
C    0.193339  0.088942  2.470350
C    1.416165  0.015477  3.394238
O    1.399349  0.265958  4.640323
H    0.923515  1.477377  1.110761
H    0.930692  -0.087263  0.540753
H    -0.485620  0.809768  2.966236
C    -0.498494  -1.306744  2.382271
C    -1.176036  -1.906922  3.628227
C    -2.568923  -1.393737  4.010903
N    -2.583424  0.047079  4.509288
C    -3.138061  0.250615  5.816587
N    -2.219695  0.395878  6.753787
N    -4.456056  0.293521  5.988049
H    0.248985  -2.024929  2.012229
H    -1.237888  -1.196417  1.573675
H    -0.508933  -1.893253  4.515482
H    -1.303283  -2.984615  3.437378
H    -2.979364  -2.029302  4.807481
H    -3.251912  -1.464130  3.153029
H    -3.035884  0.660371  3.822678
H    -2.500226  0.481210  7.734885
H    -5.096517  0.100270  5.220983
H    -4.878370  0.488573  6.896112
O    2.544870  -0.298701  2.821962
H    3.289241  -0.317146  3.469859
Cd    -0.398648  0.461450  5.697696
