27
Energy: -170625.57933 eV PBE+vdW (tier 2 basis)
N    -0.245304  -1.194172  0.103104
C    -0.246272  -0.310971  1.228456
C    1.165070  -0.256128  1.825898
O    1.858736  -1.263410  1.871285
H    -0.794991  -0.953037  -0.718046
H    0.570430  -1.783569  -0.054763
H    -0.601548  0.685264  0.917937
C    -1.220848  -0.795797  2.380818
C    -0.825287  -2.121837  3.063487
C    -0.074767  -1.927444  4.393452
N    0.486662  -3.201752  4.935316
C    1.882809  -3.489965  4.890597
N    2.270997  -4.378610  5.793458
N    2.685171  -2.868160  4.035224
H    -2.200737  -0.903501  1.898427
H    -1.322086  0.020799  3.112729
H    -0.229381  -2.736438  2.371159
H    -1.745896  -2.691047  3.264093
H    -0.764473  -1.534728  5.154049
H    0.750063  -1.206458  4.328609
H    -0.037426  -4.012212  4.584084
H    3.215750  -4.767883  5.741747
H    3.695140  -2.981375  4.113998
H    2.351973  -2.314289  3.225939
O    1.573982  0.873751  2.407760
H    0.979115  1.629316  2.218521
Cd    0.765632  -4.359363  7.337188
