27
Energy: -170625.777645 eV PBE+vdW (tier 2 basis)
N    0.360042  0.220006  0.315002
C    0.754879  -0.310056  1.694543
C    2.286357  -0.115978  1.791724
O    2.898947  0.192682  0.723150
H    1.256431  0.306661  -0.221151
H    -0.284085  -0.411941  -0.182929
H    0.274695  0.334259  2.442441
C    0.305640  -1.782259  1.830438
C    0.545181  -2.451044  3.195846
C    -0.306059  -1.878658  4.352081
N    -0.110023  -2.603108  5.603839
C    -0.576271  -3.859603  5.912344
N    -0.101095  -4.610733  6.883986
N    -1.547192  -4.413715  5.130529
H    0.818120  -2.378290  1.058327
H    -0.772514  -1.816915  1.596943
H    1.606797  -2.394798  3.473059
H    0.309206  -3.517639  3.070440
H    -1.376296  -1.876399  4.088056
H    -0.040788  -0.833611  4.564322
H    0.583961  -2.232627  6.248477
H    0.579139  -4.128534  7.484981
H    -1.886413  -5.316178  5.462377
H    -2.220451  -3.837179  4.634852
O    2.834461  -0.282118  2.918636
H    -0.077224  1.151922  0.357591
Cd    4.941736  0.217416  2.012002
