27
Energy: -170626.676174 eV PBE+vdW (tier 2 basis)
N    0.337529  -2.090486  1.072688
C    0.341936  -0.763074  1.702819
C    1.655859  0.052393  1.509825
O    2.767571  -0.484824  1.396307
H    -1.267526  -3.247823  1.223613
H    0.216822  -1.948876  0.055745
H    -0.463883  -0.171466  1.227432
C    0.118587  -0.860456  3.241288
C    -1.325747  -0.738927  3.760965
C    -2.314749  -1.874973  3.464284
N    -3.074422  -1.719696  2.200676
C    -3.238045  -2.685790  1.271822
N    -2.238220  -3.547825  1.036020
N    -4.383541  -2.756198  0.577246
H    0.702349  -0.077925  3.749231
H    0.553586  -1.817739  3.576506
H    -1.763081  0.224602  3.452985
H    -1.245217  -0.675442  4.856235
H    -3.057128  -1.912429  4.275060
H    -1.820430  -2.853999  3.447820
H    -3.806405  -1.010226  2.220167
H    -2.403356  -4.386336  0.487151
H    -4.449051  -3.295906  -0.281556
H    -5.245034  -2.348387  0.930845
O    1.615014  1.367690  1.544731
H    0.701062  1.717080  1.610604
Cd    2.423068  -2.720142  1.163610
