27
Energy: -170625.844447 eV PBE+vdW (tier 2 basis)
N    1.018378  -0.769718  0.146539
C    0.799629  -0.613291  1.604061
C    1.904880  -1.229062  2.449666
O    1.855321  -1.525468  3.601139
H    0.197471  -0.391887  -0.339039
H    1.800366  -0.179812  -0.160089
H    0.882799  0.457066  1.884203
C    -0.624279  -1.047236  2.039704
C    -1.021248  -2.523403  2.239518
C    -0.871456  -3.540351  1.081321
N    0.315017  -4.407603  1.281044
C    1.536867  -4.243206  0.783584
N    2.659825  -4.802156  1.211967
N    1.752360  -3.329400  -0.313032
H    -1.310657  -0.576806  1.317652
H    -0.827959  -0.544471  2.995167
H    -2.087202  -2.498039  2.508657
H    -0.520928  -2.925173  3.134697
H    -0.809994  -3.074452  0.090972
H    -1.736893  -4.213760  1.054395
H    0.231478  -5.069877  2.055768
H    2.632798  -5.443198  2.010243
H    1.307545  -2.331348  -0.208300
H    1.501547  -3.753103  -1.216015
O    3.216236  -1.316767  1.754813
H    3.854501  -1.224403  2.500611
Cd    3.922945  -3.209292  0.436352
