27
Energy: -170625.704841 eV PBE+vdW (tier 2 basis)
N    -1.600783  0.383487  -0.211252
C    -1.038827  -0.120573  1.012978
C    0.386175  -0.647036  0.729198
O    0.863506  -1.662696  1.220905
H    -1.022531  1.002847  -0.778827
H    -2.592526  0.614628  -0.215369
H    -0.863783  0.710758  1.740244
C    -1.979776  -1.160159  1.669638
C    -1.970726  -1.203304  3.212858
C    -0.742047  -1.742072  3.957929
N    -0.799062  -3.203360  4.311431
C    -0.862294  -4.236650  3.283474
N    -1.611197  -5.256033  3.640444
N    -0.173649  -4.086591  2.161624
H    -1.809458  -2.145031  1.214475
H    -3.003450  -0.880816  1.381661
H    -2.861228  -1.765177  3.543087
H    -2.137478  -0.179288  3.581473
H    -0.657861  -1.246263  4.933728
H    0.196378  -1.534982  3.422138
H    0.032863  -3.408573  4.884923
H    -1.651210  -6.088119  3.045481
H    -0.219433  -4.797593  1.432671
H    0.324342  -3.209111  1.927379
O    1.051532  0.165981  -0.084811
H    1.960157  -0.180175  -0.235186
Cd    -2.560643  -4.517895  5.459180
