27
Energy: -170625.877577 eV PBE+vdW (tier 2 basis)
N    0.332021  -0.739069  -0.156247
C    0.340624  -0.253018  1.180841
C    1.668886  -0.561134  1.978444
O    1.801274  -0.218463  3.132813
H    0.298606  -1.749799  -0.296106
H    0.908638  -0.259760  -0.846833
H    0.329603  0.849875  1.147384
C    -0.851953  -0.789741  2.005170
C    -2.217585  -0.214425  1.586850
C    -2.519542  1.207664  2.069322
N    -2.709971  1.251041  3.537904
C    -3.123081  2.320399  4.219319
N    -3.401528  3.511894  3.744435
N    -3.319703  2.220951  5.650892
H    -0.628301  -0.599384  3.065729
H    -0.883279  -1.885489  1.900690
H    -3.018748  -0.884923  1.934595
H    -2.297247  -0.209585  0.489942
H    -3.448294  1.561582  1.595594
H    -1.710730  1.908258  1.803154
H    -2.513313  0.400874  4.064232
H    -3.280068  3.695884  2.745885
H    -2.434238  2.093243  6.157245
H    -3.946264  1.450785  5.915318
O    2.572342  -1.200114  1.232844
H    3.383782  -1.351814  1.770008
Cd    -4.170498  4.596987  5.505468
