27
Energy: -170626.84292 eV PBE+vdW (tier 2 basis)
N    0.141173  -0.242258  0.307667
C    0.306937  0.022466  1.743282
C    1.662804  -0.444690  2.355527
O    2.303848  -1.410671  1.913328
H    -2.338645  1.618018  -1.912146
H    0.667372  0.479513  -0.210152
H    0.269760  1.120006  1.884020
C    -0.809695  -0.654438  2.585839
C    -2.204597  0.007222  2.528672
C    -3.171384  -0.431613  1.421679
N    -2.776986  0.049065  0.090467
C    -3.627003  0.381602  -0.890530
N    -3.156691  1.021777  -1.981995
N    -4.933080  0.086135  -0.813230
H    -0.493394  -0.665055  3.639479
H    -0.873003  -1.718040  2.293732
H    -2.110337  1.104534  2.521335
H    -2.710085  -0.241175  3.472937
H    -4.157581  -0.009183  1.658782
H    -3.269650  -1.530928  1.416606
H    -1.764124  -0.003468  -0.118765
H    -3.749279  1.157455  -2.795989
H    -5.606822  0.517358  -1.439702
H    -5.281990  -0.629451  -0.183971
O    2.131687  0.154271  3.428333
H    1.588888  0.923517  3.704303
Cd    1.351978  -2.012627  -0.050763
