34
Energy: -608352.47476 eV PBE+vdW (tier 2 basis)
C    0.415488  0.452267  0.040443
C    0.135396  0.450150  1.502780
O    1.094651  0.639514  2.327974
H    1.187709  -0.296238  -0.183205
H    0.832092  1.430399  -0.239757
H    -0.474069  0.253373  -0.566088
N    -1.114978  0.259586  1.940391
C    -1.461233  0.366254  3.358025
C    -0.816980  -0.770324  4.179329
O    0.037033  -0.415364  5.087193
H    -1.865385  0.162553  1.258695
H    -0.928273  1.260119  3.722885
C    -2.943433  0.689560  3.652848
C    -4.056994  -0.342545  3.451418
C    -4.447936  -0.689350  2.012666
C    -5.538503  -1.776492  1.967812
N    -5.055035  -3.057173  2.511915
H    -3.161786  1.604559  3.077543
H    -2.954265  1.004028  4.707552
H    -4.943324  0.084879  3.944994
H    -3.840888  -1.259470  4.017596
H    -3.589078  -1.061079  1.424539
H    -4.819231  0.209563  1.495904
H    -6.404852  -1.429278  2.548597
H    -5.885605  -1.892877  0.931469
H    -5.683487  -3.430296  3.220869
H    -4.978751  -3.767186  1.785424
N    -1.046403  -2.057372  4.017008
C    -1.810201  -2.783851  2.999414
H    -0.544679  -2.638526  4.692137
H    -1.342569  -3.766928  2.884528
H    -1.758628  -2.259072  2.042410
H    -2.874532  -2.920884  3.262631
Pb    1.801449  0.824167  4.479541
