34
Energy: -608351.957292 eV PBE+vdW (tier 2 basis)
C    -0.254139  0.235201  1.840903
C    -1.368254  0.391597  2.815185
O    -1.107923  0.640220  4.042340
H    -0.438988  0.808545  0.925908
H    -0.142402  -0.823536  1.554339
H    0.680411  0.556806  2.309716
N    -2.663691  0.269967  2.449357
C    -3.203683  -0.800660  1.589717
C    -2.770979  -2.145713  2.237221
O    -2.417836  -2.200291  3.466101
H    -3.309708  0.589230  3.170848
H    -4.293166  -0.749363  1.753002
C    -2.989502  -0.667657  0.070252
C    -3.591721  0.602754  -0.563433
C    -2.727386  1.866438  -0.501027
C    -3.375105  3.044744  -1.250814
N    -2.544337  4.226547  -1.195574
H    -3.506485  -1.523427  -0.391858
H    -1.928033  -0.774563  -0.193148
H    -4.581820  0.797771  -0.119284
H    -3.787956  0.367475  -1.619659
H    -1.742729  1.660368  -0.954064
H    -2.548351  2.189098  0.534803
H    -4.344937  3.287552  -0.794410
H    -3.588788  2.730472  -2.292702
H    -1.702195  4.202734  -1.766225
H    -3.033474  5.110715  -1.304904
N    -2.817545  -3.252153  1.521514
C    -2.523017  -4.592483  2.041904
H    -3.092337  -3.172855  0.545961
H    -2.687478  -5.315161  1.238975
H    -3.185989  -4.825721  2.883044
H    -1.479985  -4.651704  2.374450
Pb    -1.806857  -1.081583  5.390308
