34
Energy: -608351.415827 eV PBE+vdW (tier 2 basis)
C    0.237273  -0.260144  0.246724
C    0.408032  0.562500  1.476233
O    1.266777  1.552537  1.443192
H    -0.035153  0.392630  -0.593777
H    -0.524328  -1.036402  0.356546
H    1.194784  -0.736856  -0.006064
N    -0.242215  0.357917  2.589175
C    -1.271023  -0.630358  2.940113
C    -1.977548  0.084615  4.130722
O    -1.313511  0.900706  4.783938
H    -0.112346  0.976837  3.424478
H    -1.960944  -0.770546  2.096090
C    -0.616194  -1.977656  3.338774
C    -1.602338  -3.090622  3.745331
C    -1.873258  -3.224893  5.255357
C    -0.760014  -3.952494  6.023335
N    -0.632340  -5.330772  5.622568
H    0.105800  -1.779452  4.145648
H    -0.024748  -2.311018  2.473766
H    -1.202220  -4.050122  3.387303
H    -2.553878  -2.963236  3.205477
H    -2.815521  -3.774609  5.403856
H    -2.022540  -2.243419  5.726746
H    -0.979652  -3.867637  7.108692
H    0.215720  -3.464091  5.879333
H    -1.458110  -5.918063  5.717656
H    0.223377  -5.814355  5.880326
N    -3.255748  -0.237915  4.362891
C    -4.032677  0.296760  5.479423
H    -3.704050  -0.912162  3.751287
H    -3.464200  1.108543  5.940664
H    -4.220328  -0.483988  6.228106
H    -4.991392  0.681452  5.114242
Pb    2.534583  3.241933  1.155147
