34
Energy: -608352.241645 eV PBE+vdW (tier 2 basis)
C    0.163416  2.586521  0.551327
C    0.299110  1.429436  1.475596
O    1.327384  1.334025  2.231138
H    -0.074912  3.499878  1.117889
H    -0.584743  2.430486  -0.230974
H    1.145442  2.763271  0.090520
N    -0.639890  0.463376  1.535924
C    -2.076459  0.726192  1.605096
C    -2.357362  1.286845  3.025141
O    -1.442768  1.347908  3.917334
H    -0.346113  -0.372814  2.044747
H    -2.321866  1.512194  0.874610
C    -2.887221  -0.543113  1.279528
C    -2.675735  -1.040143  -0.153860
C    -3.533352  -2.270002  -0.478239
C    -3.296332  -2.805340  -1.898222
N    -1.948274  -3.314661  -2.070478
H    -3.953753  -0.324738  1.442023
H    -2.632012  -1.329953  2.009874
H    -1.617005  -1.289689  -0.323971
H    -2.920076  -0.227735  -0.858738
H    -4.601783  -2.026814  -0.376373
H    -3.329701  -3.073641  0.248582
H    -3.457055  -2.005911  -2.635307
H    -4.060646  -3.578903  -2.106004
H    -1.762246  -4.195775  -1.594621
H    -1.629629  -3.361177  -3.035250
N    -3.578207  1.703385  3.304347
C    -3.997337  2.250629  4.600275
H    -4.282868  1.634755  2.574137
H    -5.059532  2.499815  4.539563
H    -3.426326  3.157014  4.833258
H    -3.842923  1.509283  5.392766
Pb    0.797871  1.220330  4.459102
