34
Energy: -608352.721229 eV PBE+vdW (tier 2 basis)
C    -0.693382  -2.164753  1.971137
C    -0.531844  -0.888108  2.713921
O    0.557018  -0.652863  3.351789
H    -0.044026  -2.173405  1.082235
H    -1.727932  -2.364367  1.679117
H    -0.331556  -2.976813  2.618453
N    -1.501844  0.044662  2.727538
C    -2.204987  0.502988  1.521747
C    -1.138146  1.070806  0.562077
O    0.007829  1.489191  1.032330
H    -1.377143  0.773070  3.433546
H    -2.697782  -0.350900  1.037136
C    -3.264253  1.548335  1.938514
C    -4.171963  2.071626  0.821555
C    -5.124425  1.029467  0.186082
C    -5.012918  0.916119  -1.331983
N    -3.738570  0.254722  -1.749907
H    -2.745155  2.398737  2.411561
H    -3.874727  1.072776  2.721833
H    -3.565794  2.560326  0.044194
H    -4.765153  2.884250  1.260484
H    -6.162932  1.293432  0.423736
H    -4.983033  0.031021  0.635187
H    -5.029073  1.916111  -1.786311
H    -5.876158  0.366932  -1.733912
H    -3.819066  -0.752895  -1.582675
H    -3.638013  0.339246  -2.765689
N    -1.420435  1.150859  -0.704173
C    -0.509723  1.727515  -1.692577
H    -2.415533  0.773775  -1.093020
H    -0.199086  2.736661  -1.396988
H    0.384980  1.102917  -1.814293
H    -1.034347  1.779489  -2.651081
Pb    1.577246  1.240880  2.590725
