34
Energy: -608353.175777 eV PBE+vdW (tier 2 basis)
C    0.234623  -0.426388  1.135589
C    -0.162500  -0.025319  2.510133
O    0.683334  -0.032812  3.462658
H    0.922961  0.319541  0.710784
H    -0.616671  -0.575710  0.465356
H    0.809330  -1.361036  1.207904
N    -1.427656  0.350986  2.802032
C    -2.257839  1.279108  2.041653
C    -1.492516  2.615212  1.935210
O    -0.566307  2.905692  2.769800
H    -1.600007  0.394168  3.805675
H    -2.440237  0.875154  1.036484
C    -3.616153  1.476495  2.763854
C    -3.553679  2.167569  4.142645
C    -3.172631  1.281426  5.354734
C    -2.452761  1.999994  6.490157
N    -1.184100  2.704483  6.073004
H    -4.096234  0.489614  2.837518
H    -4.256472  2.071516  2.100157
H    -4.542847  2.600274  4.340197
H    -2.880689  3.036564  4.067812
H    -2.583838  0.389422  5.084879
H    -4.087020  0.844635  5.781362
H    -2.180570  1.278086  7.269062
H    -3.115748  2.745461  6.954835
H    -1.444436  3.597346  5.638391
H    -0.698015  2.975054  6.936145
N    -1.805148  3.492184  0.995860
C    -2.827206  3.406942  -0.051498
H    -1.266643  4.359131  1.031854
H    -3.733723  3.946466  0.251162
H    -3.080977  2.366688  -0.273023
H    -2.429556  3.867235  -0.961914
Pb    0.762661  2.069922  4.497899
