34
Energy: -608353.17578 eV PBE+vdW (tier 2 basis)
C    -2.080561  -0.400672  0.292050
C    -1.419332  -0.243683  1.621943
O    -0.132741  -0.101832  1.620838
H    -1.896674  0.500157  -0.310015
H    -3.159574  -0.558848  0.375156
H    -1.619754  -1.239829  -0.245862
N    -2.170006  -0.253648  2.707539
C    -1.722687  -0.265060  4.108314
C    -0.984618  1.021100  4.491471
O    0.290830  1.126580  4.390056
H    -3.206485  -0.665741  2.658317
H    -2.662999  -0.252896  4.676742
C    -0.995658  -1.556309  4.520531
C    -1.709176  -2.844083  4.074020
C    -3.183535  -3.025329  4.520001
C    -4.243811  -2.908854  3.419124
N    -4.521507  -1.506113  2.978879
H    -0.878493  -1.536827  5.614758
H    0.035416  -1.593038  4.119089
H    -1.112979  -3.675776  4.470719
H    -1.643055  -2.940663  2.979615
H    -3.435532  -2.356825  5.360729
H    -3.288899  -4.035621  4.936632
H    -5.173380  -3.382284  3.766432
H    -3.916290  -3.468917  2.532384
H    -5.123842  -1.532970  2.151395
H    -5.088486  -1.039228  3.692868
N    -1.659203  2.049180  4.972107
C    -3.103579  2.165898  5.203179
H    -1.084482  2.855434  5.223071
H    -3.666459  1.850284  4.317905
H    -3.327986  3.219295  5.392792
H    -3.409852  1.584350  6.082243
Pb    1.653928  0.251236  2.850798
