34
Energy: -608353.095784 eV PBE+vdW (tier 2 basis)
C    -1.364810  0.354914  0.308151
C    -0.913217  0.087126  1.706169
O    0.349655  0.243966  1.951341
H    -0.797941  -0.281574  -0.384773
H    -1.129594  1.395639  0.045477
H    -2.437152  0.187156  0.174070
N    -1.808714  -0.289104  2.598837
C    -1.550267  -0.723134  3.979965
C    -0.835053  0.353850  4.802888
O    0.439307  0.338279  4.972713
H    -2.796257  -0.704703  2.240790
H    -2.552290  -0.819622  4.424794
C    -0.902872  -2.117158  4.078529
C    -1.828043  -3.271909  3.643357
C    -2.159365  -3.393000  2.134747
C    -3.589690  -3.048552  1.702952
N    -4.013600  -1.637782  1.992724
H    -0.602453  -2.279620  5.124032
H    0.022660  -2.166803  3.474564
H    -2.753985  -3.222253  4.239989
H    -1.334724  -4.196226  3.969864
H    -2.008703  -4.437929  1.831199
H    -1.436705  -2.820224  1.532865
H    -4.296137  -3.746297  2.173793
H    -3.671864  -3.205997  0.620609
H    -4.605286  -1.296834  1.232262
H    -4.618488  -1.622474  2.816551
N    -1.535632  1.299272  5.400089
C    -2.989312  1.499187  5.390432
H    -0.982845  1.952504  5.957920
H    -3.386379  1.420329  4.372943
H    -3.191619  2.508354  5.760260
H    -3.487706  0.780913  6.054486
Pb    1.984086  0.005325  3.399095
