34
Energy: -608353.13208 eV PBE+vdW (tier 2 basis)
C    -1.082514  -0.027921  0.129230
C    -0.920273  0.155624  1.609064
O    0.199552  0.754547  1.958662
H    -1.973321  -0.610630  -0.124696
H    -0.204749  -0.549306  -0.274181
H    -1.120126  0.951012  -0.368376
N    -1.859598  -0.246125  2.430308
C    -1.657688  -0.023429  3.860728
C    -0.482208  -0.859448  4.413807
O    0.566978  -0.233628  4.826451
H    -3.393247  -0.330386  1.755616
H    -1.293627  1.009358  4.016308
C    -2.953864  -0.127445  4.719860
C    -4.086668  -1.070877  4.254704
C    -5.352328  -0.367191  3.736061
C    -5.158834  0.551818  2.535853
N    -4.425441  -0.160634  1.424254
H    -3.348806  0.894918  4.802713
H    -2.652221  -0.384962  5.744277
H    -4.394340  -1.704660  5.095824
H    -3.720359  -1.769797  3.491509
H    -5.802088  0.240992  4.534599
H    -6.106174  -1.131071  3.489359
H    -4.548322  1.432433  2.775403
H    -6.120424  0.904734  2.146178
H    -4.876787  -1.053686  1.192552
H    -4.409681  0.405169  0.568411
N    -0.468631  -2.177269  4.502141
C    -1.482027  -3.159580  4.122364
H    0.388338  -2.547576  4.915380
H    -0.977045  -4.116323  3.959322
H    -1.968764  -2.857773  3.191024
H    -2.225723  -3.287958  4.918154
Pb    1.574172  1.315586  3.548863
