34
Energy: -608351.318341 eV PBE+vdW (tier 2 basis)
C    -2.433395  0.899515  0.583579
C    -1.613201  0.747481  1.817252
O    -0.923870  1.785633  2.222294
H    -1.780105  1.185633  -0.252189
H    -3.154984  1.715881  0.725073
H    -2.973445  -0.012943  0.318046
N    -1.535866  -0.352136  2.514665
C    -2.190227  -1.659200  2.352957
C    -2.126122  -2.193280  3.819268
O    -1.196238  -1.766156  4.522233
H    -0.965517  -0.415057  3.393851
H    -3.220923  -1.521925  2.003399
C    -1.369431  -2.539706  1.375083
C    -1.889330  -3.971341  1.189361
C    -1.013800  -4.834870  0.267301
C    -1.102130  -4.483704  -1.224244
N    -0.317645  -5.384178  -2.021694
H    -0.333801  -2.571331  1.747606
H    -1.341142  -2.011254  0.409556
H    -2.923716  -3.956157  0.809784
H    -1.922185  -4.471056  2.167029
H    -1.322877  -5.883534  0.394966
H    0.038663  -4.785448  0.584861
H    -0.745377  -3.462142  -1.426280
H    -2.172492  -4.501105  -1.531118
H    -0.454169  -6.383129  -1.891310
H    -0.098904  -5.120633  -2.977317
N    -3.033715  -3.070957  4.267395
C    -4.240304  -3.593763  3.635000
H    -2.857488  -3.365662  5.227419
H    -4.458890  -3.061239  2.705662
H    -4.135561  -4.662425  3.408221
H    -5.092057  -3.460255  4.312396
Pb    0.054485  3.452030  3.129981
