34
Energy: -608351.448844 eV PBE+vdW (tier 2 basis)
C    -0.157005  -0.710626  0.154646
C    -0.130767  0.148556  1.380684
O    0.906112  0.790729  1.678454
H    0.130430  -0.104764  -0.713677
H    -1.125475  -1.185587  -0.033316
H    0.608295  -1.491340  0.264069
N    -1.266204  0.206480  2.122701
C    -1.497624  0.739664  3.478036
C    -1.002308  2.161004  3.725005
O    -1.744128  2.884706  4.520270
H    -2.047292  -0.332118  1.760763
H    -2.589319  0.826563  3.560715
C    -1.051796  -0.228308  4.613951
C    0.423156  -0.633295  4.659216
C    0.703625  -1.593329  5.825692
C    2.142680  -2.130762  5.839774
N    2.415644  -3.013254  4.730998
H    -1.677648  -1.127291  4.505341
H    -1.357225  0.230682  5.568142
H    1.071230  0.252661  4.756570
H    0.714549  -1.127320  3.721330
H    0.003964  -2.444318  5.787921
H    0.518037  -1.091747  6.787115
H    2.303444  -2.647155  6.809039
H    2.868324  -1.305538  5.808151
H    1.891565  -3.885493  4.705575
H    3.391817  -3.144368  4.480020
N    0.111764  2.592411  3.207236
C    0.631563  3.925862  3.414780
H    0.615657  1.819090  2.528778
H    1.570836  4.042765  2.863118
H    0.861229  4.109960  4.481330
H    -0.061627  4.694888  3.021725
Pb    -1.930993  4.888565  5.338030
