34
Energy: -608353.35999 eV PBE+vdW (tier 2 basis)
C    0.818631  -3.493599  2.483273
C    0.722630  -2.134563  3.088570
O    1.557808  -1.807606  4.005877
H    1.812041  -3.598081  2.022620
H    0.051463  -3.684407  1.725817
H    0.754952  -4.254450  3.272285
N    -0.205498  -1.290085  2.642965
C    -0.344297  0.149040  2.939033
C    -1.138918  0.347020  4.244532
O    -0.558404  -0.000459  5.358474
H    -0.824389  -1.641785  1.914034
H    0.667330  0.526321  3.162845
C    -0.866341  0.882685  1.697253
C    -2.098795  0.250287  1.020427
C    -2.972350  1.262151  0.261182
C    -3.478280  2.425157  1.115978
N    -4.006525  1.952992  2.426386
H    -0.040899  0.952875  0.975625
H    -1.071188  1.917018  2.004404
H    -2.728103  -0.267507  1.762715
H    -1.780373  -0.520541  0.301498
H    -3.826785  0.719847  -0.169857
H    -2.420269  1.678995  -0.593361
H    -4.240759  2.981921  0.552574
H    -2.672573  3.140923  1.332180
H    -4.801500  1.326055  2.266036
H    -4.399457  2.754271  2.928131
N    -2.336124  0.859728  4.274369
C    -3.055494  1.036027  5.539389
H    -2.911213  1.247490  3.397819
H    -4.041773  1.450214  5.312861
H    -2.517488  1.726451  6.201238
H    -3.177799  0.077011  6.056574
Pb    1.432002  -0.744544  5.959607
