34
Energy: -608352.939555 eV PBE+vdW (tier 2 basis)
C    -1.023865  0.593656  0.487820
C    -1.492353  -0.123166  1.715497
O    -0.861843  0.061139  2.802764
H    -1.055278  1.676259  0.670343
H    -1.607630  0.362451  -0.409048
H    0.028092  0.332582  0.307504
N    -2.543965  -0.942178  1.587988
C    -3.237752  -1.881604  2.503797
C    -3.892890  -1.202030  3.713544
O    -3.262660  -0.508793  4.572533
H    -2.917383  -0.970324  0.642880
H    -4.068406  -2.226828  1.874266
C    -2.485240  -3.192480  2.879187
C    -1.449427  -3.213345  4.013144
C    0.005754  -2.924106  3.621812
C    0.809662  -2.410422  4.813591
N    2.161097  -2.216690  4.595805
H    -2.045770  -3.584352  1.949633
H    -3.287505  -3.898263  3.139585
H    -1.485996  -4.214334  4.464708
H    -1.776756  -2.545440  4.828652
H    0.073866  -2.194111  2.803465
H    0.485160  -3.844160  3.259117
H    0.645568  -3.008417  5.722151
H    0.217892  -1.395681  5.127507
H    2.806540  -2.165075  5.374778
H    2.498601  -1.838189  3.718439
N    -5.189361  -1.418643  3.881545
C    -5.963565  -0.924865  5.024645
H    -5.687054  -1.950346  3.172858
H    -5.472688  -1.207734  5.962313
H    -6.959479  -1.373133  4.984560
H    -6.054896  0.167329  4.980226
Pb    -1.184471  0.337293  5.015393
