34
Energy: -608352.61509 eV PBE+vdW (tier 2 basis)
C    0.394537  -0.648300  0.526607
C    0.212596  -0.238912  1.947393
O    1.221298  -0.200889  2.734754
H    1.444428  -0.511768  0.247560
H    -0.256042  -0.087192  -0.150978
H    0.160854  -1.721227  0.422109
N    -1.005355  0.060646  2.440905
C    -2.206045  -0.788718  2.233997
C    -1.800929  -2.244405  2.553126
O    -0.922800  -2.409925  3.545339
H    -0.967256  0.504343  3.357910
H    -2.878191  -0.473580  3.048080
C    -2.962896  -0.592231  0.914640
C    -4.485339  -0.796310  1.098511
C    -5.224462  -1.337325  -0.137386
C    -5.366630  -2.853452  -0.176150
N    -4.033340  -3.568982  -0.229659
H    -2.549306  -1.266641  0.152638
H    -2.775968  0.427502  0.553770
H    -4.926205  0.166414  1.387755
H    -4.675788  -1.472452  1.947110
H    -4.763128  -0.968317  -1.067572
H    -6.251315  -0.946315  -0.151919
H    -5.944986  -3.177811  -1.049796
H    -5.873276  -3.224611  0.724149
H    -4.177952  -4.585292  -0.249860
H    -3.529398  -3.327136  -1.090990
N    -2.321976  -3.230828  1.910613
C    -1.940468  -4.588446  2.309597
H    -3.382155  -3.335651  0.627718
H    -2.127619  -4.764419  3.377462
H    -0.874911  -4.782472  2.117213
H    -2.522898  -5.316805  1.734095
Pb    0.945836  -1.728035  4.439692
