34
Energy: -608351.41809 eV PBE+vdW (tier 2 basis)
C    -0.169464  -0.859012  -1.007500
C    -0.038658  -0.250192  0.345442
O    1.165685  -0.105530  0.838256
H    0.412483  -0.269826  -1.729286
H    -1.206261  -0.919152  -1.348287
H    0.259401  -1.870668  -0.991994
N    -1.049084  0.145542  1.071152
C    -2.495133  0.132615  0.810997
C    -2.979549  1.239198  1.798641
O    -2.281343  1.425808  2.807048
H    -0.916500  0.584631  2.014064
H    -2.689505  0.391125  -0.237310
C    -3.077108  -1.259726  1.169340
C    -4.589102  -1.420206  0.977739
C    -5.043008  -2.850763  1.293298
C    -6.561548  -3.036607  1.110108
N    -6.978070  -4.375785  1.410306
H    -2.808277  -1.472906  2.215312
H    -2.550840  -2.004620  0.551788
H    -4.866582  -1.168613  -0.058441
H    -5.127284  -0.717641  1.631505
H    -4.770392  -3.106193  2.329793
H    -4.526066  -3.572080  0.643043
H    -6.856092  -2.810416  0.075963
H    -7.087137  -2.299723  1.755582
H    -6.847524  -4.727622  2.354327
H    -7.789637  -4.753883  0.932982
N    -4.103592  1.927302  1.553252
C    -4.976504  1.929451  0.384527
H    -4.327662  2.592995  2.292095
H    -5.129575  2.961474  0.047382
H    -5.953669  1.488325  0.619477
H    -4.530419  1.366948  -0.439949
Pb    3.122392  0.313354  1.581222
