34
Energy: -608352.628938 eV PBE+vdW (tier 2 basis)
C    2.175212  1.378087  0.857876
C    1.302646  0.956841  2.000566
O    1.763968  0.428560  3.027665
H    3.014323  1.967173  1.246674
H    1.650626  1.948048  0.083568
H    2.604708  0.474816  0.401498
N    -0.043819  1.186069  1.872655
C    -1.101162  0.629672  2.713621
C    -1.094066  1.066376  4.192250
O    -2.243879  1.278005  4.772929
H    -0.353716  1.668300  1.035376
H    -2.035326  1.051872  2.317696
C    -1.195986  -0.922303  2.612803
C    -2.274728  -1.465167  3.545259
C    -2.614375  -2.950787  3.568706
C    -3.302350  -3.308679  4.888825
N    -4.432208  -2.371005  5.217158
H    -0.226379  -1.369933  2.872350
H    -1.410908  -1.178928  1.566544
H    -3.215118  -0.912742  3.282651
H    -1.978258  -1.195000  4.579028
H    -1.697989  -3.553922  3.495819
H    -3.235154  -3.226780  2.704268
H    -2.583699  -3.238299  5.716933
H    -3.677959  -4.340835  4.866173
H    -5.204373  -2.539146  4.559505
H    -4.812133  -2.634325  6.133471
N    0.037708  1.173202  4.827456
C    0.212429  1.584836  6.214801
H    0.882842  0.880005  4.231349
H    1.037659  2.304524  6.261544
H    0.483520  0.716693  6.830762
H    -0.700401  2.047471  6.598812
Pb    -4.139535  0.219950  5.244242
