34
Energy: -608351.276945 eV PBE+vdW (tier 2 basis)
C    0.714133  -0.655151  0.751579
C    -0.219337  -1.027020  1.850268
O    -0.106481  -2.230054  2.363113
H    1.749797  -0.757094  1.103765
H    0.556535  0.365168  0.392442
H    0.585715  -1.354557  -0.086089
N    -1.136646  -0.237447  2.332599
C    -1.517855  1.142431  1.997402
C    -2.239918  1.562596  3.317283
O    -2.743819  0.645422  3.986336
H    -1.767688  -0.525533  3.124217
H    -0.621100  1.742053  1.799620
C    -2.494896  1.127998  0.788800
C    -3.040855  2.487090  0.331168
C    -2.058082  3.381245  -0.445754
C    -1.945440  3.033451  -1.938264
N    -3.183911  3.265003  -2.638721
H    -3.335903  0.476657  1.068203
H    -1.979878  0.625956  -0.045936
H    -3.452131  3.029788  1.192269
H    -3.906483  2.288951  -0.318256
H    -1.045335  3.349975  -0.013777
H    -2.376702  4.431101  -0.357757
H    -1.667099  1.978404  -2.085219
H    -1.115688  3.629287  -2.373211
H    -3.559229  4.210549  -2.609029
H    -3.289699  2.833124  -3.552323
N    -2.311907  2.849583  3.680391
C    -1.685011  4.031671  3.100096
H    -2.848686  2.989822  4.535777
H    -1.181104  4.598720  3.891594
H    -2.428946  4.682354  2.622391
H    -0.935289  3.751724  2.355634
Pb    0.013644  -4.075334  3.418747
