34
Energy: -608351.962048 eV PBE+vdW (tier 2 basis)
C    -0.194223  1.162592  0.493917
C    -0.797103  0.659681  1.757868
O    -0.014120  0.353900  2.724417
H    -0.869378  1.788835  -0.091887
H    0.146528  0.315753  -0.122588
H    0.706990  1.728897  0.762678
N    -2.129721  0.548536  1.968823
C    -3.127558  -0.121913  1.114847
C    -2.919996  -1.640987  1.318786
O    -1.830479  -2.092729  1.820870
H    -2.334947  0.427399  2.962227
H    -4.104230  0.145328  1.547745
C    -3.146921  0.290997  -0.369817
C    -3.581074  1.747398  -0.585393
C    -3.496744  2.162119  -2.057923
C    -3.985139  3.600735  -2.296754
N    -3.840322  3.980181  -3.680672
H    -3.854372  -0.371373  -0.886630
H    -2.174234  0.085031  -0.836441
H    -2.966820  2.425928  0.028293
H    -4.613113  1.870327  -0.218334
H    -4.094097  1.470420  -2.674029
H    -2.460364  2.083429  -2.421453
H    -3.397712  4.304520  -1.689537
H    -5.034966  3.686779  -1.945699
H    -4.423058  3.486356  -4.352109
H    -3.801751  4.976921  -3.872728
N    -3.866700  -2.501689  0.981173
C    -5.204326  -2.254562  0.437250
H    -3.612332  -3.480289  1.123595
H    -5.553012  -1.248965  0.689049
H    -5.893676  -2.980312  0.881651
H    -5.210169  -2.385785  -0.652511
Pb    -0.109126  -1.845980  3.336261
