34
Energy: -608352.184753 eV PBE+vdW (tier 2 basis)
C    -0.864936  0.175720  -0.547437
C    -0.540222  -0.176137  0.859831
O    0.597709  -0.696752  1.139862
H    -0.288170  1.058582  -0.863354
H    -1.931462  0.349602  -0.716163
H    -0.523728  -0.652483  -1.184890
N    -1.416684  0.030591  1.860843
C    -2.180224  1.264579  2.036338
C    -1.175736  2.332020  2.552475
O    0.053558  2.053846  2.780870
H    -1.177444  -0.438151  2.736370
H    -2.529589  1.596746  1.047581
C    -3.402112  1.056556  2.952484
C    -3.077563  0.618637  4.386495
C    -4.314211  0.476143  5.294641
C    -5.203245  -0.743642  5.022708
N    -5.903702  -0.666892  3.743819
H    -4.066914  0.323648  2.472894
H    -3.978419  1.994880  2.975932
H    -2.391862  1.346629  4.853030
H    -2.549331  -0.352138  4.385294
H    -4.919000  1.396582  5.242932
H    -3.968835  0.406569  6.335530
H    -5.904154  -0.847560  5.872784
H    -4.591688  -1.658346  5.019258
H    -6.312020  -1.556349  3.460241
H    -6.636209  0.043137  3.733360
N    -1.617486  3.558837  2.748809
C    -0.794806  4.680416  3.216860
H    -2.602716  3.739995  2.571358
H    -0.419036  4.480636  4.227433
H    -1.417064  5.578538  3.233160
H    0.051581  4.839139  2.538910
Pb    1.777050  0.535475  2.656823
