34
Energy: -608353.354679 eV PBE+vdW (tier 2 basis)
C    0.924289  0.524956  0.498652
C    -0.060320  1.205682  1.391152
O    0.399901  1.669131  2.512212
H    0.472533  0.149552  -0.422585
H    1.387163  -0.311026  1.039925
H    1.731843  1.229148  0.254684
N    -1.317202  1.330758  1.007079
C    -2.331675  2.093893  1.753555
C    -2.816762  1.291990  2.978174
O    -2.196556  1.381020  4.099275
H    -1.551803  1.076031  -0.075878
H    -1.849851  2.996007  2.170765
C    -3.458498  2.548332  0.814160
C    -2.943860  3.372609  -0.390313
C    -3.405540  2.850671  -1.762600
C    -3.208756  1.352978  -2.006066
N    -1.845042  0.890659  -1.617039
H    -4.179437  3.128658  1.404304
H    -4.005025  1.667535  0.439354
H    -1.844211  3.413094  -0.368231
H    -3.270758  4.414262  -0.284975
H    -2.877187  3.422008  -2.540208
H    -4.472957  3.069841  -1.911157
H    -3.416768  1.129004  -3.061940
H    -3.925606  0.755263  -1.423666
H    -1.148601  1.404201  -2.166578
H    -1.736545  -0.089805  -1.891345
N    -3.880283  0.524108  2.872980
C    -4.455115  -0.306357  3.933929
H    -4.358006  0.524593  1.973920
H    -5.535565  -0.129671  3.976036
H    -4.000306  -0.042597  4.890776
H    -4.273319  -1.366237  3.715113
Pb    -0.125175  2.071709  4.599537
