34
Energy: -608352.564478 eV PBE+vdW (tier 2 basis)
C    -0.898147  1.604593  -0.137787
C    -0.856611  1.472868  1.346961
O    -0.033498  2.178920  2.013801
H    -1.132219  2.648257  -0.391690
H    -1.633748  0.945919  -0.610836
H    0.098688  1.394547  -0.548366
N    -1.701417  0.622866  1.949120
C    -1.879886  0.498226  3.401855
C    -0.681546  -0.257216  4.021921
O    0.239482  0.435456  4.585035
H    -2.353285  0.117164  1.353223
H    -1.792807  1.511542  3.823910
C    -3.287556  -0.012305  3.746290
C    -3.523263  -0.152771  5.257920
C    -4.894001  -0.743331  5.619506
C    -6.090110  0.173151  5.323714
N    -7.325120  -0.457112  5.728311
H    -3.491791  -0.967590  3.241776
H    -3.989724  0.718132  3.317424
H    -3.402589  0.830882  5.741016
H    -2.747801  -0.800898  5.696717
H    -4.888000  -0.975716  6.694982
H    -5.046238  -1.703337  5.102144
H    -6.168673  0.385604  4.246694
H    -5.924352  1.151590  5.824314
H    -7.414421  -0.659056  6.721663
H    -8.175563  -0.041952  5.358204
N    -0.540050  -1.570686  3.993810
C    -1.410645  -2.611327  3.438771
H    0.311334  -1.896633  4.454592
H    -2.232469  -2.847077  4.126302
H    -0.804122  -3.510925  3.299243
H    -1.807936  -2.315663  2.463349
Pb    1.119360  2.428697  3.950115
