34
Energy: -608353.378067 eV PBE+vdW (tier 2 basis)
C    -0.725228  -0.819292  -0.286222
C    -0.559222  -0.390864  1.131873
O    0.619298  -0.132786  1.565277
H    -0.340107  -0.020471  -0.936929
H    -1.765162  -1.030273  -0.555852
H    -0.107938  -1.707152  -0.476978
N    -1.638667  -0.259256  1.902781
C    -1.716955  0.334022  3.253697
C    -1.352802  -0.734695  4.299405
O    -0.096604  -1.054614  4.437024
H    -2.532130  -0.485989  1.469139
H    -0.933450  1.107838  3.312849
C    -3.085724  0.991876  3.431187
C    -3.214988  1.825493  4.725062
C    -4.634726  1.831427  5.315321
C    -4.961251  0.645545  6.221850
N    -4.833991  -0.675747  5.534139
H    -3.858203  0.211163  3.382339
H    -3.259501  1.641037  2.561089
H    -2.904604  2.855474  4.505532
H    -2.514845  1.462924  5.495333
H    -5.379669  1.912367  4.506744
H    -4.766349  2.737712  5.922001
H    -5.972673  0.770263  6.634910
H    -4.266955  0.629478  7.074884
H    -5.123863  -1.409611  6.187078
H    -5.516303  -0.728818  4.771583
N    -2.262476  -1.320992  5.023343
C    -1.912421  -2.369542  5.984577
H    -3.341553  -0.999412  5.085927
H    -2.836370  -2.739183  6.437717
H    -1.256879  -1.975932  6.772369
H    -1.400364  -3.200755  5.485819
Pb    1.787674  -0.503233  3.430134
