34
Energy: -608353.699947 eV PBE+vdW (tier 2 basis)
C    -0.493896  -0.897339  0.031369
C    -0.867931  -0.222374  1.307862
O    -0.310714  0.874055  1.624827
H    -0.638301  -0.194152  -0.800105
H    -1.069102  -1.808998  -0.160760
H    0.577046  -1.141862  0.056026
N    -1.804172  -0.787685  2.090796
C    -2.316394  -0.155856  3.304530
C    -1.392966  -0.391768  4.511436
O    -0.603081  0.561945  4.832235
H    -2.232017  -1.651820  1.767111
H    -2.181541  0.916890  3.139164
C    -3.827230  -0.342340  3.516993
C    -4.640107  0.745400  2.790660
C    -4.226726  2.187421  3.166261
C    -3.214433  2.862742  2.212562
N    -2.061987  3.507301  2.938580
H    -4.034444  -0.277101  4.595636
H    -4.153871  -1.345073  3.205975
H    -5.695633  0.592364  3.047588
H    -4.582016  0.608401  1.699848
H    -3.831105  2.195478  4.196894
H    -5.126025  2.813475  3.207568
H    -3.718980  3.633643  1.615144
H    -2.790301  2.149670  1.493139
H    -1.724997  4.295564  2.373285
H    -2.412424  3.939522  3.801204
N    -1.383627  -1.504882  5.222062
C    -2.204337  -2.708475  5.070962
H    -0.726218  -1.497367  6.003968
H    -1.618694  -3.566423  5.415735
H    -2.468481  -2.877297  4.023701
H    -3.117610  -2.637701  5.675113
Pb    0.122334  2.255288  3.427349
