34
Energy: -608351.436273 eV PBE+vdW (tier 2 basis)
C    0.031396  0.587584  -0.171316
C    0.005938  0.521080  1.316082
O    1.151610  0.573353  1.951671
H    0.544120  1.506710  -0.486088
H    -0.967717  0.565911  -0.614067
H    0.612029  -0.259758  -0.561970
N    -1.082186  0.412297  2.027207
C    -2.495797  0.335385  1.633959
C    -3.189493  0.787131  2.956634
O    -2.563688  0.580041  4.008382
H    -1.062711  0.383307  3.076584
H    -2.691547  1.022081  0.800983
C    -2.855040  -1.126856  1.259755
C    -4.309598  -1.370529  0.848260
C    -4.539162  -2.830791  0.433367
C    -5.994154  -3.128816  0.040309
N    -6.906968  -3.021577  1.150984
H    -2.597489  -1.762787  2.120770
H    -2.186575  -1.427521  0.437211
H    -4.582119  -0.709132  0.010150
H    -4.989515  -1.130990  1.678410
H    -4.240527  -3.505854  1.251933
H    -3.900868  -3.088655  -0.424799
H    -6.021070  -4.147314  -0.401562
H    -6.332977  -2.444811  -0.750989
H    -7.890630  -2.899068  0.926435
H    -6.764137  -3.667580  1.924399
N    -4.402695  1.355307  2.931092
C    -5.230481  1.770263  1.803875
H    -4.758378  1.568126  3.862389
H    -5.563318  2.802956  1.960870
H    -6.113724  1.126644  1.702841
H    -4.665783  1.735651  0.868342
Pb    2.991650  0.837188  2.991080
