34
Energy: -608351.458222 eV PBE+vdW (tier 2 basis)
C    -0.342119  -1.393627  0.201295
C    -0.161785  -0.603091  1.450180
O    1.010646  -0.647252  2.040433
H    0.487000  -1.187077  -0.487533
H    -1.289599  -1.180406  -0.300786
H    -0.305878  -2.465900  0.443302
N    -1.095029  0.118704  2.003315
C    -2.463272  0.424202  1.569868
C    -2.769850  1.695878  2.425668
O    -1.983260  1.983811  3.340649
H    -0.914911  0.723077  2.850910
H    -2.457570  0.686713  0.501793
C    -3.467240  -0.722057  1.828590
C    -3.659621  -1.085281  3.304646
C    -4.606856  -2.274633  3.535214
C    -6.081162  -2.024482  3.195219
N    -6.661300  -0.969065  3.992662
H    -3.144116  -1.605810  1.255914
H    -4.422311  -0.414432  1.376806
H    -4.035088  -0.210511  3.857008
H    -2.685510  -1.335746  3.752058
H    -4.536751  -2.574865  4.592069
H    -4.270837  -3.148350  2.956355
H    -6.626917  -2.981645  3.335754
H    -6.219947  -1.766799  2.134104
H    -7.589849  -0.657631  3.718227
H    -6.583433  -1.077307  5.002415
N    -3.877442  2.376293  2.117941
C    -4.322066  3.569763  2.836731
H    -4.437315  2.062987  1.331310
H    -3.588760  3.799435  3.613785
H    -5.299838  3.390875  3.300115
H    -4.399600  4.417466  2.145927
Pb    3.001437  -0.477746  2.772417
