34
Energy: -608351.389271 eV PBE+vdW (tier 2 basis)
C    -0.580679  2.351964  0.726179
C    -0.529458  1.903445  2.154301
O    0.437271  2.227800  2.884423
H    -0.506937  3.446328  0.692690
H    -1.479459  2.028898  0.190739
H    0.305351  1.959885  0.208469
N    -1.571942  1.159504  2.608566
C    -1.724058  0.381345  3.852421
C    -1.413495  1.130305  5.146423
O    -2.151941  0.810865  6.173337
H    -2.312737  0.994819  1.933986
H    -2.800944  0.177452  3.922112
C    -1.021102  -1.007539  3.810672
C    0.506386  -1.014612  3.684637
C    1.119570  -2.424505  3.722724
C    0.840199  -3.277781  2.474261
N    1.524360  -4.538563  2.535796
H    -1.483048  -1.543280  2.968345
H    -1.328913  -1.553478  4.716991
H    0.953994  -0.434566  4.505764
H    0.816002  -0.509776  2.757697
H    0.771819  -2.974038  4.610743
H    2.209243  -2.317505  3.833494
H    1.144506  -2.697029  1.574633
H    -0.232678  -3.487103  2.355277
H    2.532887  -4.533260  2.662752
H    1.186767  -5.301067  1.956858
N    -0.439961  1.993516  5.212556
C    -0.091059  2.726544  6.409775
H    0.091770  2.141556  4.218343
H    0.754026  3.390735  6.197937
H    0.231872  2.046933  7.221018
H    -0.924927  3.373305  6.744019
Pb    -2.509356  1.338724  8.256619
