34
Energy: -608351.212216 eV PBE+vdW (tier 2 basis)
C    -0.070090  -0.460206  2.208602
C    -1.195530  -0.376907  3.177146
O    -0.948115  -0.477736  4.456762
H    -0.408980  -0.572971  1.177687
H    0.543481  -1.336690  2.458451
H    0.557169  0.438351  2.313743
N    -2.464168  -0.185820  2.859716
C    -3.155709  -0.007718  1.553963
C    -3.173983  -1.365679  0.797289
O    -2.122191  -1.842240  0.362769
H    -3.081164  -0.161245  3.672344
H    -4.179494  0.260291  1.850800
C    -2.589953  1.151861  0.714425
C    -3.500610  1.586170  -0.448074
C    -3.511613  0.722522  -1.723707
C    -2.215784  0.721329  -2.539225
N    -1.129554  0.002249  -1.918175
H    -2.460160  2.007029  1.394280
H    -1.597584  0.893067  0.320958
H    -3.199112  2.606686  -0.726832
H    -4.536889  1.683661  -0.085153
H    -4.298735  1.118777  -2.380154
H    -3.810175  -0.315511  -1.511770
H    -1.879537  1.750180  -2.746890
H    -2.445699  0.285974  -3.536994
H    -0.234235  0.037480  -2.399567
H    -1.346765  -0.916043  -1.529679
N    -4.387121  -1.932180  0.663601
C    -4.614113  -3.173450  -0.072736
H    -5.198406  -1.443667  1.027846
H    -3.656474  -3.686774  -0.195116
H    -5.042413  -2.967196  -1.062769
H    -5.304988  -3.812421  0.487806
Pb    0.536059  -0.792891  6.014630
