34
Energy: -608353.103812 eV PBE+vdW (tier 2 basis)
C    -0.294828  0.084822  0.761745
C    -0.940486  0.286267  2.097110
O    -0.292630  0.937622  2.984369
H    -0.969819  0.302640  -0.073118
H    0.022689  -0.965112  0.658315
H    0.599996  0.711064  0.695214
N    -2.164415  -0.183266  2.485229
C    -2.663898  -1.490564  2.002754
C    -1.642958  -2.550865  2.490838
O    -0.998219  -2.331699  3.570159
H    -3.307936  1.228866  2.204705
H    -3.554068  -1.690637  2.627198
C    -3.156479  -1.609399  0.549122
C    -4.377197  -0.735188  0.197825
C    -4.137635  0.731851  -0.247210
C    -4.709256  1.808646  0.668694
N    -3.798123  2.106829  1.852211
H    -3.493230  -2.649346  0.414398
H    -2.346660  -1.456352  -0.176164
H    -5.091962  -0.763277  1.036674
H    -4.896756  -1.242290  -0.624202
H    -4.628221  0.886192  -1.217365
H    -3.073361  0.933150  -0.445967
H    -5.677676  1.507314  1.086096
H    -4.850528  2.759935  0.142955
H    -3.054849  2.759643  1.572855
H    -4.314515  2.553980  2.619404
N    -1.468503  -3.675023  1.818886
C    -0.592370  -4.776710  2.229845
H    -2.011653  -3.806737  0.970112
H    -1.194906  -5.608869  2.615196
H    0.086635  -4.426142  3.010019
H    -0.018941  -5.119549  1.362031
Pb    -1.229593  -0.322007  4.729009
