34
Energy: -608352.179485 eV PBE+vdW (tier 2 basis)
C    0.093099  0.893625  -0.014723
C    -0.043485  0.137376  1.258696
O    0.969279  -0.009775  2.024893
H    0.201325  1.969345  0.192206
H    -0.738147  0.731320  -0.706854
H    1.033325  0.580606  -0.490263
N    -1.220688  -0.409339  1.627588
C    -2.499133  0.296578  1.564695
C    -2.470119  1.374748  2.679689
O    -1.508706  1.446481  3.519607
H    -1.148317  -1.068771  2.405217
H    -2.565899  0.811621  0.594868
C    -3.676750  -0.687812  1.715327
C    -3.758448  -1.746282  0.606598
C    -4.038485  -1.189142  -0.792324
C    -4.248581  -2.301580  -1.832784
N    -4.462985  -1.755432  -3.153774
H    -4.612184  -0.108901  1.739048
H    -3.603252  -1.175666  2.701238
H    -4.559658  -2.443888  0.892494
H    -2.835079  -2.347440  0.593787
H    -3.210067  -0.555309  -1.149768
H    -4.935474  -0.547714  -0.765064
H    -5.089454  -2.944864  -1.501350
H    -3.361100  -2.949225  -1.872533
H    -4.281335  -2.392448  -3.924862
H    -5.339841  -1.257236  -3.290421
N    -3.473217  2.229485  2.751748
C    -3.590935  3.294591  3.754997
H    -4.223906  2.140703  2.071343
H    -4.533515  3.821141  3.586759
H    -2.759315  4.002458  3.658467
H    -3.589334  2.866303  4.763899
Pb    0.619036  0.797929  4.146259
