34
Energy: -608351.392662 eV PBE+vdW (tier 2 basis)
C    -0.756985  -1.617399  2.746587
C    -0.858712  -0.923898  4.060745
O    -0.383145  -1.531325  5.119381
H    0.295910  -1.854009  2.540592
H    -1.156837  -1.025083  1.919627
H    -1.302786  -2.569959  2.796485
N    -1.396790  0.254381  4.225222
C    -1.982008  1.191987  3.257290
C    -1.834475  2.542411  4.020634
O    -1.799024  2.499813  5.257373
H    -1.422584  0.719936  5.162705
H    -1.390619  1.192709  2.330838
C    -3.457184  0.819384  2.963559
C    -4.167695  1.723161  1.933391
C    -5.010490  2.872328  2.511134
C    -6.367133  2.407423  3.064705
N    -7.141281  3.506554  3.571180
H    -4.001243  0.807363  3.919914
H    -3.456573  -0.217800  2.598636
H    -4.817566  1.087317  1.314499
H    -3.429898  2.130640  1.224561
H    -5.193709  3.607389  1.712531
H    -4.473576  3.406619  3.307855
H    -6.241868  1.679104  3.879823
H    -6.910456  1.870758  2.255621
H    -7.340864  4.277801  2.939231
H    -7.902677  3.300324  4.210685
N    -1.760496  3.655302  3.280084
C    -1.684140  4.999222  3.849357
H    -1.780288  3.567407  2.269409
H    -0.839495  5.542254  3.410687
H    -1.540842  4.910437  4.929355
H    -2.610371  5.554282  3.651878
Pb    0.638559  -2.583325  6.670724
