34
Energy: -608352.969127 eV PBE+vdW (tier 2 basis)
C    0.020763  -0.929096  -0.270493
C    -0.593497  -0.944699  1.091659
O    -0.334146  -1.915907  1.868982
H    -0.266181  -0.059985  -0.871433
H    -0.275713  -1.845629  -0.799446
H    1.114239  -0.958924  -0.172049
N    -1.410617  0.070417  1.422365
C    -2.251556  0.231823  2.627720
C    -1.379536  0.621761  3.829976
O    -0.577286  -0.203953  4.379988
H    -1.528097  0.780199  0.704573
H    -2.894458  1.089639  2.403342
C    -3.160138  -0.997516  2.873227
C    -3.700444  -1.152700  4.301700
C    -4.273394  -2.546738  4.574247
C    -3.308420  -3.710182  4.295011
N    -3.579223  -4.855233  5.025111
H    -2.609377  -1.898337  2.578016
H    -3.992707  -0.930110  2.159138
H    -2.904882  -0.962719  5.040251
H    -4.477840  -0.402231  4.502095
H    -5.178221  -2.726351  3.974276
H    -4.591128  -2.593839  5.625647
H    -2.199399  -3.254412  4.503864
H    -3.238856  -3.956780  3.226504
H    -3.258297  -5.762327  4.708854
H    -3.817026  -4.792643  6.008879
N    -1.455061  1.847841  4.323013
C    -2.272323  2.982888  3.872206
H    -0.840014  2.013722  5.121071
H    -2.004441  3.287204  2.853289
H    -2.068605  3.823906  4.540549
H    -3.342398  2.752014  3.933205
Pb    -0.095677  -2.406371  4.085797
