34
Energy: -608352.6566 eV PBE+vdW (tier 2 basis)
C    0.052753  -1.362037  0.273979
C    -0.179026  -0.905095  1.672926
O    0.788775  -0.375862  2.322215
H    -0.833588  -1.813871  -0.183023
H    0.370779  -0.499792  -0.329674
H    0.881613  -2.082557  0.258283
N    -1.392268  -1.039542  2.213944
C    -1.793778  -0.507432  3.518508
C    -1.174707  -1.342966  4.658344
O    -0.135761  -0.860257  5.261041
H    -2.133464  -1.429720  1.632955
H    -1.291551  0.465920  3.624011
C    -3.324059  -0.235210  3.622492
C    -4.244541  -0.920437  2.606125
C    -5.735328  -0.620296  2.863358
C    -6.246651  -0.971211  4.263294
N    -5.875961  -2.339339  4.664547
H    -3.457166  0.851522  3.535456
H    -3.638700  -0.491556  4.642593
H    -4.104601  -2.011309  2.615596
H    -4.016920  -0.567544  1.586234
H    -6.317837  -1.170484  2.109178
H    -5.939366  0.444824  2.679170
H    -7.337324  -0.803655  4.276544
H    -5.830679  -0.281180  5.012714
H    -6.216375  -2.531101  5.608380
H    -6.334804  -3.024733  4.059433
N    -1.635199  -2.507428  5.063336
C    -2.743519  -3.316700  4.551571
H    -1.109933  -2.901153  5.846261
H    -2.701704  -4.283366  5.060637
H    -2.620036  -3.490819  3.476189
H    -3.737149  -2.856411  4.738726
Pb    1.596891  0.199514  4.339299
