34
Energy: -608351.478225 eV PBE+vdW (tier 2 basis)
C    -0.083119  1.702155  0.814631
C    -0.235332  0.678643  1.886108
O    0.732973  0.546625  2.760593
H    0.715132  1.388568  0.125987
H    0.223523  2.657621  1.259105
H    -0.999469  1.852840  0.237697
N    -1.268498  -0.109436  2.002342
C    -2.520220  -0.168860  1.238641
C    -3.453805  -0.917417  2.237040
O    -2.931935  -1.496636  3.201803
H    -1.372130  -0.776265  2.809473
H    -2.896634  0.852307  1.079364
C    -2.369663  -0.875080  -0.131064
C    -1.908347  -2.341042  -0.133316
C    -2.988650  -3.386462  0.186840
C    -2.531401  -4.822289  -0.114753
N    -2.310608  -5.051906  -1.520169
H    -1.666018  -0.275801  -0.728105
H    -3.335561  -0.784119  -0.651659
H    -1.051592  -2.473599  0.547785
H    -1.520087  -2.554390  -1.140073
H    -3.898801  -3.171469  -0.397569
H    -3.281973  -3.353153  1.244530
H    -3.297611  -5.517904  0.287882
H    -1.599641  -5.054388  0.421016
H    -1.717189  -5.835364  -1.777727
H    -3.110887  -4.945610  -2.139471
N    -4.762913  -0.890982  1.967703
C    -5.769052  -1.577076  2.776232
H    -5.081881  -0.373114  1.154866
H    -6.565783  -0.877075  3.051743
H    -5.287762  -1.956158  3.681434
H    -6.204446  -2.415483  2.217586
Pb    2.269810  0.817062  4.216608
