34
Energy: -608353.891295 eV PBE+vdW (tier 2 basis)
C    -0.164671  1.500993  -0.342701
C    -0.275973  0.732511  0.930196
O    -0.354671  1.354179  2.036417
H    0.733467  2.132293  -0.306227
H    -1.025384  2.179738  -0.421745
H    -0.126091  0.862650  -1.231467
N    -0.313273  -0.610440  0.878063
C    -0.574853  -1.443244  2.053802
C    0.745923  -1.763380  2.774521
O    1.172681  -0.957906  3.667514
H    -0.254721  -1.054244  -0.035729
H    -1.110942  -0.782156  2.742207
C    -1.508353  -2.620923  1.783556
C    -2.019527  -3.275495  3.079578
C    -2.803071  -2.369138  4.054994
C    -2.002970  -1.562405  5.104698
N    -1.944546  -0.066179  4.857800
H    -1.036103  -3.380581  1.139031
H    -2.362242  -2.234746  1.206140
H    -1.192031  -3.761626  3.620752
H    -2.683092  -4.096060  2.777053
H    -3.479511  -3.024179  4.618816
H    -3.480741  -1.699709  3.496935
H    -0.973650  -1.936567  5.187795
H    -2.460403  -1.701142  6.091066
H    -2.224907  0.410453  5.721483
H    -2.671280  0.193074  4.181294
N    1.423763  -2.846582  2.445975
C    2.713691  -3.253273  3.010526
H    1.008422  -3.463133  1.750700
H    3.061045  -2.486062  3.705336
H    3.441107  -3.377356  2.199797
H    2.599214  -4.207813  3.538316
Pb    0.249692  1.070449  4.247502
