34
Energy: -608352.045207 eV PBE+vdW (tier 2 basis)
C    0.161915  -1.075482  0.935763
C    -0.078070  -1.082092  2.403174
O    0.845641  -1.453540  3.200732
H    -0.750352  -0.946883  0.346804
H    0.633228  -2.033353  0.670934
H    0.895106  -0.297480  0.674531
N    -1.267496  -0.698604  2.920573
C    -1.970311  0.530184  2.531391
C    -1.001961  1.695147  2.826815
O    -0.128103  1.574349  3.759704
H    -1.386146  -0.939300  3.906855
H    -2.205595  0.492512  1.459637
C    -3.279025  0.607178  3.354555
C    -4.238575  1.756164  3.032983
C    -5.533828  1.638282  3.848037
C    -6.526218  2.774378  3.554869
N    -7.721042  2.641741  4.351396
H    -3.010889  0.640361  4.424372
H    -3.790167  -0.353233  3.186365
H    -4.481521  1.751622  1.958395
H    -3.764929  2.726154  3.253242
H    -5.309218  1.642420  4.925180
H    -6.016163  0.671436  3.631624
H    -6.748017  2.788758  2.466407
H    -6.068788  3.745914  3.792201
H    -8.267275  3.486436  4.491866
H    -8.309361  1.834422  4.160806
N    -1.047546  2.829879  2.149522
C    -1.897593  3.228981  1.025781
H    -0.373968  3.529324  2.468017
H    -2.421911  2.369320  0.603129
H    -1.263813  3.675999  0.251543
H    -2.635627  3.970833  1.353511
Pb    1.347371  0.133049  4.800919
