34
Energy: -608352.858543 eV PBE+vdW (tier 2 basis)
C    0.097508  0.649560  0.115523
C    -0.090435  0.705376  1.593255
O    0.837219  1.206273  2.317342
H    0.249486  1.673541  -0.255355
H    -0.749512  0.198700  -0.411620
H    1.013745  0.089875  -0.115538
N    -1.231394  0.255338  2.121513
C    -1.678278  0.402013  3.519925
C    -1.010437  -0.688674  4.382255
O    0.180027  -0.514590  4.825291
H    -1.924992  -0.103904  1.467798
H    -1.276980  1.359043  3.891976
C    -3.207734  0.473745  3.569228
C    -3.771471  0.874480  4.941606
C    -5.294714  1.093141  4.945251
C    -5.778839  2.372991  4.253150
N    -5.579807  2.345402  2.799031
H    -3.654652  -0.478370  3.226259
H    -3.540831  1.225547  2.833754
H    -3.277838  1.803906  5.272372
H    -3.524357  0.114991  5.700506
H    -5.628983  1.135588  5.991194
H    -5.803304  0.217661  4.507702
H    -5.228006  3.237885  4.651726
H    -6.838418  2.530417  4.524989
H    -6.242681  1.718236  2.340757
H    -5.701931  3.269380  2.385195
N    -1.671407  -1.794939  4.646625
C    -1.179367  -2.934012  5.424197
H    -2.628118  -1.847596  4.300122
H    -1.842572  -3.098532  6.281849
H    -0.167007  -2.725775  5.775156
H    -1.179356  -3.832161  4.794761
Pb    1.811702  0.955276  4.317675
