34
Energy: -608352.075088 eV PBE+vdW (tier 2 basis)
C    -0.466019  -0.127134  -0.406155
C    -0.182294  -0.184370  1.051991
O    1.039519  -0.074461  1.440266
H    0.258228  0.569040  -0.850218
H    -1.486418  0.185751  -0.639376
H    -0.271097  -1.107757  -0.867971
N    -1.130554  -0.292587  2.007901
C    -2.217376  -1.284118  2.103900
C    -1.567087  -2.560329  2.686129
O    -0.291550  -2.716740  2.722894
H    -0.767528  -0.033153  2.926864
H    -2.920617  -0.887065  2.852343
C    -3.005622  -1.536420  0.801767
C    -4.392899  -2.165553  0.997041
C    -5.262392  -2.094929  -0.272787
C    -5.681019  -0.683719  -0.703509
N    -4.575238  0.089683  -1.286151
H    -2.416142  -2.147835  0.102695
H    -3.169998  -0.560968  0.317269
H    -4.922505  -1.650422  1.817093
H    -4.312349  -3.228955  1.278484
H    -6.176341  -2.676068  -0.088223
H    -4.751474  -2.602397  -1.107415
H    -6.064756  -0.124506  0.162690
H    -6.526769  -0.778397  -1.408169
H    -4.820115  1.074890  -1.387770
H    -4.323477  -0.259383  -2.212330
N    -2.352583  -3.515130  3.145206
C    -1.886178  -4.797227  3.685289
H    -3.357392  -3.358666  3.102179
H    -2.761613  -5.399982  3.939073
H    -1.287922  -4.633383  4.589568
H    -1.282719  -5.328525  2.940527
Pb    1.791112  -1.793210  2.714590
