34
Energy: -608352.784409 eV PBE+vdW (tier 2 basis)
C    -0.936591  1.934142  1.168792
C    -0.978096  0.479383  1.494910
O    -0.002783  -0.264779  1.149142
H    -1.825728  2.479408  1.501817
H    -0.812343  2.061427  0.085102
H    -0.046810  2.372360  1.643515
N    -2.031009  -0.003890  2.166593
C    -2.160021  -1.356440  2.738586
C    -2.611221  -2.332152  1.632649
O    -1.745495  -2.833752  0.838386
H    -2.760467  0.663061  2.410911
H    -1.148134  -1.685032  3.024745
C    -3.023703  -1.306224  4.007283
C    -3.018812  -2.603370  4.828880
C    -3.821760  -2.460568  6.127753
C    -3.781205  -3.728370  6.994288
N    -4.507590  -3.538986  8.227857
H    -4.057987  -1.001137  3.763575
H    -2.623668  -0.489969  4.628466
H    -1.976069  -2.866655  5.071209
H    -3.416625  -3.443804  4.236798
H    -4.870480  -2.214245  5.892547
H    -3.431500  -1.622011  6.723530
H    -2.739675  -3.970640  7.250566
H    -4.165669  -4.586871  6.403445
H    -5.515059  -3.427051  8.145040
H    -4.263609  -4.167989  8.987350
N    -3.891638  -2.621102  1.508659
C    -4.482404  -3.493499  0.491450
H    -4.524315  -2.214424  2.194613
H    -5.180247  -2.915279  -0.126363
H    -5.029085  -4.306144  0.984177
H    -3.690161  -3.908811  -0.134209
Pb    0.426957  -2.339584  0.376940
