34
Energy: -608352.777686 eV PBE+vdW (tier 2 basis)
C    0.025866  1.079165  0.511466
C    -0.279170  -0.032884  1.456202
O    0.670654  -0.782399  1.862999
H    0.752160  1.752819  0.988891
H    -0.858695  1.654403  0.219225
H    0.512881  0.673146  -0.385237
N    -1.538546  -0.202706  1.875253
C    -1.985817  -1.124185  2.933063
C    -2.152349  -2.537385  2.341172
O    -1.132854  -3.304695  2.240339
H    -2.233678  0.445549  1.509348
H    -1.161041  -1.205563  3.657384
C    -3.203404  -0.538324  3.663306
C    -3.640739  -1.313076  4.918199
C    -2.560627  -1.429159  5.999247
C    -3.088354  -2.051778  7.300884
N    -2.018973  -2.222252  8.265657
H    -4.053355  -0.426033  2.966859
H    -2.928639  0.487851  3.952883
H    -4.004564  -2.317954  4.649199
H    -4.514539  -0.785484  5.327291
H    -2.144808  -0.431445  6.219333
H    -1.716731  -2.054645  5.661468
H    -3.517266  -3.042229  7.090734
H    -3.918609  -1.426020  7.684894
H    -1.692012  -1.355705  8.689501
H    -2.221634  -2.903078  8.993883
N    -3.339437  -2.934027  1.930882
C    -3.652672  -4.225928  1.315432
H    -4.114962  -2.289189  2.071301
H    -4.451403  -4.712512  1.887264
H    -2.760536  -4.854967  1.316856
H    -3.995571  -4.067682  0.285505
Pb    1.091494  -2.917923  2.434974
