34
Energy: -608352.10275 eV PBE+vdW (tier 2 basis)
C    -1.336001  -1.342854  0.445482
C    -0.267864  -0.449276  0.965061
O    0.957079  -0.693038  0.696924
H    -1.035858  -2.379066  0.661950
H    -1.393997  -1.270385  -0.650917
H    -2.316570  -1.152121  0.889970
N    -0.562743  0.629729  1.723251
C    -1.599398  1.612443  1.381212
C    -1.233452  2.162620  -0.011901
O    -0.002138  2.190085  -0.383256
H    0.245163  1.039121  2.197076
H    -2.578920  1.117829  1.349988
C    -1.600713  2.702949  2.480356
C    -2.658274  3.800757  2.359854
C    -2.653137  4.727026  3.584715
C    -3.737303  5.811447  3.520505
N    -5.073673  5.242238  3.492272
H    -0.594626  3.156188  2.514471
H    -1.736532  2.163096  3.430328
H    -3.662676  3.360959  2.265884
H    -2.483872  4.407375  1.456463
H    -1.675591  5.221749  3.687722
H    -2.793747  4.128708  4.499842
H    -3.608369  6.423553  2.615884
H    -3.590642  6.494126  4.379653
H    -5.360686  4.802919  4.365905
H    -5.796444  5.885391  3.177200
N    -2.150513  2.621192  -0.845012
C    -3.607781  2.684822  -0.708274
H    -1.769520  2.989538  -1.718898
H    -3.953646  2.064635  0.121427
H    -4.058721  2.322058  -1.638676
H    -3.927406  3.719308  -0.535052
Pb    2.011215  1.081924  -0.320963
