34
Energy: -608352.66217 eV PBE+vdW (tier 2 basis)
C    -0.177809  0.420114  -0.036448
C    -0.217830  0.337562  1.451678
O    0.784090  0.746156  2.125747
H    0.696581  -0.130962  -0.407932
H    -0.036990  1.471307  -0.325760
H    -1.083375  0.033767  -0.515389
N    -1.313612  -0.149488  2.047605
C    -1.563732  -0.148936  3.495051
C    -0.729132  -1.247928  4.187285
O    0.376842  -0.903434  4.743407
H    -2.087544  -0.418462  1.443742
H    -1.139138  0.787717  3.890404
C    -3.069533  -0.119031  3.804234
C    -3.700566  1.247456  3.506052
C    -5.198272  1.285829  3.832236
C    -5.861101  2.607390  3.417920
N    -5.838330  2.789182  1.972980
H    -3.593379  -0.903819  3.238586
H    -3.200858  -0.369163  4.868226
H    -3.570009  1.515587  2.445190
H    -3.179261  2.023617  4.090899
H    -5.356762  1.135777  4.910738
H    -5.713864  0.453073  3.325392
H    -5.329955  3.453296  3.877326
H    -6.888012  2.624557  3.827849
H    -6.514652  2.209203  1.478131
H    -5.951566  3.757211  1.680264
N    -1.081848  -2.518626  4.251994
C    -2.259067  -3.212906  3.720254
H    -0.417523  -3.097832  4.768801
H    -2.522712  -2.837768  2.727315
H    -3.114028  -3.115168  4.400038
H    -2.004001  -4.272747  3.627551
Pb    1.900613  0.633277  4.088540
