34
Energy: -608353.281456 eV PBE+vdW (tier 2 basis)
C    -0.944922  -0.699689  -0.205525
C    -1.150664  -0.721989  1.271010
O    -1.486593  -1.825073  1.831126
H    -0.674277  0.288955  -0.590307
H    -1.853957  -1.054347  -0.709102
H    -0.146104  -1.413476  -0.454898
N    -0.952233  0.394530  1.971338
C    -0.903310  0.548083  3.443430
C    -2.344705  0.731745  3.948552
O    -3.106921  -0.327150  3.994261
H    -0.687646  1.219445  1.435321
H    -0.550458  -0.412588  3.853533
C    0.142718  1.625669  3.770768
C    0.653495  1.676840  5.224493
C    -0.276994  2.175875  6.340208
C    -0.654047  3.659140  6.304097
N    -1.480034  4.044030  5.111391
H    -0.218277  2.604266  3.423460
H    1.012624  1.390264  3.138916
H    1.553871  2.309749  5.213821
H    1.016641  0.672466  5.493667
H    0.250326  2.016065  7.292042
H    -1.185740  1.558783  6.415476
H    0.251755  4.280680  6.346469
H    -1.237806  3.894319  7.202151
H    -2.170481  2.811098  4.514553
H    -2.164538  4.751973  5.385965
N    -2.815077  1.895506  4.286108
C    -4.210070  2.063445  4.698949
H    -0.896398  4.507046  4.411924
H    -4.892820  1.744950  3.902503
H    -4.377154  3.123719  4.909571
H    -4.428160  1.477155  5.601429
Pb    -2.925041  -2.446487  3.420300
