34
Energy: -608352.144796 eV PBE+vdW (tier 2 basis)
C    0.390392  1.900654  1.130093
C    -0.344499  1.324950  2.287510
O    0.088231  1.516861  3.475398
H    0.285966  2.996045  1.117264
H    0.082776  1.484169  0.166759
H    1.460596  1.701230  1.285980
N    -1.459630  0.583395  2.117956
C    -2.563261  0.966812  1.240495
C    -3.372046  2.054976  2.002225
O    -3.012476  2.478999  3.152527
H    -1.749814  0.075082  2.954800
H    -2.133516  1.456217  0.353591
C    -3.392796  -0.245876  0.776965
C    -4.067299  -1.063297  1.885489
C    -4.921576  -2.197875  1.303728
C    -5.581559  -3.071583  2.380039
N    -6.408249  -4.092625  1.785180
H    -2.718783  -0.884863  0.188185
H    -4.152528  0.106408  0.061549
H    -4.702022  -0.410522  2.509665
H    -3.306952  -1.501526  2.555235
H    -4.293372  -2.831641  0.657168
H    -5.710980  -1.782068  0.659747
H    -6.221431  -2.455504  3.029016
H    -4.791804  -3.499650  3.034391
H    -5.935562  -4.785482  1.209923
H    -7.112429  -4.511667  2.385415
N    -4.444053  2.557812  1.418841
C    -5.284898  3.615622  1.990948
H    -4.704063  2.191160  0.506617
H    -4.694978  4.525614  2.151435
H    -5.711765  3.286914  2.945640
H    -6.093100  3.829616  1.287363
Pb    -1.448119  2.508889  4.860992
