34
Energy: -608352.605702 eV PBE+vdW (tier 2 basis)
C    -0.374044  -1.297734  -0.132169
C    -0.408913  -0.756930  1.257055
O    0.640184  -0.229892  1.748846
H    -0.112987  -0.481059  -0.820301
H    -1.323245  -1.743014  -0.447564
H    0.425775  -2.046233  -0.210371
N    -1.553715  -0.823328  1.952754
C    -1.783528  -0.194766  3.260494
C    -1.069120  -0.997562  4.371431
O    0.058178  -0.561009  4.798878
H    -2.360465  -1.225571  1.480266
H    -1.249157  0.767983  3.252426
C    -3.274020  0.119652  3.463761
C    -3.586265  0.795665  4.804854
C    -5.075257  1.136388  4.938913
C    -5.411055  1.830878  6.266483
N    -6.827780  2.090910  6.372838
H    -3.883985  -0.787045  3.344020
H    -3.561208  0.791867  2.640318
H    -2.984176  1.714087  4.901799
H    -3.285444  0.143400  5.642215
H    -5.684731  0.223167  4.860370
H    -5.379375  1.786300  4.102389
H    -4.802272  2.755521  6.355966
H    -5.122477  1.187933  7.111110
H    -7.176386  2.262601  7.311677
H    -7.211595  2.757295  5.706837
N    -1.543126  -2.113250  4.898148
C    -2.781627  -2.846363  4.620027
H    -0.940460  -2.507967  5.622182
H    -2.650229  -3.869273  4.984706
H    -2.980883  -2.892807  3.545374
H    -3.634291  -2.395959  5.143122
Pb    1.759238  0.382274  3.623601
