34
Energy: -608351.27256 eV PBE+vdW (tier 2 basis)
C    -1.431552  -1.746523  2.548314
C    -0.145961  -1.311142  1.935100
O    0.903816  -2.083262  2.065256
H    -1.288456  -1.881768  3.629430
H    -1.724124  -2.719547  2.129689
H    -2.244889  -1.034028  2.390136
N    0.003313  -0.195839  1.270390
C    -0.966490  0.866607  0.950384
C    -0.338722  1.481224  -0.329724
O    0.899848  1.520630  -0.380173
H    0.925753  0.062840  0.866945
H    -1.948073  0.418115  0.757114
C    -1.033330  1.868757  2.130264
C    -1.920003  3.110526  1.936274
C    -1.313217  4.312060  1.187263
C    -0.138587  5.004237  1.888801
N    1.091532  4.244669  1.840489
H    -0.004422  2.181311  2.368246
H    -1.401627  1.303643  2.999951
H    -2.212271  3.451369  2.940705
H    -2.866546  2.828501  1.449232
H    -2.106494  5.063278  1.068971
H    -1.007643  4.044429  0.164892
H    -0.375529  5.210529  2.943771
H    -0.002156  5.999893  1.414231
H    1.409245  3.957859  0.915504
H    1.853639  4.597886  2.414680
N    -1.127277  1.925991  -1.321014
C    -2.582270  1.978143  -1.424704
H    -0.600124  2.316728  -2.101141
H    -2.963912  2.983470  -1.200874
H    -3.053801  1.264126  -0.743433
H    -2.876209  1.712042  -2.445955
Pb    2.258876  -3.709198  2.379769
