34
Energy: -608351.403439 eV PBE+vdW (tier 2 basis)
C    -1.135354  0.355295  0.135337
C    -0.771339  0.305061  1.587924
O    0.407056  0.106405  1.956059
H    -0.440659  1.020958  -0.390103
H    -2.166324  0.674933  -0.050904
H    -0.996024  -0.649065  -0.290205
N    -1.776669  0.480067  2.490097
C    -1.723705  0.173604  3.927017
C    -0.750640  1.065549  4.700420
O    -1.164379  1.574847  5.823381
H    -2.699029  0.679047  2.117369
H    -2.718725  0.421840  4.318269
C    -1.426516  -1.311724  4.271688
C    -2.519165  -2.312854  3.856471
C    -2.550067  -2.777031  2.389208
C    -1.315489  -3.562945  1.924390
N    -1.135776  -4.788267  2.660158
H    -1.318124  -1.359483  5.366251
H    -0.446880  -1.590224  3.858836
H    -3.507804  -1.906241  4.120877
H    -2.387539  -3.203043  4.488436
H    -2.697567  -1.937218  1.696780
H    -3.438802  -3.413884  2.258689
H    -0.392516  -2.970181  2.017219
H    -1.432437  -3.762422  0.837182
H    -0.235745  -5.253200  2.579104
H    -1.915567  -5.442564  2.664439
N    0.463730  1.236034  4.248034
C    1.483081  2.023589  4.909152
H    0.633649  0.733974  3.286666
H    2.398561  2.008931  4.308322
H    1.739236  1.599761  5.897442
H    1.176528  3.081656  5.001850
Pb    -0.571611  2.829556  7.502531
