34
Energy: -608351.435891 eV PBE+vdW (tier 2 basis)
C    0.119533  2.041083  0.913344
C    0.205756  1.092540  2.058200
O    1.218355  1.208410  2.883701
H    0.317197  3.061870  1.262886
H    -0.852768  2.012882  0.413629
H    0.896708  1.788961  0.176499
N    -0.655737  0.139452  2.284425
C    -1.900884  -0.215866  1.594481
C    -2.618329  -1.073532  2.681243
O    -1.955469  -1.455889  3.656696
H    -0.596110  -0.475058  3.136929
H    -2.485960  0.697303  1.408737
C    -1.672218  -0.954858  0.252925
C    -0.831862  -2.241951  0.293518
C    -1.521765  -3.528754  0.781673
C    -2.633264  -4.053959  -0.137812
N    -2.141869  -4.420907  -1.442152
H    -1.195617  -0.240891  -0.434660
H    -2.663200  -1.145462  -0.186009
H    0.069320  -2.074810  0.903734
H    -0.467750  -2.418318  -0.728992
H    -1.935337  -3.413021  1.792238
H    -0.751979  -4.310358  0.876166
H    -3.434826  -3.311936  -0.274336
H    -3.111632  -4.917841  0.371129
H    -1.409082  -5.126540  -1.473664
H    -2.828750  -4.540991  -2.181439
N    -3.910296  -1.349892  2.470038
C    -4.724088  -2.156927  3.378069
H    -4.365951  -0.948157  1.656634
H    -4.100451  -2.463935  4.221546
H    -5.102328  -3.047197  2.860529
H    -5.572753  -1.569624  3.747979
Pb    2.756157  1.730291  4.263635
