34
Energy: -608352.146529 eV PBE+vdW (tier 2 basis)
C    0.232778  -0.591923  1.982800
C    -0.419088  -0.627170  3.318813
O    0.274339  -0.877968  4.361220
H    0.868919  0.302211  1.895346
H    -0.477094  -0.626697  1.151715
H    0.912687  -1.453515  1.919839
N    -1.744011  -0.401099  3.460245
C    -2.458286  0.705600  2.821085
C    -1.876298  2.010239  3.420103
O    -1.206959  2.002774  4.508978
H    -2.112201  -0.653192  4.379768
H    -2.253501  0.690453  1.740312
C    -3.976489  0.529261  3.057518
C    -4.900886  1.476590  2.283757
C    -6.372850  1.065266  2.432818
C    -7.333625  2.005525  1.688853
N    -8.704764  1.595497  1.865406
H    -4.182491  0.605328  4.138187
H    -4.200114  -0.508210  2.765814
H    -4.627472  1.472568  1.214534
H    -4.786921  2.511145  2.645931
H    -6.656770  1.047816  3.495632
H    -6.504629  0.038572  2.055427
H    -7.044170  2.045546  0.616969
H    -7.235406  3.030225  2.075770
H    -9.413703  2.307485  1.716880
H    -8.970575  0.700693  1.461904
N    -2.093312  3.147298  2.784678
C    -1.633349  4.461257  3.248891
H    -2.635682  3.112965  1.925106
H    -0.539623  4.477173  3.321252
H    -2.064208  4.691072  4.230322
H    -1.955960  5.213386  2.524834
Pb    0.118524  0.771947  5.959446
