34
Energy: -608352.217933 eV PBE+vdW (tier 2 basis)
C    1.116025  2.603897  0.243861
C    1.150187  2.382614  1.712676
O    2.070427  2.932571  2.419638
H    0.467609  1.900499  -0.286072
H    2.145324  2.503864  -0.130458
H    0.811232  3.637243  0.018163
N    0.241547  1.610406  2.335092
C    -1.199609  1.669550  2.086549
C    -1.694091  2.995745  2.721014
O    -0.886741  3.750995  3.389214
H    0.486909  1.357984  3.294236
H    -1.361912  1.741910  1.000318
C    -1.907136  0.404678  2.617628
C    -2.071681  0.334814  4.138400
C    -2.890329  -0.881592  4.607658
C    -4.278858  -1.028735  3.974103
N    -5.064442  0.214530  4.031277
H    -1.337687  -0.456603  2.238013
H    -2.891542  0.345628  2.141067
H    -2.567649  1.251067  4.496431
H    -1.090376  0.291644  4.641359
H    -2.991631  -0.817637  5.701509
H    -2.331015  -1.808713  4.413837
H    -4.787612  -1.870549  4.475769
H    -4.196130  -1.320547  2.916446
H    -5.987869  0.068626  3.619989
H    -5.225178  0.501552  4.999399
N    -2.944249  3.388321  2.589360
C    -4.072719  2.698991  1.958291
H    -3.155994  4.270868  3.057350
H    -3.768552  2.235343  1.013327
H    -4.841616  3.446565  1.743368
H    -4.478851  1.929252  2.647836
Pb    1.217407  4.286148  4.038522
