34
Energy: -608351.34566 eV PBE+vdW (tier 2 basis)
C    0.188029  0.455498  0.403807
C    0.020513  0.235687  1.867142
O    1.098204  0.025498  2.585225
H    0.973242  1.202490  0.231382
H    -0.734084  0.783067  -0.083817
H    0.518652  -0.482177  -0.066658
N    -1.130031  0.224777  2.480626
C    -2.489779  0.473184  1.983018
C    -3.230645  0.823831  3.307656
O    -2.672348  0.523291  4.375165
H    -1.207888  0.125036  3.526523
H    -2.477851  1.346725  1.316070
C    -3.079407  -0.744080  1.226263
C    -3.215355  -2.051842  2.027426
C    -4.521690  -2.231300  2.821490
C    -5.749437  -2.544610  1.952810
N    -5.640257  -3.820888  1.292115
H    -2.438117  -0.915481  0.349611
H    -4.049158  -0.435706  0.810535
H    -2.363229  -2.159472  2.715278
H    -3.132549  -2.889239  1.319678
H    -4.748702  -1.348009  3.433651
H    -4.385695  -3.053006  3.541022
H    -5.908497  -1.777357  1.179566
H    -6.647734  -2.504637  2.604743
H    -5.530435  -4.637993  1.888788
H    -6.261184  -3.992877  0.506289
N    -4.426114  1.426623  3.251529
C    -5.197833  1.839735  2.084095
H    -4.838061  1.596806  4.167363
H    -5.901753  1.058642  1.764541
H    -4.542211  2.097002  1.245407
H    -5.770546  2.736729  2.341214
Pb    2.922669  -0.021022  3.683125
