34
Energy: -608352.040248 eV PBE+vdW (tier 2 basis)
C    -0.597404  2.763842  1.181315
C    -0.358417  1.341853  1.544669
O    0.309382  1.055426  2.595678
H    -1.327474  3.214213  1.871382
H    -0.930736  2.897933  0.148298
H    0.342776  3.311825  1.336391
N    -0.828897  0.331596  0.782234
C    -2.194440  0.268308  0.263054
C    -3.123242  0.051315  1.483932
O    -2.640360  -0.278587  2.625549
H    -0.440307  -0.583124  1.018061
H    -2.442492  1.239262  -0.189544
C    -2.322607  -0.831982  -0.813365
C    -2.031497  -2.261473  -0.332791
C    -2.351717  -3.336880  -1.384308
C    -1.444549  -3.318366  -2.624233
N    -1.793863  -4.387730  -3.527008
H    -1.647708  -0.542114  -1.630858
H    -3.337929  -0.790428  -1.230514
H    -2.630456  -2.480747  0.566205
H    -0.971710  -2.366980  -0.038694
H    -3.399276  -3.244853  -1.708928
H    -2.267582  -4.321746  -0.900833
H    -0.383639  -3.370469  -2.294865
H    -1.550039  -2.373924  -3.178016
H    -1.452028  -4.302449  -4.479832
H    -1.688048  -5.334344  -3.170014
N    -4.431665  0.200034  1.370289
C    -5.227295  0.593840  0.204228
H    -4.952548  0.005808  2.227023
H    -4.628445  1.171626  -0.505447
H    -6.054655  1.222077  0.550365
H    -5.641341  -0.290135  -0.297323
Pb    -0.834616  -0.298342  4.060858
