34
Energy: -608351.016049 eV PBE+vdW (tier 2 basis)
C    -0.803544  -0.118731  -0.381501
C    -0.437696  -0.146524  1.067189
O    0.743232  -0.512291  1.447169
H    -0.131859  0.567414  -0.917943
H    -1.834582  0.205379  -0.557848
H    -0.679565  -1.122750  -0.812371
N    -1.335342  0.201091  1.973053
C    -1.154036  0.257039  3.435042
C    -2.353808  -0.458332  4.138343
O    -3.100488  0.170768  4.885527
H    -2.239386  0.505988  1.615220
H    -0.235984  -0.304401  3.652597
C    -0.992944  1.701836  3.934010
C    -2.079457  2.691084  3.474269
C    -2.251209  3.904673  4.392523
C    -2.769740  3.575980  5.837679
N    -3.989817  2.849181  5.878346
H    -0.000400  2.065026  3.630335
H    -0.972764  1.629788  5.029650
H    -3.050330  2.181505  3.390311
H    -1.834507  3.068826  2.468853
H    -2.960349  4.607060  3.934279
H    -1.299487  4.442406  4.521617
H    -2.890234  4.526535  6.371749
H    -1.994731  2.989384  6.358766
H    -4.879475  3.317243  6.007611
H    -3.991225  1.848346  5.687489
N    -2.521369  -1.780813  3.903514
C    -1.684843  -2.702119  3.147949
H    -3.321627  -2.174707  4.394941
H    -1.947863  -2.720823  2.079705
H    -1.828337  -3.711002  3.547656
H    -0.621383  -2.455524  3.257972
Pb    2.737359  -1.029844  0.619229
