34
Energy: -608352.791155 eV PBE+vdW (tier 2 basis)
C    -1.195685  1.918688  0.862965
C    -1.102596  0.494459  1.295703
O    -0.061478  -0.179584  1.001514
H    -0.353850  2.472090  1.303716
H    -2.133911  2.401108  1.155812
H    -1.077049  1.977505  -0.227131
N    -2.107329  -0.033101  2.006601
C    -2.110756  -1.344465  2.680069
C    -2.469403  -2.438640  1.653698
O    -1.561253  -2.912914  0.890320
H    -2.897023  0.578971  2.202623
H    -1.072897  -1.555448  2.983580
C    -2.977861  -1.278337  3.945557
C    -2.848519  -2.499915  4.866688
C    -3.723633  -2.366560  6.118865
C    -3.579812  -3.558615  7.076386
N    -4.453296  -3.415085  8.217869
H    -4.036545  -1.098078  3.683023
H    -2.663657  -0.379385  4.498050
H    -1.792620  -2.614767  5.161316
H    -3.118322  -3.423895  4.329122
H    -4.783798  -2.273482  5.837630
H    -3.460850  -1.439141  6.653282
H    -2.513377  -3.662389  7.368358
H    -3.851279  -4.490876  6.559558
H    -4.654641  -4.269491  8.729586
H    -4.240529  -2.646464  8.849464
N    -3.716272  -2.857170  1.563140
C    -4.222439  -3.855266  0.618501
H    -4.383797  -2.464596  2.223987
H    -4.668973  -4.687860  1.174896
H    -3.398992  -4.222747  0.003416
H    -4.989084  -3.398832  -0.019219
Pb    0.554526  -2.256718  0.375057
