34
Energy: -608352.805401 eV PBE+vdW (tier 2 basis)
C    -0.303318  0.762518  -0.588104
C    -0.669803  1.621964  0.574740
O    -0.248301  2.824216  0.618779
H    -0.659607  1.249650  -1.507085
H    -0.721709  -0.247683  -0.531025
H    0.790453  0.701715  -0.666624
N    -1.453919  1.113035  1.532538
C    -2.068810  1.847434  2.651934
C    -1.050825  1.967855  3.803636
O    -0.111727  2.831746  3.731540
H    -1.743662  0.144163  1.415916
H    -2.241370  2.879063  2.304097
C    -3.424008  1.224965  3.017980
C    -4.494973  1.380741  1.926936
C    -5.832534  0.759112  2.344818
C    -6.920132  0.908422  1.270420
N    -8.151763  0.279458  1.687232
H    -3.780971  1.711683  3.938246
H    -3.296782  0.152587  3.254005
H    -4.154712  0.915594  0.987288
H    -4.630960  2.452526  1.708320
H    -6.180432  1.228436  3.279587
H    -5.705597  -0.312445  2.561827
H    -6.594202  0.425661  0.337545
H    -7.053024  1.985614  1.035542
H    -8.628305  0.707352  2.477534
H    -8.803060  0.045957  0.943229
N    -1.158358  1.172801  4.850014
C    -0.265469  1.153844  6.011129
H    -1.943888  0.525269  4.860775
H    0.233560  0.179034  6.072947
H    -0.854851  1.313091  6.921688
H    0.479542  1.945094  5.909322
Pb    0.608510  4.269599  2.125812
