34
Energy: -608352.648617 eV PBE+vdW (tier 2 basis)
C    0.790269  3.195384  2.156529
C    -0.184790  2.443561  2.997836
O    -0.996141  3.092480  3.740472
H    0.227584  3.850053  1.475025
H    1.446690  2.545918  1.568269
H    1.397297  3.851005  2.794802
N    -0.200656  1.108733  2.931218
C    -1.207366  0.200202  3.502814
C    -0.868975  -0.104053  4.976442
O    -1.004237  0.816369  5.854910
H    0.481111  0.675366  2.311186
H    -2.153574  0.763802  3.552352
C    -1.434298  -1.007764  2.570379
C    -0.189154  -1.736604  2.025100
C    -0.530956  -3.037851  1.277624
C    -0.932785  -4.203855  2.214571
N    -1.202646  -5.460213  1.567337
H    -2.022748  -0.644614  1.715613
H    -2.101960  -1.703894  3.099221
H    0.546350  -1.965842  2.817924
H    0.344386  -1.081023  1.316918
H    0.347366  -3.347300  0.694281
H    -1.336740  -2.853029  0.550685
H    -1.830006  -3.933771  2.795546
H    -0.117818  -4.366488  2.941388
H    -0.413997  -5.911077  1.111509
H    -2.045310  -5.507065  1.001600
N    -0.469880  -1.309747  5.327072
C    -0.136579  -1.742037  6.686229
H    -0.377329  -1.999642  4.583810
H    0.948128  -1.883014  6.775104
H    -0.640340  -2.693280  6.890436
H    -0.466905  -0.985327  7.400557
Pb    -1.771992  2.951616  5.843243
