34
Energy: -608351.927454 eV PBE+vdW (tier 2 basis)
C    -0.767162  1.248147  1.499284
C    -1.221269  1.005588  2.896334
O    -0.647227  1.619974  3.859816
H    -0.188064  2.176847  1.474227
H    -1.601805  1.301792  0.793857
H    -0.096875  0.433391  1.178358
N    -2.221737  0.147083  3.194503
C    -2.387111  -1.206962  2.638162
C    -1.118026  -2.006708  3.035449
O    -0.288337  -1.555592  3.898265
H    -2.544255  0.238056  4.158178
H    -3.208892  -1.643978  3.229165
C    -2.826518  -1.269768  1.155330
C    -3.671138  -2.509488  0.795549
C    -4.492209  -2.342724  -0.491895
C    -3.667213  -2.271688  -1.784336
N    -4.530439  -2.148892  -2.933085
H    -1.958625  -1.177542  0.488526
H    -3.453019  -0.381228  0.990816
H    -4.368252  -2.721880  1.620704
H    -3.045052  -3.414014  0.682554
H    -5.122439  -1.443658  -0.417349
H    -5.184151  -3.195568  -0.561814
H    -3.009263  -3.167215  -1.840825
H    -2.998314  -1.397230  -1.780539
H    -4.086657  -1.871561  -3.803842
H    -5.203314  -2.898987  -3.073490
N    -0.922988  -3.193199  2.494500
C    0.191693  -4.087126  2.826457
H    -1.613780  -3.518206  1.819999
H    1.148601  -3.609002  2.587223
H    0.086525  -4.999987  2.235147
H    0.170253  -4.341434  3.892700
Pb    0.378353  0.157754  5.299676
