34
Energy: -608352.730956 eV PBE+vdW (tier 2 basis)
C    0.812525  2.949620  2.180107
C    -0.190169  2.108081  2.895046
O    -1.294403  2.629180  3.261057
H    1.074717  3.814830  2.803601
H    0.345317  3.347285  1.267646
H    1.723029  2.405085  1.909321
N    0.087164  0.816585  3.111844
C    -0.836737  -0.209006  3.626607
C    -0.865929  -0.142994  5.166416
O    -1.546676  0.768651  5.748105
H    0.992610  0.485364  2.785110
H    -1.850129  0.079335  3.302681
C    -0.507117  -1.578675  3.013638
C    -0.770681  -1.636887  1.498458
C    -0.388152  -2.970571  0.838043
C    -1.277600  -4.170311  1.254473
N    -1.020824  -5.394927  0.544018
H    -1.123739  -2.330306  3.527431
H    0.548709  -1.840046  3.211755
H    -0.212874  -0.833054  0.993080
H    -1.837595  -1.427939  1.314511
H    0.667799  -3.209270  1.042834
H    -0.467396  -2.845244  -0.251164
H    -2.334396  -3.900944  1.099296
H    -1.157773  -4.378828  2.329409
H    -0.136842  -5.861340  0.724396
H    -1.281527  -5.421066  -0.437517
N    -0.182822  -1.027146  5.866937
C    -0.097204  -1.085921  7.328235
H    0.317907  -1.743688  5.345390
H    -0.415502  -2.078250  7.668392
H    -0.745129  -0.321275  7.760758
H    0.939960  -0.914738  7.641626
Pb    -2.691522  2.598411  5.032459
