34
Energy: -608352.823705 eV PBE+vdW (tier 2 basis)
C    -0.902043  -0.906029  0.451475
C    -0.531957  -0.526945  1.847386
O    0.534587  -1.010891  2.346007
H    -0.985281  -2.000508  0.395866
H    -0.088633  -0.616447  -0.227715
H    -1.839097  -0.455237  0.108857
N    -1.345966  0.300228  2.516811
C    -1.306656  0.730086  3.932934
C    -0.184584  1.750709  4.172971
O    1.040750  1.395595  4.227690
H    -2.159483  0.613340  1.994202
H    -2.260411  1.254518  4.077668
C    -1.282142  -0.418833  4.961994
C    -2.401490  -1.449415  4.815502
C    -3.812101  -0.900352  5.064819
C    -4.833810  -2.039735  5.268685
N    -4.514903  -2.838796  6.435653
H    -1.320511  0.048265  5.958713
H    -0.308891  -0.959771  4.935109
H    -2.225460  -2.243717  5.557220
H    -2.350030  -1.934933  3.828223
H    -4.164032  -0.271390  4.230847
H    -3.812531  -0.263610  5.965261
H    -4.833801  -2.696392  4.387336
H    -5.838865  -1.582809  5.322436
H    -4.824234  -2.431661  7.316156
H    -4.832938  -3.802739  6.378790
N    -0.524831  3.014297  4.354134
C    0.400368  4.117883  4.625695
H    -1.513444  3.248745  4.298340
H    0.029051  4.690830  5.482628
H    0.457335  4.776433  3.749866
H    1.390490  3.715122  4.848431
Pb    2.049542  -0.608841  3.958006
