34
Energy: -608352.756923 eV PBE+vdW (tier 2 basis)
C    1.153348  1.257315  1.853877
C    0.740415  0.574644  3.109900
O    0.930018  1.153461  4.239582
H    2.179942  1.623069  2.003539
H    0.535075  2.149273  1.676227
H    1.130470  0.604570  0.977021
N    0.178392  -0.646344  3.092656
C    -0.936974  -0.993688  2.194810
C    -2.234117  -0.614212  2.958920
O    -2.149178  0.399314  3.822731
H    0.128320  -1.085173  4.013640
H    -0.869804  -0.306324  1.336831
C    -0.870815  -2.438043  1.685468
C    -1.579849  -2.611833  0.327304
C    -2.143262  -4.015157  0.063307
C    -3.176236  -4.498454  1.077702
N    -4.235557  -3.449508  1.328105
H    0.185942  -2.718112  1.585139
H    -1.292249  -3.102392  2.453692
H    -0.876082  -2.368762  -0.480497
H    -2.386974  -1.868691  0.230956
H    -1.335933  -4.761908  0.049199
H    -2.583819  -4.036329  -0.944842
H    -2.735244  -4.717113  2.057916
H    -3.676321  -5.408869  0.727608
H    -4.674153  -3.151984  0.447865
H    -4.982419  -3.824652  1.923802
N    -3.336872  -1.239362  2.734476
C    -4.541311  -0.778257  3.429803
H    -3.807476  -2.569871  1.825652
H    -5.415997  -1.311957  3.040229
H    -4.707225  0.298401  3.291584
H    -4.477682  -0.975030  4.510328
Pb    -1.055299  1.579536  5.295415
