34
Energy: -608351.432084 eV PBE+vdW (tier 2 basis)
C    0.761612  -0.018630  -0.003146
C    0.392062  -0.543168  1.345451
O    1.031199  -1.567358  1.854399
H    0.143765  0.833371  -0.303556
H    0.640681  -0.812275  -0.755316
H    1.814851  0.297141  -0.003090
N    -0.570152  0.017712  2.024814
C    -1.142309  -0.362701  3.316334
C    -2.553042  0.292381  3.243854
O    -2.735344  1.176070  2.393291
H    -1.170849  0.777585  1.623323
H    -1.215254  -1.458614  3.358467
C    -0.324166  0.142906  4.536312
C    -0.465174  1.622506  4.918201
C    0.114192  2.648419  3.936167
C    0.045842  4.085089  4.484174
N    -1.304649  4.552866  4.641929
H    0.732371  -0.116415  4.367447
H    -0.642771  -0.466197  5.395085
H    0.038622  1.743803  5.889784
H    -1.522207  1.862914  5.108721
H    -0.419998  2.622410  2.973514
H    1.170571  2.423493  3.722185
H    0.616124  4.744189  3.794844
H    0.549717  4.153586  5.458685
H    -1.472860  5.309067  5.298989
H    -1.894435  4.594001  3.814327
N    -3.461755  -0.128783  4.129405
C    -4.815568  0.417120  4.222066
H    -3.201935  -0.862563  4.780993
H    -5.547109  -0.398227  4.195385
H    -4.980528  1.081833  3.370210
H    -4.939430  0.981684  5.154736
Pb    2.479593  -3.100631  1.324116
