34
Energy: -608353.817544 eV PBE+vdW (tier 2 basis)
C    0.028143  -1.102143  0.602932
C    -0.657918  -1.209050  1.926856
O    -0.624194  -2.316110  2.548701
H    -0.087643  -0.123796  0.125370
H    -0.370574  -1.877935  -0.065079
H    1.097356  -1.317052  0.734546
N    -1.305827  -0.129370  2.386686
C    -2.159801  0.036988  3.583835
C    -1.279483  0.130711  4.842791
O    -0.736287  -0.912109  5.330674
H    -1.262425  0.683561  1.778465
H    -2.651818  1.001369  3.418791
C    -3.247427  -1.033871  3.815131
C    -3.920357  -1.652389  2.582984
C    -4.485802  -3.052326  2.865550
C    -3.473354  -4.193366  3.005768
N    -2.744640  -4.248518  4.333282
H    -4.005485  -0.567201  4.461720
H    -2.817307  -1.830480  4.430219
H    -3.216348  -1.726046  1.742419
H    -4.731788  -0.998548  2.236053
H    -5.136143  -3.332299  2.024471
H    -5.153593  -3.033342  3.743574
H    -2.714629  -4.141920  2.213295
H    -4.004270  -5.147399  2.885313
H    -3.401034  -3.994710  5.080795
H    -2.518619  -5.232316  4.521429
N    -1.091264  1.297919  5.437765
C    -1.616907  2.617624  5.062707
H    -0.503829  1.254770  6.271538
H    -1.292820  2.904218  4.055270
H    -1.211070  3.348918  5.766930
H    -2.710851  2.646429  5.134849
Pb    -0.471871  -3.126121  4.658057
