34
Energy: -608352.643846 eV PBE+vdW (tier 2 basis)
C    -0.665717  1.617041  0.557649
C    -0.863767  0.276546  1.179947
O    -0.057620  -0.669108  0.891782
H    0.330738  1.987509  0.839132
H    -1.419233  2.351557  0.860071
H    -0.668766  1.516209  -0.535837
N    -1.868632  0.106544  2.047543
C    -2.101499  -1.074439  2.901199
C    -2.826554  -2.149438  2.067747
O    -2.147196  -2.946573  1.334070
H    -2.457269  0.917865  2.227106
H    -1.113925  -1.500622  3.139595
C    -2.757649  -0.631460  4.220643
C    -2.647148  -1.621361  5.392648
C    -3.480602  -2.906357  5.323682
C    -3.409940  -3.688575  6.665004
N    -4.178422  -4.897401  6.727752
H    -3.809009  -0.332393  4.060318
H    -2.240413  0.293835  4.517413
H    -2.942971  -1.062599  6.293154
H    -1.584602  -1.872352  5.545258
H    -3.138108  -3.574339  4.515925
H    -4.537966  -2.667936  5.118909
H    -3.746204  -3.022214  7.473949
H    -2.357779  -3.932617  6.878684
H    -5.186504  -4.831131  6.808875
H    -3.851229  -5.715525  6.227726
N    -4.142153  -2.211812  2.095224
C    -4.973937  -3.148773  1.338809
H    -4.617821  -1.593261  2.748745
H    -4.365434  -3.648208  0.582413
H    -5.789476  -2.597134  0.858040
H    -5.399405  -3.896649  2.020282
Pb    -0.014791  -2.891829  0.544541
