34
Energy: -608352.769411 eV PBE+vdW (tier 2 basis)
C    1.535037  -1.330643  2.116174
C    0.617508  -0.394558  2.829825
O    1.025071  0.150781  3.906595
H    1.108734  -1.744972  1.196807
H    1.795282  -2.153877  2.796433
H    2.471143  -0.806190  1.880824
N    -0.596251  -0.172348  2.307623
C    -1.734784  0.599788  2.856069
C    -1.431218  2.107226  2.799446
O    -0.739386  2.672892  3.716437
H    -0.793395  -0.685058  1.452069
H    -2.554865  0.405284  2.154438
C    -2.239011  0.132092  4.227835
C    -3.522894  0.847522  4.669945
C    -4.215936  0.170130  5.863832
C    -4.960354  -1.124567  5.511274
N    -4.052822  -2.182609  5.033983
H    -1.465740  0.220201  5.028601
H    -2.442105  -0.956036  4.185324
H    -4.224571  0.861184  3.817666
H    -3.321008  1.903985  4.906920
H    -4.943806  0.873828  6.290881
H    -3.485764  -0.027265  6.667445
H    -5.682532  -0.915806  4.708675
H    -5.551709  -1.439239  6.387624
H    -3.600568  -2.656401  5.818019
H    -4.566475  -2.900265  4.522366
N    -1.895298  2.847455  1.810641
C    -2.720208  2.439684  0.665066
H    -1.645135  3.836232  1.870017
H    -2.228855  1.650558  0.084156
H    -2.841720  3.310954  0.015816
H    -3.715099  2.112893  0.991284
Pb    0.486539  1.764125  5.368415
