34
Energy: -608353.280631 eV PBE+vdW (tier 2 basis)
C    -0.956599  0.731320  0.203836
C    -0.229659  0.374693  1.457323
O    0.975760  -0.049120  1.361192
H    -1.972816  1.099828  0.377265
H    -1.003406  -0.163195  -0.434537
H    -0.382672  1.484974  -0.351474
N    -0.867978  0.491444  2.622216
C    -0.494671  0.041946  3.983896
C    0.555718  0.939145  4.641467
O    1.709382  1.162985  4.090547
H    -1.814906  0.854670  2.545530
H    -1.416957  0.186129  4.559249
C    -0.138434  -1.453420  4.095068
C    -0.177232  -1.966250  5.544467
C    -1.574702  -1.974042  6.218285
C    -1.741360  -1.085362  7.453928
N    -1.881799  0.366750  7.131074
H    0.853292  -1.661748  3.661712
H    -0.855712  -2.013806  3.477303
H    0.537472  -1.401082  6.162933
H    0.214419  -2.991155  5.524042
H    -1.797325  -3.000092  6.538313
H    -2.367882  -1.739160  5.487129
H    -0.867943  -1.192808  8.112164
H    -2.613873  -1.430328  8.027470
H    -2.797629  0.525109  6.699609
H    -1.925951  0.891080  8.010277
N    0.264516  1.422365  5.815859
C    1.188311  2.235731  6.604161
H    -0.657672  1.056210  6.306082
H    2.130554  1.701426  6.781426
H    0.714226  2.461025  7.563415
H    1.410694  3.176449  6.086063
Pb    2.884229  0.287102  2.445122
