34
Energy: -608352.868157 eV PBE+vdW (tier 2 basis)
C    -0.889278  1.802239  -0.730690
C    -1.195030  2.319750  0.633875
O    -0.944759  3.542152  0.906068
H    0.176334  1.953136  -0.949277
H    -1.450672  2.400352  -1.462879
H    -1.143386  0.745196  -0.860282
N    -1.746333  1.495850  1.530100
C    -2.297379  1.860969  2.847100
C    -1.156137  1.924490  3.880868
O    -0.377666  2.940352  3.907170
H    -1.925008  0.542886  1.219213
H    -2.677147  2.892659  2.763626
C    -3.474545  0.940957  3.200757
C    -4.674393  1.093584  2.255512
C    -5.859425  0.209725  2.662550
C    -7.007768  0.256843  1.644728
N    -6.606352  -0.297829  0.358632
H    -3.788921  1.177241  4.229017
H    -3.144045  -0.114166  3.202597
H    -4.396215  0.839934  1.220338
H    -4.991575  2.149499  2.243600
H    -6.246647  0.519545  3.644804
H    -5.525835  -0.835262  2.777019
H    -7.323742  1.297616  1.484471
H    -7.878320  -0.270094  2.077243
H    -6.547576  -1.315364  0.354992
H    -7.192799  0.003824  -0.416508
N    -0.993627  0.929524  4.728744
C    0.044370  0.833843  5.757881
H    -1.665098  0.165613  4.676728
H    0.678983  -0.037649  5.555832
H    -0.430869  0.711209  6.738273
H    0.649183  1.742439  5.750423
Pb    -0.125322  4.770934  2.599474
