34
Energy: -608351.140775 eV PBE+vdW (tier 2 basis)
C    -0.303009  -0.510787  -0.245985
C    0.028829  -0.470339  1.203072
O    1.270704  -0.562961  1.587966
H    -1.353472  -0.748908  -0.435761
H    0.327847  -1.253897  -0.747853
H    -0.098318  0.479979  -0.680496
N    -0.883614  -0.366223  2.145084
C    -2.317810  -0.042196  1.991895
C    -2.414166  1.251914  1.132021
O    -1.522995  2.094188  1.222868
H    -0.519936  -0.312117  3.097817
H    -2.808876  -0.895815  1.503485
C    -2.872938  0.122532  3.425234
C    -4.386963  0.346496  3.581165
C    -4.844665  1.808638  3.500685
C    -6.349664  1.950753  3.770307
N    -6.784105  3.317759  3.717857
H    -2.326200  0.950083  3.906354
H    -2.606006  -0.799288  3.964982
H    -4.664509  -0.047497  4.569770
H    -4.939535  -0.276166  2.860714
H    -4.621594  2.257073  2.522741
H    -4.287671  2.400519  4.244921
H    -6.577622  1.496840  4.760935
H    -6.938851  1.375992  3.039441
H    -7.776173  3.502114  3.601380
H    -6.307025  3.996989  4.305010
N    -3.466482  1.387651  0.289242
C    -4.612659  0.520849  0.040716
H    -3.462994  2.286977  -0.189580
H    -4.376805  -0.526653  0.254401
H    -4.885676  0.589515  -1.018153
H    -5.486230  0.811632  0.640860
Pb    3.387434  -0.254486  1.264761
