34
Energy: -608351.557078 eV PBE+vdW (tier 2 basis)
C    0.476683  -0.454936  0.657076
C    0.018276  -0.300175  2.065363
O    0.904297  -0.458388  3.019327
H    1.327083  0.215687  0.474739
H    -0.310685  -0.240837  -0.070337
H    0.833193  -1.483169  0.502541
N    -1.207891  -0.020679  2.410836
C    -2.409664  0.232232  1.608597
C    -3.290227  1.010049  2.638283
O    -3.025954  0.866561  3.840894
H    -1.487992  0.120780  3.415371
H    -2.162260  0.864691  0.743783
C    -3.056269  -1.100707  1.153475
C    -4.289982  -0.949393  0.256834
C    -4.777080  -2.305325  -0.274077
C    -6.043309  -2.200467  -1.138466
N    -7.201530  -1.787837  -0.385007
H    -3.307826  -1.684583  2.052070
H    -2.285025  -1.673386  0.614182
H    -4.054571  -0.291117  -0.597068
H    -5.113469  -0.475166  0.810051
H    -4.970331  -2.990345  0.567474
H    -3.993269  -2.780332  -0.882511
H    -6.208221  -3.189858  -1.614517
H    -5.895697  -1.486644  -1.961426
H    -7.974523  -1.392002  -0.913051
H    -7.517718  -2.419144  0.348039
N    -4.274353  1.771499  2.149254
C    -5.207045  2.524661  2.986477
H    -4.381531  1.836698  1.142261
H    -5.162631  3.590296  2.732999
H    -4.922186  2.386627  4.032507
H    -6.231074  2.160731  2.838050
Pb    2.371002  -0.532209  4.560723
