34
Energy: -608351.434846 eV PBE+vdW (tier 2 basis)
C    0.590154  2.018226  1.652795
C    0.484870  0.552123  1.413434
O    1.594515  -0.137198  1.293212
H    1.333829  2.211803  2.435799
H    -0.363056  2.468973  1.942569
H    0.943451  2.510471  0.734509
N    -0.644004  -0.091849  1.300669
C    -2.030478  0.367950  1.433876
C    -2.779738  -0.979420  1.664051
O    -2.159696  -2.036189  1.472647
H    -0.681688  -1.140081  1.202505
H    -2.121439  0.994143  2.334080
C    -2.541520  1.162507  0.207090
C    -2.514334  0.453751  -1.159184
C    -3.558843  -0.644200  -1.424286
C    -5.008300  -0.150058  -1.435740
N    -5.936729  -1.241733  -1.594392
H    -1.941963  2.082010  0.137194
H    -3.556314  1.511673  0.449679
H    -1.513889  0.026292  -1.328395
H    -2.623947  1.237337  -1.923957
H    -3.467012  -1.471893  -0.708416
H    -3.332377  -1.080852  -2.409349
H    -5.127986  0.608941  -2.239529
H    -5.269073  0.372103  -0.500472
H    -5.736495  -1.906407  -2.338902
H    -6.925978  -1.012089  -1.540042
N    -4.062788  -0.899843  2.032010
C    -4.930624  -2.068394  2.168458
H    -4.471854  0.016871  2.180405
H    -5.485958  -2.245257  1.235530
H    -5.637109  -1.901704  2.987545
H    -4.314973  -2.945045  2.388252
Pb    3.494066  -1.095351  1.407074
