34
Energy: -608351.57374 eV PBE+vdW (tier 2 basis)
C    -0.602375  0.497221  0.240592
C    -0.280265  0.016980  1.610865
O    0.875251  -0.616076  1.774061
H    -0.746491  -0.365124  -0.426452
H    0.242403  1.077445  -0.153593
H    -1.505400  1.113434  0.219199
N    -1.032539  0.168585  2.654154
C    -2.343705  0.799520  2.836381
C    -2.358872  0.941890  4.392832
O    -1.500305  0.286538  5.024451
H    -0.759148  -0.126994  3.654309
H    -2.359656  1.790623  2.361006
C    -3.471478  -0.109632  2.282471
C    -4.890806  0.447161  2.438742
C    -5.194147  1.735531  1.645891
C    -6.089301  2.705581  2.423920
N    -5.349344  3.336904  3.532823
H    -3.399172  -1.083635  2.788665
H    -3.262930  -0.291261  1.216371
H    -5.102319  0.600313  3.505862
H    -5.584233  -0.344056  2.122697
H    -5.679578  1.486913  0.692712
H    -4.269369  2.271741  1.371222
H    -6.947207  2.165989  2.846933
H    -6.498089  3.466221  1.737678
H    -5.979630  3.668137  4.264453
H    -4.818153  4.147115  3.207956
N    -3.258345  1.739798  4.952158
C    -3.345228  1.898675  6.403113
H    -3.952399  2.256889  4.372439
H    -2.386726  2.240271  6.811960
H    -3.609514  0.949329  6.885524
H    -4.116969  2.642067  6.621155
Pb    2.655412  -1.628200  2.223577
