34
Energy: -608352.180696 eV PBE+vdW (tier 2 basis)
C    0.374192  0.258136  0.444329
C    0.355001  0.362439  1.927668
O    1.453348  0.428722  2.577955
H    0.669199  1.221651  0.000658
H    -0.580118  -0.068067  0.021235
H    1.162409  -0.456150  0.167891
N    -0.806654  0.388760  2.614304
C    -1.950168  1.228118  2.251302
C    -1.507184  2.694896  2.448462
O    -0.457298  2.975692  3.131735
H    -0.696508  0.263195  3.622487
H    -2.188804  1.063810  1.190306
C    -3.173196  0.862629  3.117451
C    -3.717736  -0.539457  2.824390
C    -4.919322  -0.896627  3.708580
C    -5.533737  -2.261185  3.360098
N    -6.112109  -2.273304  2.029272
H    -3.960360  1.610221  2.948182
H    -2.892759  0.964808  4.180291
H    -2.924318  -1.290537  2.968274
H    -4.018907  -0.605598  1.766743
H    -5.696101  -0.119471  3.618110
H    -4.623211  -0.912801  4.768370
H    -6.279798  -2.510918  4.139055
H    -4.764507  -3.045189  3.405707
H    -6.220028  -3.197105  1.617928
H    -6.975123  -1.740946  1.933983
N    -2.210972  3.687392  1.932457
C    -3.431614  3.637164  1.124143
H    -1.854791  4.618342  2.155357
H    -4.309933  3.859075  1.743879
H    -3.554752  2.656875  0.655961
H    -3.355975  4.393297  0.335407
Pb    1.605856  2.302758  3.902727
