34
Energy: -608352.058063 eV PBE+vdW (tier 2 basis)
C    -0.544200  -0.207606  -0.439366
C    -0.323683  -0.033989  1.013391
O    0.850614  0.328580  1.419877
H    0.211304  0.385295  -0.968230
H    -1.561744  0.039746  -0.795399
H    -0.363303  -1.263205  -0.707714
N    -1.260398  -0.234543  1.960621
C    -2.189001  -1.375060  2.036566
C    -1.324657  -2.621374  2.332498
O    -0.040085  -2.578129  2.232066
H    -0.970027  0.118453  2.873334
H    -2.797739  -1.186513  2.935745
C    -3.172072  -1.508030  0.853033
C    -4.150646  -0.325267  0.810179
C    -5.099296  -0.339277  -0.403582
C    -4.607621  0.471990  -1.602392
N    -3.336446  -0.034067  -2.147996
H    -3.737245  -2.440024  0.983307
H    -2.632195  -1.616828  -0.093943
H    -3.591801  0.623814  0.821848
H    -4.743782  -0.337738  1.737803
H    -6.068775  0.079341  -0.101082
H    -5.313069  -1.376180  -0.712094
H    -4.444759  1.515490  -1.295078
H    -5.405844  0.492166  -2.365121
H    -2.983271  0.599115  -2.867655
H    -3.477581  -0.936095  -2.608652
N    -1.879348  -3.757169  2.714952
C    -3.285995  -4.068222  2.988020
H    -1.215762  -4.520518  2.856254
H    -3.750548  -4.554460  2.120834
H    -3.845652  -3.166077  3.250638
H    -3.320585  -4.758033  3.837945
Pb    1.888337  -1.363716  2.461518
