34
Energy: -608351.520161 eV PBE+vdW (tier 2 basis)
C    0.169088  -0.121455  -0.505438
C    -0.218677  0.404726  0.829393
O    0.711649  0.857347  1.622402
H    -0.694597  -0.435505  -1.099981
H    0.832885  -0.986845  -0.356206
H    0.750801  0.629792  -1.055656
N    -1.473229  0.390699  1.220593
C    -1.994055  0.662922  2.560419
C    -3.464668  0.134940  2.464626
O    -3.985263  0.087934  1.346150
H    -2.241851  0.082625  0.595208
H    -1.431636  0.048608  3.279033
C    -1.932745  2.148830  3.019812
C    -1.813339  3.249219  1.954871
C    -3.047172  3.452942  1.042834
C    -4.259922  4.016449  1.799866
N    -4.795525  3.080650  2.785478
H    -1.129653  2.234867  3.805883
H    -2.852801  2.388177  3.595034
H    -0.963477  3.069127  1.234354
H    -1.613369  4.209650  2.462516
H    -3.314335  2.507728  0.549779
H    -2.779445  4.161592  0.247987
H    -5.007347  4.297347  1.035323
H    -3.983684  4.946223  2.317470
H    -5.385453  3.547157  3.473889
H    -5.343470  2.339068  2.347282
N    -4.038226  -0.231683  3.615090
C    -5.412221  -0.727717  3.708112
H    -3.495016  -0.189734  4.471708
H    -5.422707  -1.697184  4.218760
H    -5.808228  -0.849241  2.696403
H    -6.037579  -0.021266  4.268451
Pb    0.985133  2.742581  2.675932
