34
Energy: -608352.007794 eV PBE+vdW (tier 2 basis)
C    0.109812  0.001631  -0.277447
C    0.016891  -0.260252  1.182839
O    1.079466  -0.391066  1.878620
H    0.546491  0.995045  -0.459347
H    -0.847239  -0.092405  -0.797771
H    0.823787  -0.721591  -0.699192
N    -1.180023  -0.365639  1.802001
C    -2.282831  0.587028  1.623933
C    -1.725467  1.970439  2.021218
O    -0.773474  2.046718  2.881672
H    -1.125772  -0.753758  2.746111
H    -2.604882  0.584304  0.574743
C    -3.444309  0.137617  2.548441
C    -4.806606  0.813553  2.356306
C    -5.528117  0.438851  1.057561
C    -6.917875  1.082219  0.948730
N    -7.545700  0.761803  -0.314232
H    -3.112870  0.267914  3.591638
H    -3.554006  -0.945468  2.382161
H    -4.718522  1.906888  2.456989
H    -5.427828  0.504775  3.210194
H    -5.631108  -0.657274  1.004118
H    -4.952354  0.730731  0.163584
H    -6.833596  2.177601  1.015760
H    -7.527418  0.766755  1.820637
H    -7.773622  -0.220898  -0.451829
H    -8.334800  1.351722  -0.566116
N    -2.206006  3.094291  1.519291
C    -3.233502  3.315864  0.500177
H    -1.771278  3.936655  1.901718
H    -4.112451  3.791595  0.951698
H    -3.537498  2.376058  0.035474
H    -2.826816  3.982257  -0.269456
Pb    1.168075  1.077091  3.652746
