34
Energy: -608352.8484 eV PBE+vdW (tier 2 basis)
C    0.040788  -0.573375  0.092801
C    -0.099120  -0.129649  1.509405
O    0.864108  0.499524  2.062158
H    0.214672  0.313133  -0.534202
H    -0.836363  -1.110919  -0.281903
H    0.930692  -1.209433  -0.004565
N    -1.242096  -0.379834  2.158190
C    -1.635782  0.144136  3.479115
C    -1.000707  -0.730434  4.578960
O    0.210603  -0.522443  4.934275
H    -1.961280  -0.878646  1.637594
H    -1.170419  1.137029  3.586954
C    -3.158843  0.324403  3.541190
C    -3.644037  1.105429  4.769006
C    -5.162796  1.321837  4.761663
C    -5.640932  2.226267  5.906334
N    -5.095770  3.570257  5.790502
H    -3.670690  -0.652968  3.462673
H    -3.449013  0.872623  2.631363
H    -3.151331  2.090262  4.796310
H    -3.356396  0.590709  5.700785
H    -5.689971  0.358217  4.833773
H    -5.468195  1.767754  3.800737
H    -5.321345  1.811187  6.873312
H    -6.747116  2.217979  5.914913
H    -5.513266  4.120705  5.041302
H    -5.124934  4.103147  6.656825
N    -1.709162  -1.695903  5.127520
C    -1.243897  -2.631375  6.153696
H    -2.678013  -1.783038  4.826365
H    -1.889866  -2.550739  7.035974
H    -0.215035  -2.389309  6.426406
H    -1.295384  -3.655622  5.764770
Pb    1.903895  0.694947  4.046362
