34
Energy: -608353.231214 eV PBE+vdW (tier 2 basis)
C    -1.780913  -1.678106  0.436183
C    -1.613139  -1.191548  1.846275
O    -1.247569  0.073003  1.930077
H    -2.147050  -2.707864  0.388272
H    -0.828254  -1.590572  -0.104178
H    -2.498095  -1.033405  -0.088927
N    -1.817925  -2.018885  2.834109
C    -1.623853  -1.686940  4.253393
C    -2.525902  -0.539435  4.736227
O    -2.153748  0.687011  4.731634
H    -1.563439  -3.521865  2.595005
H    -1.989272  -2.569613  4.804707
C    -0.140434  -1.502979  4.647408
C    0.616695  -2.805747  4.965927
C    0.860998  -3.852736  3.858233
C    -0.223232  -4.917409  3.628719
N    -1.174360  -4.579638  2.504854
H    -0.086446  -0.874130  5.548177
H    0.390950  -0.962881  3.847068
H    0.133099  -3.297322  5.825983
H    1.603925  -2.497490  5.336660
H    1.762210  -4.408903  4.148684
H    1.128873  -3.367897  2.904993
H    -0.834645  -5.068194  4.527594
H    0.231005  -5.883460  3.379907
H    -1.957244  -5.242432  2.473445
H    -0.690983  -4.652976  1.602392
N    -3.716932  -0.860264  5.209972
C    -4.720404  0.079581  5.713319
H    -3.961859  -1.847373  5.218406
H    -5.494930  0.248768  4.954030
H    -4.237292  1.026257  5.965665
H    -5.184796  -0.345867  6.609002
Pb    -0.983039  1.801311  3.187789
