34
Energy: -608353.859614 eV PBE+vdW (tier 2 basis)
C    -0.608716  0.209402  -0.099332
C    -0.751439  -0.106590  1.356572
O    0.056679  -0.933042  1.880088
H    -0.721725  -0.719872  -0.674367
H    0.408702  0.577770  -0.286857
H    -1.332218  0.946107  -0.463372
N    -1.731972  0.513612  2.030452
C    -2.187957  0.399615  3.433959
C    -1.053046  0.508140  4.468030
O    -0.374952  -0.500369  4.849606
H    -2.294515  1.143068  1.464079
H    -2.793779  1.304985  3.572679
C    -3.123203  -0.804186  3.727033
C    -2.861270  -2.122368  2.969705
C    -3.053688  -3.378936  3.828311
C    -1.962096  -3.634551  4.861360
N    -0.620273  -3.879973  4.218133
H    -4.148241  -0.474857  3.514214
H    -3.093751  -0.965239  4.814757
H    -1.858358  -2.136017  2.525642
H    -3.543224  -2.180034  2.111608
H    -3.136940  -4.259470  3.171385
H    -4.013773  -3.328917  4.362939
H    -2.225599  -4.515855  5.461828
H    -1.844920  -2.791501  5.556068
H    -0.755606  -4.461658  3.382024
H    -0.061828  -4.464341  4.851069
N    -0.881107  1.692754  5.034567
C    0.082044  2.003134  6.092099
H    -1.480485  2.454710  4.725380
H    -0.424080  2.575071  6.877583
H    0.904044  2.606227  5.685607
H    0.473593  1.073467  6.510213
Pb    0.938699  -1.968285  3.716936
