34
Energy: -608352.151722 eV PBE+vdW (tier 2 basis)
C    1.051902  2.842011  1.081594
C    0.777158  1.788864  2.093910
O    1.544458  1.663602  3.109643
H    0.848514  3.837955  1.503727
H    0.490786  2.708325  0.152670
H    2.129634  2.821324  0.863754
N    -0.271799  0.948760  1.968594
C    -1.629262  1.377429  1.627026
C    -2.110878  2.286985  2.780232
O    -1.528160  2.289372  3.920934
H    -0.238186  0.139624  2.592416
H    -1.600590  1.965063  0.698373
C    -2.513131  0.121207  1.423834
C    -3.938627  0.340370  0.907659
C    -4.049777  1.037923  -0.454365
C    -5.455104  0.901009  -1.070862
N    -5.773591  -0.485417  -1.349487
H    -2.550619  -0.434713  2.375318
H    -1.963749  -0.510067  0.708645
H    -4.556606  0.855910  1.660941
H    -4.392842  -0.656736  0.806581
H    -3.312061  0.610542  -1.154042
H    -3.814174  2.116656  -0.396531
H    -5.505475  1.536648  -1.974757
H    -6.209318  1.290396  -0.372055
H    -6.766067  -0.704983  -1.360671
H    -5.314680  -0.876283  -2.169871
N    -3.159973  3.059566  2.573851
C    -3.760644  3.940837  3.581743
H    -3.597630  3.020473  1.655937
H    -3.035798  4.696057  3.907517
H    -4.090903  3.357279  4.448889
H    -4.621387  4.440840  3.131089
Pb    0.404830  1.836659  5.093110
