34
Energy: -608351.300519 eV PBE+vdW (tier 2 basis)
C    0.813328  -0.377034  0.390070
C    0.162190  -0.780463  1.662538
O    0.511968  -1.938066  2.199849
H    0.239590  0.392883  -0.150673
H    0.950804  -1.254139  -0.253084
H    1.813856  0.024598  0.616069
N    -0.713162  -0.063423  2.300382
C    -1.314995  1.239126  1.981825
C    -1.855717  1.640762  3.392272
O    -2.090153  0.703973  4.176721
H    -1.146680  -0.354451  3.220489
H    -0.550843  1.925131  1.595869
C    -2.469707  1.030954  0.965359
C    -3.189284  2.288311  0.464567
C    -2.413730  3.233410  -0.466661
C    -1.946876  2.615304  -1.791942
N    -0.638529  1.958636  -1.688629
H    -3.203269  0.362195  1.439799
H    -2.049485  0.484305  0.108598
H    -3.590819  2.860021  1.313711
H    -4.081384  1.934841  -0.075056
H    -1.544363  3.687073  0.036798
H    -3.079186  4.076051  -0.700295
H    -1.919017  3.411303  -2.559605
H    -2.674927  1.872941  -2.149700
H    -0.421908  1.415349  -2.525391
H    0.112230  2.639044  -1.557511
N    -2.072047  2.920878  3.713522
C    -1.724250  4.144529  3.000404
H    -2.481186  3.032392  4.640702
H    -1.010724  3.937481  2.198502
H    -1.252059  4.843272  3.700486
H    -2.612414  4.625407  2.570839
Pb    1.022454  -3.707064  3.221421
