34
Energy: -608352.665262 eV PBE+vdW (tier 2 basis)
C    -0.107634  -0.829335  0.011005
C    -0.180563  -0.373869  1.428436
O    0.863801  0.113403  1.978676
H    0.189338  0.023298  -0.616435
H    -1.053017  -1.237479  -0.361017
H    0.682365  -1.585924  -0.088253
N    -1.341798  -0.467937  2.085189
C    -1.624493  0.076030  3.422541
C    -0.993308  -0.820797  4.507741
O    0.169292  -0.498100  4.957274
H    -2.136738  -0.835772  1.566007
H    -1.063458  1.021054  3.506114
C    -3.112306  0.421562  3.578705
C    -3.486211  1.721612  2.849892
C    -4.970128  2.105481  2.969343
C    -5.438467  2.523378  4.368187
N    -5.519769  1.392761  5.301429
H    -3.360810  0.522499  4.645272
H    -3.736665  -0.405375  3.206688
H    -3.234307  1.637848  1.779702
H    -2.868901  2.545707  3.245974
H    -5.603820  1.283201  2.597062
H    -5.153338  2.948885  2.288902
H    -6.407579  3.044422  4.264185
H    -4.738709  3.260274  4.790406
H    -6.304957  0.780033  5.076318
H    -5.650371  1.709269  6.262240
N    -1.568836  -1.893605  5.015235
C    -2.867902  -2.511090  4.725852
H    -1.009380  -2.349516  5.738501
H    -2.826865  -3.545098  5.080145
H    -3.066226  -2.525078  3.650301
H    -3.675869  -1.987162  5.250711
Pb    1.909936  0.496142  3.933605
