34
Energy: -608353.376158 eV PBE+vdW (tier 2 basis)
C    -0.346008  -0.816127  0.336697
C    -1.158254  -0.739383  1.586673
O    -2.066319  -1.619429  1.786935
H    -1.010598  -0.797478  -0.536845
H    0.171856  -1.785999  0.319602
H    0.394541  -0.014220  0.250770
N    -0.897467  0.225430  2.467717
C    -1.418157  0.365992  3.843028
C    -2.764017  1.111287  3.859235
O    -3.770175  0.516347  3.231218
H    -0.168736  0.883974  2.202582
H    -1.631966  -0.656627  4.197351
C    -0.327581  0.964199  4.742329
C    0.348610  2.252687  4.217332
C    0.823776  3.212142  5.326545
C    -0.188933  4.277908  5.728971
N    -1.473385  3.695569  6.269402
H    0.440010  0.195717  4.908183
H    -0.790161  1.119957  5.725177
H    -0.326707  2.805515  3.544462
H    1.226101  1.975480  3.615913
H    1.709781  3.763029  4.982326
H    1.159631  2.645743  6.209726
H    -0.475078  4.894136  4.866602
H    0.225474  4.942586  6.496730
H    -2.119682  4.446813  6.537089
H    -1.986747  3.047001  5.520163
N    -2.906107  2.231996  4.479306
C    -4.227803  2.866337  4.448396
H    -1.297265  3.145689  7.118338
H    -4.570472  3.037377  3.419375
H    -4.179027  3.835371  4.958015
H    -4.982213  2.247279  4.954811
Pb    -4.208919  -1.452297  2.433845
