34
Energy: -608352.824198 eV PBE+vdW (tier 2 basis)
C    -3.536123  -0.554659  0.328425
C    -2.588425  0.267554  1.137412
O    -1.430280  -0.203893  1.382394
H    -4.508491  -0.076093  0.173216
H    -3.684745  -1.518170  0.836138
H    -3.079298  -0.778111  -0.645240
N    -3.001385  1.461384  1.579842
C    -2.345701  2.406446  2.513813
C    -1.194988  3.156127  1.829524
O    -0.079536  2.584504  1.580302
H    -3.948973  1.711908  1.310509
H    -3.130362  3.142415  2.737065
C    -1.927324  1.805196  3.870318
C    -3.067446  1.136775  4.631503
C    -2.650449  0.625841  6.016305
C    -3.858864  0.136461  6.823898
N    -4.831703  1.207523  7.001661
H    -1.504317  2.630965  4.463599
H    -1.092515  1.078201  3.753001
H    -3.485581  0.303455  4.044752
H    -3.891834  1.857276  4.780191
H    -2.148105  1.434199  6.573299
H    -1.920673  -0.194366  5.930771
H    -3.500494  -0.282574  7.782049
H    -4.355097  -0.687650  6.290970
H    -5.760695  0.873262  7.249347
H    -4.542966  1.908054  7.683817
N    -1.374442  4.431171  1.534707
C    -0.381048  5.315103  0.918794
H    -2.281137  4.840808  1.748709
H    -0.328618  6.246265  1.493846
H    -0.679590  5.545141  -0.111739
H    0.593389  4.822525  0.918636
Pb    0.655817  0.470954  1.866163
