34
Energy: -608351.415437 eV PBE+vdW (tier 2 basis)
C    -0.392649  0.648679  -0.301880
C    -0.118846  0.640468  1.167141
O    0.868729  1.349770  1.659845
H    -0.609344  1.674831  -0.633112
H    -1.241535  0.013269  -0.573575
H    0.492807  0.287418  -0.846314
N    -0.862975  -0.074125  1.963344
C    -0.784770  -0.284077  3.411161
C    -1.462937  -1.683161  3.542821
O    -2.256212  -2.011239  2.650684
H    -1.619506  -0.706002  1.602239
H    0.266707  -0.296247  3.730767
C    -1.579700  0.819101  4.155632
C    -1.531229  0.712891  5.684715
C    -2.249665  1.869678  6.402934
C    -3.783528  1.807597  6.357035
N    -4.310473  0.674470  7.073065
H    -1.166363  1.791463  3.845199
H    -2.617467  0.783731  3.791730
H    -0.480409  0.701177  6.015417
H    -1.982495  -0.233770  6.016490
H    -1.933031  2.837591  5.986387
H    -1.931106  1.881682  7.456439
H    -4.164119  1.767520  5.325972
H    -4.171708  2.759198  6.780243
H    -4.064055  0.594019  8.057463
H    -5.273659  0.409550  6.885409
N    -1.149877  -2.423846  4.612445
C    -1.738141  -3.734914  4.884473
H    -0.467504  -2.061850  5.270429
H    -2.384575  -4.004322  4.045271
H    -2.333110  -3.703229  5.805593
H    -0.946884  -4.485791  4.992017
Pb    2.534366  2.534348  0.914726
