34
Energy: -608351.348053 eV PBE+vdW (tier 2 basis)
C    0.226926  0.968668  0.527307
C    -0.074332  -0.111400  1.514166
O    0.879641  -0.902327  1.940167
H    -0.662234  1.546033  0.255390
H    0.642437  0.526514  -0.390366
H    0.974479  1.657424  0.946807
N    -1.290660  -0.270795  1.957276
C    -1.825347  -1.289055  2.863429
C    -3.337515  -1.269546  2.496388
O    -3.758041  -0.287464  1.863168
H    -2.104695  0.272790  1.578245
H    -1.364561  -2.254590  2.614124
C    -1.572141  -0.974335  4.365042
C    -2.517983  0.024687  5.044803
C    -2.415363  1.486696  4.592071
C    -3.342234  2.414583  5.396509
N    -4.734363  2.138983  5.165032
H    -0.525988  -0.647893  4.467857
H    -1.636333  -1.931318  4.900874
H    -2.304524  -0.024178  6.123890
H    -3.560860  -0.312556  4.940537
H    -2.667617  1.591525  3.525356
H    -1.384975  1.854519  4.714276
H    -3.096095  3.464547  5.128067
H    -3.147265  2.322242  6.474445
H    -5.402521  2.437741  5.869503
H    -5.083425  2.218037  4.212863
N    -4.120634  -2.282590  2.887049
C    -3.767192  -3.471185  3.656681
H    -5.099448  -2.164200  2.631701
H    -4.452812  -4.279790  3.384537
H    -3.848755  -3.295121  4.738134
H    -2.751605  -3.807377  3.419989
Pb    2.968284  -1.378304  1.556582
