34
Energy: -608352.63125 eV PBE+vdW (tier 2 basis)
C    -0.916872  -0.299148  -0.099270
C    -0.688279  -0.347740  1.376028
O    0.403141  -0.840138  1.808590
H    -1.887560  0.122653  -0.379540
H    -0.837863  -1.319974  -0.498920
H    -0.115685  0.286778  -0.569882
N    -1.651950  0.119921  2.180727
C    -1.788832  0.045445  3.653276
C    -0.847467  1.026611  4.358658
O    0.418698  0.846453  4.380817
H    -2.468724  0.480762  1.695412
H    -2.814899  0.386176  3.835111
C    -1.683896  -1.372145  4.253106
C    -2.718718  -2.356430  3.696583
C    -2.619932  -3.732940  4.363835
C    -3.652543  -4.731733  3.820170
N    -3.495412  -6.027876  4.441353
H    -1.816480  -1.264335  5.341292
H    -0.673060  -1.790744  4.115262
H    -2.585146  -2.467377  2.608659
H    -3.729903  -1.942259  3.845075
H    -2.756779  -3.626602  5.452318
H    -1.616010  -4.160022  4.215177
H    -3.515052  -4.858247  2.736324
H    -4.670903  -4.312376  3.959494
H    -3.732527  -6.074182  5.429840
H    -3.906331  -6.806095  3.932929
N    -1.342587  2.068808  5.005208
C    -2.741681  2.495606  5.143733
H    -0.640196  2.637987  5.480274
H    -2.745034  3.458104  5.662493
H    -3.317300  1.780281  5.743877
H    -3.212064  2.638541  4.164022
Pb    1.902217  -0.583715  3.463164
