34
Energy: -608352.639288 eV PBE+vdW (tier 2 basis)
C    0.681461  -0.859309  2.163438
C    0.605482  0.239939  3.160008
O    1.685758  0.771078  3.608276
H    1.013514  -0.470498  1.188631
H    -0.261776  -1.399927  2.046125
H    1.465239  -1.555948  2.494787
N    -0.574957  0.702872  3.611515
C    -1.700877  1.039240  2.736664
C    -1.284050  2.258505  1.882004
O    -0.201248  2.934515  2.143351
H    -0.508042  1.291067  4.444644
H    -1.859927  0.203414  2.042606
C    -2.986713  1.279469  3.561476
C    -3.879950  0.033889  3.689502
C    -4.960481  -0.138770  2.609525
C    -4.538723  -0.274198  1.141999
N    -4.278745  1.038523  0.468230
H    -3.553039  2.107078  3.115158
H    -2.685643  1.637979  4.558356
H    -4.395230  0.081080  4.658229
H    -3.249287  -0.868801  3.742669
H    -5.694366  0.680668  2.693636
H    -5.524010  -1.047313  2.864125
H    -5.333559  -0.807708  0.601644
H    -3.633063  -0.892619  1.040956
H    -4.244867  0.874769  -0.542935
H    -5.101890  1.634393  0.604219
N    -2.073072  2.569128  0.896864
C    -1.852201  3.696109  -0.007427
H    -2.981558  1.929208  0.749436
H    -2.715541  3.775814  -0.674184
H    -0.950066  3.540764  -0.613219
H    -1.745026  4.631793  0.554553
Pb    1.770034  3.008447  3.186750
