34
Energy: -608351.452442 eV PBE+vdW (tier 2 basis)
C    -0.220849  -1.556450  0.227713
C    -0.111592  -1.001573  1.605601
O    0.973783  -1.271726  2.292028
H    -1.111957  -1.208706  -0.301285
H    -0.248407  -2.654281  0.280583
H    0.671592  -1.280808  -0.349685
N    -1.029448  -0.275028  2.179497
C    -2.297744  0.253332  1.663989
C    -2.554140  1.430292  2.655013
O    -1.882274  1.455641  3.699305
H    -0.894154  0.159261  3.131963
H    -2.145523  0.634209  0.644598
C    -3.442028  -0.790012  1.667750
C    -3.937471  -1.221354  3.051172
C    -5.047862  -2.275902  2.955248
C    -5.648133  -2.654808  4.318825
N    -6.399227  -1.577019  4.913314
H    -3.104975  -1.665905  1.091350
H    -4.274408  -0.363040  1.090189
H    -4.317457  -0.350112  3.606469
H    -3.102662  -1.623235  3.648348
H    -4.664221  -3.194499  2.486564
H    -5.855712  -1.915048  2.297557
H    -4.858380  -2.952243  5.023030
H    -6.286735  -3.550549  4.170994
H    -7.243846  -1.284501  4.427026
H    -6.519193  -1.597171  5.922090
N    -3.485094  2.345555  2.360199
C    -4.324249  2.461328  1.171350
H    -3.605852  3.049543  3.086244
H    -3.822020  2.047530  0.290388
H    -4.509424  3.522541  0.975663
H    -5.291772  1.958837  1.305916
Pb    2.916216  -1.427861  3.153899
