34
Energy: -608353.064437 eV PBE+vdW (tier 2 basis)
C    -0.969411  2.128760  -0.924899
C    -0.759768  1.260737  0.262057
O    0.414056  0.963040  0.657772
H    -1.990379  2.088556  -1.315694
H    -0.261888  1.816505  -1.705692
H    -0.706258  3.168742  -0.676640
N    -1.800437  0.761394  0.967799
C    -2.988976  1.495925  1.380981
C    -2.528126  2.760436  2.125815
O    -1.391700  2.778682  2.713617
H    -1.527537  0.011857  1.600017
H    -3.583562  1.755091  0.495748
C    -3.843154  0.636911  2.365797
C    -3.749667  -0.898380  2.191240
C    -2.906802  -1.683601  3.218868
C    -1.375893  -1.566503  3.240687
N    -0.836660  -0.339870  3.959259
H    -4.883757  0.959096  2.241645
H    -3.580342  0.912120  3.398937
H    -3.439050  -1.155008  1.166721
H    -4.769536  -1.294970  2.275622
H    -3.113340  -2.749436  3.041857
H    -3.288384  -1.491312  4.235942
H    -0.941232  -1.608412  2.228354
H    -0.970053  -2.444535  3.757669
H    -0.246219  -0.667218  4.731078
H    -1.615609  0.139109  4.423551
N    -3.316543  3.817905  2.212721
C    -4.667445  4.012959  1.678489
H    -2.939502  4.579904  2.779018
H    -4.861199  3.338979  0.839569
H    -4.755900  5.044392  1.321729
H    -5.416186  3.842185  2.462392
Pb    0.572439  1.526665  2.921994
