34
Energy: -608353.740847 eV PBE+vdW (tier 2 basis)
C    0.186471  0.495788  1.044890
C    -0.695256  -0.511150  1.702342
O    -0.270691  -1.695245  1.886245
H    -0.268790  1.489156  0.975062
H    0.446929  0.142341  0.037783
H    1.127037  0.566359  1.608381
N    -1.922062  -0.132452  2.108651
C    -2.799406  -1.026073  2.863768
C    -3.629990  -1.887362  1.896761
O    -3.162694  -3.019388  1.538771
H    -2.205339  0.830346  1.942444
H    -2.105836  -1.746807  3.304950
C    -3.533642  -0.388239  4.062059
C    -3.211608  -1.186375  5.341872
C    -3.499749  -2.708509  5.229970
C    -2.340111  -3.650016  5.554858
N    -1.134672  -3.517484  4.652747
H    -4.620578  -0.363540  3.901631
H    -3.214716  0.655484  4.187512
H    -3.778164  -0.758704  6.177746
H    -2.153656  -1.006557  5.596942
H    -3.903197  -2.968250  4.238853
H    -4.305161  -2.976748  5.926891
H    -2.679461  -4.690496  5.478672
H    -2.004247  -3.493737  6.591196
H    -0.439392  -4.196998  4.984647
H    -0.689459  -2.607203  4.819599
N    -4.783144  -1.441003  1.436105
C    -5.646492  -2.135003  0.475728
H    -5.109647  -0.541139  1.782177
H    -5.769307  -1.513822  -0.419513
H    -6.629282  -2.309693  0.929275
H    -5.188854  -3.088369  0.204214
Pb    -1.086831  -3.860113  2.106771
