34
Energy: -608351.241257 eV PBE+vdW (tier 2 basis)
C    0.500549  0.083699  0.860087
C    0.001079  0.202506  2.256376
O    0.873374  0.170107  3.233396
H    -0.284682  0.101665  0.107265
H    1.017929  -0.880658  0.756538
H    1.223119  0.894474  0.678019
N    -1.251332  0.389607  2.635074
C    -2.527816  0.332144  1.890514
C    -2.730515  -1.135260  1.406958
O    -1.807317  -1.721738  0.847361
H    -1.352949  0.463094  3.647901
H    -3.279691  0.579637  2.652856
C    -2.647381  1.385827  0.767651
C    -4.060941  1.520672  0.168943
C    -4.340750  0.623811  -1.045538
C    -5.729738  0.865858  -1.660285
N    -5.865111  2.180900  -2.229643
H    -1.935863  1.172260  -0.040293
H    -2.347407  2.346768  1.209484
H    -4.195197  2.566671  -0.140515
H    -4.822857  1.352267  0.948823
H    -4.272009  -0.442018  -0.786975
H    -3.572882  0.798040  -1.816844
H    -6.518816  0.737924  -0.905526
H    -5.904120  0.081903  -2.427401
H    -5.260877  2.419522  -3.012278
H    -6.800814  2.566931  -2.314807
N    -3.954317  -1.647860  1.642774
C    -4.364387  -2.974927  1.191146
H    -4.635779  -1.080654  2.135253
H    -4.767071  -3.550239  2.032698
H    -3.487194  -3.486604  0.785765
H    -5.131708  -2.899837  0.409527
Pb    2.966326  -0.190295  3.683046
