34
Energy: -608352.703633 eV PBE+vdW (tier 2 basis)
C    -0.460409  -0.338899  -0.666542
C    -0.069560  -0.092930  0.747893
O    1.149276  0.189626  1.031477
H    -0.329753  0.569643  -1.271554
H    -1.478229  -0.722900  -0.775696
H    0.245686  -1.078813  -1.073139
N    -0.969052  -0.173986  1.745538
C    -2.265284  0.531371  1.686882
C    -2.014977  1.912619  2.336591
O    -0.829976  2.479641  2.099193
H    -0.543613  -0.193099  2.674003
H    -2.460965  0.724639  0.620265
C    -3.437309  -0.264655  2.266249
C    -4.786153  0.123153  1.616939
C    -6.014901  -0.035037  2.529707
C    -6.402418  1.224739  3.293305
N    -5.308551  1.706329  4.222190
H    -3.450751  -0.139748  3.358613
H    -3.245712  -1.331631  2.093058
H    -4.925124  -0.497262  0.721958
H    -4.747648  1.161364  1.251372
H    -5.883860  -0.881382  3.222888
H    -6.894449  -0.292818  1.923613
H    -7.300219  1.062794  3.902104
H    -6.602528  2.056737  2.605700
H    -5.609588  2.553362  4.718217
H    -5.106718  1.000490  4.940240
N    -2.928343  2.476419  3.046463
C    -2.671881  3.821169  3.566350
H    -4.372844  1.936215  3.692258
H    -1.937067  3.795150  4.385355
H    -3.602694  4.243355  3.962071
H    -2.289249  4.496221  2.789974
Pb    1.334921  2.300460  1.902826
