34
Energy: -608353.789654 eV PBE+vdW (tier 2 basis)
C    -0.128321  -1.046985  0.606004
C    -0.474103  -1.032565  2.061216
O    -0.040447  -1.969427  2.797772
H    -0.545364  -0.203191  0.046760
H    -0.492812  -1.984811  0.164470
H    0.964645  -1.048908  0.497960
N    -1.249350  -0.034894  2.507861
C    -1.811806  0.247581  3.849170
C    -0.703230  0.600530  4.856795
O    0.004204  -0.307219  5.393383
H    -1.513447  0.639311  1.795073
H    -2.413909  1.149570  3.678950
C    -2.751656  -0.807678  4.469626
C    -3.709413  -1.553913  3.525649
C    -3.272627  -2.982415  3.160606
C    -3.012178  -3.895053  4.372685
N    -1.551493  -4.187822  4.594083
H    -3.322988  -0.259276  5.232158
H    -2.166895  -1.536427  5.050666
H    -3.884863  -0.976983  2.606372
H    -4.689457  -1.612896  4.018344
H    -2.383457  -2.977214  2.514111
H    -4.068363  -3.431199  2.552351
H    -3.529855  -4.855549  4.244628
H    -3.399015  -3.454036  5.300829
H    -1.480555  -4.857867  5.369569
H    -1.213403  -4.706670  3.773627
N    -0.537227  1.875166  5.171014
C    0.442589  2.391329  6.130023
H    -1.136589  2.557210  4.712347
H    -0.050363  3.115750  6.787321
H    1.262035  2.889109  5.596276
H    0.839039  1.563530  6.721997
Pb    0.395023  -2.555969  4.940067
