34
Energy: -608352.185176 eV PBE+vdW (tier 2 basis)
C    -1.078024  2.241932  0.064079
C    -0.682495  0.843484  0.379133
O    0.520514  0.459406  0.178187
H    -2.161129  2.384441  0.013264
H    -0.626920  2.508597  -0.902085
H    -0.644396  2.934213  0.802217
N    -1.569971  -0.041914  0.878137
C    -2.484979  0.255922  1.981428
C    -1.613670  0.481977  3.236346
O    -0.386269  0.104432  3.257757
H    -1.244387  -1.010435  0.865760
H    -3.031491  1.181843  1.749768
C    -3.488637  -0.900884  2.167534
C    -4.437821  -1.069411  0.976671
C    -5.453260  -2.198104  1.195801
C    -6.366804  -2.420797  -0.019195
N    -5.627814  -2.896322  -1.175052
H    -4.065876  -0.717304  3.084410
H    -2.924240  -1.830698  2.354584
H    -3.872415  -1.275089  0.054511
H    -4.975291  -0.121649  0.805592
H    -6.086383  -1.977086  2.068352
H    -4.927059  -3.138983  1.427128
H    -6.864854  -1.480311  -0.294127
H    -7.168854  -3.123303  0.278039
H    -5.325103  -3.866909  -1.113915
H    -6.082622  -2.727252  -2.068956
N    -2.120224  1.048091  4.317685
C    -3.471853  1.563757  4.549359
H    -1.472401  1.110258  5.104903
H    -3.980360  1.775983  3.605041
H    -3.393572  2.495328  5.120009
H    -4.062526  0.842618  5.128774
Pb    1.530514  -0.358245  2.072977
