34
Energy: -608352.698445 eV PBE+vdW (tier 2 basis)
C    1.098899  2.115361  1.298880
C    0.285223  1.134507  2.076640
O    0.631623  -0.089468  2.061735
H    0.736175  3.145447  1.376498
H    1.096988  1.811290  0.242474
H    2.141893  2.068121  1.640038
N    -0.782207  1.588903  2.749064
C    -1.828685  0.845298  3.488658
C    -1.263052  0.284551  4.803178
O    -0.567684  -0.787769  4.818820
H    -0.940660  2.589956  2.669657
H    -2.566009  1.613861  3.746183
C    -2.578111  -0.218634  2.667134
C    -3.878928  -0.699224  3.314946
C    -5.020926  0.324813  3.288103
C    -6.373123  -0.323184  3.655483
N    -6.742487  -1.358173  2.708139
H    -1.930644  -1.105763  2.474253
H    -2.773227  0.203749  1.670470
H    -3.694914  -1.040064  4.348157
H    -4.229756  -1.584685  2.763742
H    -5.102349  0.762359  2.279695
H    -4.845406  1.164574  3.980055
H    -7.123580  0.485282  3.725334
H    -6.305716  -0.776806  4.654533
H    -7.345754  -2.077193  3.099280
H    -7.159634  -1.001755  1.850123
N    -1.503722  0.898990  5.947801
C    -2.276630  2.124227  6.191458
H    -1.092313  0.443629  6.764343
H    -1.886926  2.963329  5.603668
H    -2.172744  2.377951  7.249884
H    -3.341244  1.969589  5.978251
Pb    0.345937  -2.027375  3.163073
