34
Energy: -608351.393515 eV PBE+vdW (tier 2 basis)
C    -0.297339  -0.529134  -0.088661
C    -0.104545  -0.328316  1.374484
O    1.045377  -0.683315  1.894617
H    0.545472  -0.084597  -0.633739
H    -1.231962  -0.097924  -0.456902
H    -0.295116  -1.606512  -0.308752
N    -1.010616  0.163845  2.172968
C    -2.348103  0.703804  1.897872
C    -2.591610  1.560103  3.179848
O    -1.834818  1.372830  4.146256
H    -0.820972  0.351695  3.193577
H    -2.305949  1.347647  1.008354
C    -3.420466  -0.394597  1.704524
C    -3.681070  -1.267075  2.939376
C    -4.679354  -2.408664  2.697918
C    -6.132100  -1.951827  2.487695
N    -7.023394  -3.070539  2.362325
H    -3.116213  -1.026223  0.855116
H    -4.340895  0.110430  1.380793
H    -4.031339  -0.640858  3.775164
H    -2.734016  -1.713067  3.279111
H    -4.649041  -3.079379  3.569992
H    -4.371804  -3.014944  1.832146
H    -6.238533  -1.338875  1.580561
H    -6.422679  -1.297474  3.340336
H    -7.030323  -3.764632  3.104906
H    -7.930025  -2.921175  1.930786
N    -3.603073  2.437077  3.202038
C    -4.539098  2.798604  2.142143
H    -3.703038  2.917208  4.094791
H    -4.785259  3.861241  2.238547
H    -5.470748  2.219943  2.207727
H    -4.092541  2.653258  1.152799
Pb    3.021576  -0.914316  2.665471
