34
Energy: -608352.046144 eV PBE+vdW (tier 2 basis)
C    -0.565707  0.502033  -0.136227
C    -0.094767  0.150071  1.231374
O    1.150881  0.238213  1.510575
H    -1.509843  1.054923  -0.122538
H    -0.717231  -0.416869  -0.727054
H    0.211655  1.088342  -0.636504
N    -0.935274  -0.276950  2.199688
C    -2.001845  -1.277637  2.024262
C    -1.308392  -2.580263  1.547288
O    -0.039448  -2.729509  1.630094
H    -0.502951  -0.288018  3.123771
H    -2.353462  -1.484257  3.048341
C    -3.235436  -0.808095  1.213464
C    -4.568130  -1.419045  1.674989
C    -5.770189  -0.799528  0.951688
C    -7.119242  -1.315756  1.476366
N    -7.331232  -0.957906  2.866703
H    -3.081914  -0.975245  0.137268
H    -3.301147  0.279661  1.356772
H    -4.688431  -1.271804  2.759763
H    -4.602638  -2.513903  1.520099
H    -5.716772  -1.001081  -0.128796
H    -5.737006  0.296747  1.062854
H    -7.163916  -2.411417  1.394864
H    -7.916012  -0.922889  0.816200
H    -7.526244  0.028977  3.026706
H    -8.012541  -1.533423  3.355582
N    -2.054656  -3.560395  1.078864
C    -1.543888  -4.867153  0.650805
H    -3.060201  -3.401753  1.039608
H    -2.393688  -5.486544  0.353804
H    -1.009774  -5.354265  1.474859
H    -0.865538  -4.751130  -0.202607
Pb    2.025696  -1.803634  2.074341
