34
Energy: -608352.11262 eV PBE+vdW (tier 2 basis)
C    0.009051  -0.001438  0.189001
C    -0.157210  0.236938  1.647312
O    0.871400  0.289256  2.405108
H    0.741019  -0.812942  0.067294
H    0.453837  0.881832  -0.293941
H    -0.921122  -0.274711  -0.317174
N    -1.378001  0.387144  2.203328
C    -2.421654  1.247584  1.650469
C    -2.023580  2.708175  2.010510
O    -0.950631  2.975095  2.650632
H    -1.377680  0.337788  3.223450
H    -2.381927  1.167021  0.553882
C    -3.826935  0.837173  2.130383
C    -4.038524  0.896212  3.650096
C    -5.502339  0.705387  4.078703
C    -6.076000  -0.694008  3.806970
N    -7.432688  -0.791237  4.285704
H    -4.008973  -0.174409  1.741926
H    -4.567418  1.479951  1.628552
H    -3.700391  1.873592  4.033516
H    -3.421692  0.130083  4.151319
H    -6.140689  1.453006  3.583697
H    -5.571273  0.911089  5.157487
H    -5.408341  -1.452672  4.270913
H    -6.091490  -0.913679  2.729345
H    -7.572480  -0.664792  5.285253
H    -7.989073  -1.557157  3.917359
N    -2.818566  3.685968  1.618373
C    -2.563715  5.111984  1.853704
H    -3.666729  3.436276  1.115910
H    -3.391367  5.683409  1.426569
H    -1.627451  5.415966  1.371095
H    -2.500002  5.313448  2.929332
Pb    1.042620  2.252087  3.580862
