34
Energy: -608351.108422 eV PBE+vdW (tier 2 basis)
C    0.392123  0.588227  0.571460
C    -0.187375  1.038850  1.865072
O    0.512998  1.858970  2.608372
H    0.665610  1.477475  -0.017324
H    -0.266125  -0.056152  -0.007350
H    1.301700  0.007189  0.781123
N    -1.379111  0.731039  2.347356
C    -2.398224  -0.254127  1.920723
C    -1.785320  -1.669363  2.149750
O    -0.670857  -1.905704  1.687737
H    -1.568862  1.174281  3.246851
H    -3.232675  -0.072080  2.609140
C    -2.921190  -0.031607  0.483687
C    -4.277127  -0.694747  0.174386
C    -4.203624  -2.156728  -0.284601
C    -5.586972  -2.706563  -0.664092
N    -5.525163  -4.070084  -1.110647
H    -2.181757  -0.375741  -0.250928
H    -3.023745  1.055288  0.354071
H    -4.746086  -0.102709  -0.625271
H    -4.950785  -0.593778  1.040911
H    -3.771268  -2.809477  0.486662
H    -3.535197  -2.227423  -1.158046
H    -6.028470  -2.048548  -1.445479
H    -6.277435  -2.657942  0.191320
H    -6.382001  -4.615466  -1.099984
H    -4.910703  -4.291865  -1.889742
N    -2.507141  -2.568808  2.851475
C    -3.815540  -2.425961  3.485507
H    -2.051322  -3.476335  2.922159
H    -3.868950  -1.527437  4.112940
H    -3.968852  -3.288059  4.141399
H    -4.634636  -2.408222  2.754028
Pb    2.470240  2.792581  2.758861
