34
Energy: -608351.315491 eV PBE+vdW (tier 2 basis)
C    0.174842  -0.619629  0.179752
C    0.115014  -0.053070  1.555126
O    1.228648  0.001489  2.247509
H    0.913689  -0.061913  -0.411738
H    -0.789602  -0.590686  -0.333766
H    0.517322  -1.662706  0.231689
N    -0.972932  0.394330  2.118080
C    -2.359013  0.469957  1.627853
C    -2.928952  1.594628  2.540777
O    -2.416639  1.715121  3.663638
H    -0.968952  0.798012  3.084544
H    -2.365981  0.753953  0.568246
C    -3.047500  -0.903952  1.839544
C    -4.534718  -1.011721  1.451774
C    -5.515635  -0.743066  2.600211
C    -6.990827  -0.899436  2.174388
N    -7.463796  0.198403  1.354436
H    -2.912983  -1.186473  2.894905
H    -2.470626  -1.631527  1.249763
H    -4.699530  -2.040106  1.097954
H    -4.762279  -0.370414  0.588033
H    -5.373845  0.258146  3.034033
H    -5.326097  -1.458504  3.414306
H    -7.601509  -0.985725  3.091847
H    -7.119549  -1.834941  1.614394
H    -8.081773  -0.045683  0.585278
H    -7.805602  1.011948  1.860771
N    -3.919508  2.386095  2.101399
C    -4.584978  2.432818  0.803520
H    -4.218701  3.065917  2.798851
H    -4.828346  3.475890  0.574322
H    -5.512512  1.840874  0.798916
H    -3.927875  2.064727  0.008825
Pb    3.093848  0.127559  3.262428
