34
Energy: -608353.626957 eV PBE+vdW (tier 2 basis)
C    -0.097740  1.419893  1.065054
C    -0.450415  0.774773  2.362300
O    0.237113  1.027846  3.399093
H    -0.127856  2.510957  1.192549
H    -0.765100  1.133055  0.245603
H    0.936499  1.160013  0.802058
N    -1.509202  -0.058903  2.409202
C    -1.988071  -0.591209  3.680964
C    -1.246320  -1.884433  4.060343
O    -0.306297  -1.794726  4.925959
H    -2.047438  -0.197154  1.557716
H    -1.592862  0.129257  4.404922
C    -3.506836  -0.536794  3.917689
C    -3.776390  -0.213670  5.401535
C    -3.232461  1.173611  5.829295
C    -2.439702  1.226111  7.131812
N    -1.209516  0.353038  7.145282
H    -4.017213  -1.462742  3.629312
H    -3.922573  0.263475  3.287180
H    -3.355195  -1.022015  6.023456
H    -4.857425  -0.261994  5.578694
H    -4.073067  1.870620  5.948053
H    -2.619959  1.622784  5.028876
H    -3.074648  0.929001  7.980361
H    -2.106434  2.253847  7.320052
H    -1.506883  -0.629427  7.175735
H    -0.745516  0.507953  8.048280
N    -1.519229  -3.065376  3.535028
C    -2.504282  -3.438767  2.518661
H    -0.933360  -3.823441  3.890911
H    -3.352204  -3.961113  2.979788
H    -2.023809  -4.112435  1.800329
H    -2.868786  -2.562236  1.978950
Pb    0.766113  0.173201  5.513190
