34
Energy: -608353.337024 eV PBE+vdW (tier 2 basis)
C    2.389665  1.749668  2.441346
C    1.264764  1.532844  3.411554
O    0.998401  2.584719  4.162453
H    2.111146  2.523907  1.712715
H    2.674801  0.829491  1.922762
H    3.269684  2.127938  2.976912
N    0.627618  0.392532  3.423133
C    -0.515315  0.168693  4.317740
C    -0.051021  -0.066582  5.768867
O    0.142925  0.924349  6.560213
H    0.561766  -0.374163  1.959755
H    -1.131700  1.085995  4.385968
C    -1.431713  -0.929478  3.742260
C    -0.798085  -2.312502  3.418832
C    -0.887738  -2.761755  1.946072
C    0.277703  -2.335650  1.063033
N    0.411763  -0.834166  0.966603
H    -1.882149  -0.504722  2.832806
H    -2.278757  -1.059255  4.429658
H    -1.301930  -3.077991  4.024065
H    0.267727  -2.338005  3.702355
H    -1.844863  -2.440702  1.505085
H    -0.903252  -3.859716  1.902413
H    0.165902  -2.725833  0.044153
H    1.232620  -2.701066  1.463063
H    1.202723  -0.579462  0.363997
H    -0.428012  -0.420064  0.544630
N    0.140881  -1.285524  6.234719
C    0.589643  -1.587023  7.597965
H    -0.033630  -2.065200  5.607801
H    1.622160  -1.247660  7.745385
H    0.539573  -2.668674  7.745066
H    -0.058972  -1.088512  8.326820
Pb    0.369671  3.123564  6.153801
