34
Energy: -608352.00519 eV PBE+vdW (tier 2 basis)
C    -0.417822  0.258061  -0.103291
C    -0.453022  -0.139121  1.328501
O    0.627043  -0.460578  1.930174
H    0.144029  1.195782  -0.226150
H    -1.409714  0.347675  -0.554337
H    0.156705  -0.508663  -0.644880
N    -1.613700  -0.170612  2.019779
C    -2.600422  0.917810  2.018029
C    -1.850074  2.181932  2.484776
O    -0.841572  2.065688  3.275552
H    -1.549999  -0.657767  2.916257
H    -2.995407  1.055480  1.003391
C    -3.739614  0.520147  2.992247
C    -4.974960  1.425676  3.032094
C    -5.906098  1.333873  1.811610
C    -6.797312  0.079808  1.801848
N    -7.658016  0.035888  2.967617
H    -3.304765  0.451268  4.003059
H    -4.032512  -0.501994  2.706470
H    -4.680256  2.467617  3.222730
H    -5.560377  1.130252  3.915539
H    -5.350019  1.361615  0.859431
H    -6.554452  2.223114  1.797333
H    -6.186693  -0.835996  1.799470
H    -7.364538  0.067175  0.850950
H    -8.374060  0.760064  2.995634
H    -8.072388  -0.873208  3.157795
N    -2.215911  3.395449  2.113520
C    -3.275909  3.830038  1.201207
H    -1.655731  4.142309  2.529878
H    -2.842203  4.510134  0.458850
H    -4.054486  4.363733  1.759366
H    -3.728465  2.979480  0.688552
Pb    1.003388  0.809082  3.813264
