34
Energy: -608353.112684 eV PBE+vdW (tier 2 basis)
C    0.883715  -0.265960  1.719615
C    -0.221839  0.705139  2.004861
O    0.160292  1.752047  2.758603
H    0.539281  -1.061448  1.053855
H    1.240972  -0.711275  2.658547
H    1.741286  0.257365  1.275956
N    -1.398562  0.498904  1.510509
C    -2.484070  1.442904  1.736590
C    -3.048094  1.190344  3.140062
O    -2.613447  1.855681  4.147981
H    -1.679793  1.037893  -3.214602
H    -2.128837  2.493486  1.764228
C    -3.531053  1.300643  0.614878
C    -2.963058  1.411828  -0.809253
C    -2.372295  2.781284  -1.180410
C    -2.245111  3.018997  -2.680443
N    -1.330665  1.996733  -3.352368
H    -4.331991  2.040234  0.764457
H    -3.997359  0.305389  0.672210
H    -3.788520  1.174600  -1.499805
H    -2.205488  0.618539  -0.919117
H    -1.396417  2.940703  -0.693938
H    -3.026262  3.589712  -0.817808
H    -1.817915  4.001918  -2.911176
H    -3.211981  2.929741  -3.191924
H    -1.265488  2.162257  -4.366594
H    -0.376234  2.036539  -2.968831
N    -3.953334  0.248079  3.326615
C    -4.489255  -0.159970  4.625915
H    -4.259130  -0.269880  2.507644
H    -5.504868  -0.540114  4.482252
H    -4.511916  0.700712  5.299559
H    -3.867691  -0.950961  5.065896
Pb    -0.607874  2.847939  4.424037
