34
Energy: -608352.203213 eV PBE+vdW (tier 2 basis)
C    0.785011  -1.137240  1.888871
C    0.019604  0.109379  1.864931
O    0.462865  1.168791  1.264626
H    1.092199  -1.333051  2.967905
H    1.649536  -1.090386  1.222787
H    0.169950  -2.014660  1.642384
N    -1.141190  0.233651  2.549872
C    -2.270708  -0.687111  2.473952
C    -3.246510  -0.045590  1.449608
O    -2.825339  0.820703  0.597788
H    -1.394022  1.195227  2.777103
H    -1.906177  -1.601264  1.978031
C    -2.829284  -1.091843  3.846601
C    -1.774846  -1.835743  4.694628
C    -0.819605  -0.934258  5.492012
C    0.454717  -1.648057  5.961651
N    1.320345  -2.073903  4.836797
H    -3.684406  -1.768251  3.692259
H    -3.216984  -0.209476  4.379150
H    -1.203080  -2.502546  4.028308
H    -2.301759  -2.500309  5.392734
H    -1.345657  -0.539261  6.374022
H    -0.510248  -0.060670  4.900867
H    0.186150  -2.509980  6.593037
H    1.022848  -0.958734  6.597998
H    2.301487  -1.899906  5.054951
H    1.244455  -3.077452  4.669247
N    -4.502265  -0.439016  1.441380
C    -5.543624  -0.015811  0.502237
H    -4.777170  -1.103042  2.163631
H    -5.995676  -0.903896  0.045310
H    -5.104336  0.616257  -0.271329
H    -6.318393  0.541436  1.043320
Pb    -1.070039  2.146936  -0.064491
