34
Energy: -608353.141207 eV PBE+vdW (tier 2 basis)
C    0.421204  -0.576031  0.178178
C    0.174221  -0.652430  1.647283
O    1.048633  -1.229163  2.386110
H    0.516748  -1.600704  -0.210187
H    1.382332  -0.078136  -0.006867
H    -0.371280  -0.057933  -0.371468
N    -0.956761  -0.144042  2.136430
C    -1.540519  -0.237682  3.496365
C    -0.880170  0.762822  4.451904
O    0.400781  0.735625  4.659505
H    -1.556998  0.301506  1.446550
H    -2.570700  0.104915  3.349259
C    -1.621067  -1.676530  4.068433
C    -2.934141  -1.972467  4.817637
C    -3.171368  -1.216361  6.149803
C    -4.366825  -0.257385  6.184742
N    -4.286698  0.860505  5.192340
H    -0.770536  -1.886545  4.741890
H    -1.527056  -2.381877  3.231687
H    -2.943611  -3.052877  5.011021
H    -3.771154  -1.806167  4.120024
H    -2.259904  -0.683204  6.462429
H    -3.350463  -1.952440  6.944931
H    -4.419891  0.195179  7.182953
H    -5.300646  -0.822471  6.047681
H    -4.735174  0.578179  4.317405
H    -4.860062  1.639811  5.525516
N    -1.664351  1.608379  5.059097
C    -1.223242  2.599871  6.034189
H    -2.747875  1.408412  5.002700
H    -0.133055  2.638464  6.087715
H    -1.632419  2.346225  7.021527
H    -1.612395  3.582905  5.742290
Pb    1.988440  -0.765350  4.344927
