34
Energy: -608351.391 eV PBE+vdW (tier 2 basis)
C    0.396575  -1.112238  0.429464
C    -0.131496  0.016310  1.254051
O    0.500703  1.165450  1.283245
H    0.453760  -0.806554  -0.625444
H    -0.229281  -2.007852  0.495230
H    1.409161  -1.377276  0.769299
N    -1.222951  -0.140189  1.949295
C    -1.912410  0.773756  2.861173
C    -2.616194  -0.238690  3.816983
O    -2.852300  -1.367455  3.367035
H    -1.715740  -1.064691  2.009424
H    -1.178182  1.404349  3.382153
C    -2.937921  1.642189  2.082702
C    -3.635965  2.703459  2.939426
C    -4.630383  3.591615  2.169513
C    -5.983387  2.933214  1.853200
N    -5.915939  1.922775  0.822977
H    -3.679034  0.972459  1.620929
H    -2.398740  2.136567  1.259470
H    -2.876808  3.361102  3.394400
H    -4.172069  2.225811  3.773730
H    -4.174650  3.968918  1.239539
H    -4.843032  4.480462  2.779241
H    -6.684767  3.742897  1.559909
H    -6.409265  2.474976  2.756939
H    -6.677369  1.248448  0.802078
H    -5.675046  2.251488  -0.109998
N    -2.927137  0.185587  5.048014
C    -3.613729  -0.644657  6.037510
H    -2.653691  1.123808  5.321330
H    -2.984712  -0.770125  6.926795
H    -3.810710  -1.622576  5.590833
H    -4.562711  -0.179499  6.330605
Pb    2.382832  2.007202  0.595328
