34
Energy: -608352.971428 eV PBE+vdW (tier 2 basis)
C    -0.016232  0.435260  -0.113044
C    0.270575  -0.418260  1.068411
O    1.504550  -0.788177  1.270522
H    0.715910  1.254251  -0.135825
H    -1.028184  0.849762  -0.104593
H    0.135074  -0.143420  -1.036304
N    -0.643522  -0.809986  1.925485
C    -2.106663  -0.859726  1.879501
C    -2.447130  -1.484204  3.263005
O    -1.564302  -2.164382  3.836256
H    -0.345210  -1.332600  2.767964
H    -2.521260  0.154783  1.791969
C    -2.646623  -1.758946  0.736353
C    -2.290528  -3.253836  0.812254
C    -0.868480  -3.673366  0.346124
C    -0.129944  -4.617173  1.292048
N    0.418984  -3.919584  2.512745
H    -2.333853  -1.334003  -0.228981
H    -3.741142  -1.657765  0.755184
H    -3.017797  -3.786424  0.186926
H    -2.478458  -3.622582  1.832078
H    -0.235130  -2.797041  0.131421
H    -0.947527  -4.194182  -0.617386
H    0.712132  -5.101927  0.775791
H    -0.796346  -5.426260  1.625947
H    -0.330888  -3.367922  2.982144
H    0.691127  -4.631368  3.202038
N    -3.676760  -1.294744  3.728434
C    -4.188169  -1.862066  4.977465
H    -4.300977  -0.689680  3.201162
H    -5.043641  -2.515511  4.768959
H    -4.507168  -1.054118  5.646145
H    -3.391587  -2.437155  5.455009
Pb    2.460117  -2.625938  2.026833
