34
Energy: -608351.334713 eV PBE+vdW (tier 2 basis)
C    0.184229  0.472300  0.678217
C    -0.103563  0.262240  2.123922
O    0.917638  0.161851  2.940650
H    0.797061  1.375930  0.557174
H    -0.723196  0.570558  0.076705
H    0.774165  -0.373926  0.299362
N    -1.302843  0.173237  2.627394
C    -2.631443  0.238295  2.000388
C    -3.514943  0.584649  3.240677
O    -3.078677  0.229221  4.346919
H    -1.470342  0.037185  3.656106
H    -2.647095  1.024957  1.236277
C    -2.990335  -1.155827  1.417934
C    -4.335912  -1.289912  0.692707
C    -4.403228  -0.620613  -0.684160
C    -5.769504  -0.827857  -1.357813
N    -5.831201  -0.218804  -2.659674
H    -2.958798  -1.868337  2.255266
H    -2.179483  -1.446193  0.731159
H    -5.153443  -0.936089  1.338240
H    -4.517326  -2.368290  0.570808
H    -3.614758  -1.037682  -1.332279
H    -4.216368  0.462893  -0.626099
H    -6.571859  -0.396893  -0.741422
H    -5.976073  -1.918752  -1.409495
H    -5.183589  -0.555868  -3.367487
H    -6.751632  -0.007370  -3.034006
N    -4.689275  1.213173  3.092869
C    -5.292503  1.819814  1.912746
H    -5.186936  1.332393  3.974539
H    -5.640346  2.828565  2.163765
H    -6.149686  1.233905  1.555501
H    -4.563962  1.907956  1.102356
Pb    2.480633  0.066695  4.385457
