34
Energy: -608351.326103 eV PBE+vdW (tier 2 basis)
C    -0.438558  0.228612  -0.212551
C    -0.297265  0.151412  1.276082
O    0.841806  0.126311  1.804382
H    0.128207  1.092356  -0.581931
H    -1.475852  0.295010  -0.556635
H    0.025144  -0.665672  -0.651316
N    -1.439632  0.133054  2.009438
C    -1.652702  -0.205810  3.427210
C    -0.778699  0.539518  4.429043
O    -1.336742  0.777769  5.585802
H    -2.299944  0.184794  1.471961
H    -2.658517  0.174237  3.654026
C    -1.723048  -1.745157  3.690531
C    -0.595508  -2.646943  3.176965
C    0.704983  -2.677211  3.988109
C    1.689073  -3.743906  3.469701
N    1.171688  -5.082697  3.592740
H    -2.661079  -2.067217  3.215707
H    -1.877752  -1.889598  4.771533
H    -0.372608  -2.414148  2.124460
H    -1.001085  -3.669702  3.159879
H    0.481598  -2.878712  5.049616
H    1.231760  -1.713766  3.949913
H    2.645217  -3.630373  4.020642
H    1.919037  -3.561056  2.410994
H    1.046972  -5.454152  4.531051
H    1.509186  -5.778843  2.934809
N    0.442047  0.894705  4.149055
C    1.303975  1.612091  5.062393
H    0.768999  0.558971  3.113380
H    2.270991  1.797247  4.582288
H    1.503359  1.024523  5.977853
H    0.883223  2.603913  5.316132
Pb    -1.054170  1.813525  7.471666
