34
Energy: -608352.105821 eV PBE+vdW (tier 2 basis)
C    -0.939961  -0.090525  -0.813178
C    -0.370821  -0.226325  0.553075
O    0.829229  -0.637693  0.708217
H    -2.020135  0.078769  -0.819036
H    -0.716205  -1.019191  -1.359238
H    -0.425738  0.711977  -1.363009
N    -1.097847  0.078083  1.650243
C    -1.877191  1.313720  1.799306
C    -0.878143  2.477703  1.638200
O    0.359646  2.301906  1.945087
H    -0.690514  -0.255306  2.526386
H    -2.645724  1.359209  1.016378
C    -2.552389  1.288428  3.192879
C    -3.541088  2.415664  3.490577
C    -4.213769  2.239820  4.859094
C    -5.198030  3.371504  5.184848
N    -4.535117  4.664320  5.265648
H    -1.760205  1.274004  3.961110
H    -3.068960  0.317480  3.251460
H    -4.319559  2.443153  2.710877
H    -3.041411  3.395746  3.483960
H    -3.445958  2.187324  5.648679
H    -4.760109  1.285552  4.895678
H    -5.723128  3.111661  6.123624
H    -5.971278  3.433239  4.405624
H    -5.168690  5.457173  5.188675
H    -3.951254  4.777434  6.093435
N    -1.252262  3.667584  1.204219
C    -2.562295  4.144578  0.753886
H    -0.498355  4.357376  1.185088
H    -3.244704  3.310896  0.575174
H    -2.425009  4.701238  -0.179925
H    -3.001542  4.809598  1.507371
Pb    2.122838  0.831219  1.913301
