34
Energy: -608352.724387 eV PBE+vdW (tier 2 basis)
C    1.249141  2.551793  2.247345
C    0.051924  1.989775  2.936735
O    -0.925778  2.759622  3.214466
H    1.662484  3.375108  2.845067
H    0.926681  2.986659  1.290238
H    2.030784  1.808641  2.058758
N    0.025183  0.682914  3.224155
C    -1.129234  -0.086405  3.720166
C    -1.221357  0.058781  5.251756
O    -1.697199  1.131671  5.758078
H    0.848337  0.143946  2.963490
H    -2.034240  0.404417  3.325562
C    -1.090295  -1.521788  3.175421
C    -1.283302  -1.587863  1.649340
C    -1.457393  -3.006556  1.088959
C    -0.200343  -3.886091  1.143246
N    -0.420858  -5.136648  0.456646
H    -1.901227  -2.086732  3.660282
H    -0.142633  -2.011287  3.462136
H    -0.441503  -1.096009  1.135133
H    -2.180493  -1.004334  1.389197
H    -1.764651  -2.926561  0.037274
H    -2.287385  -3.510434  1.611269
H    0.115759  -4.038962  2.199131
H    0.634092  -3.371757  0.641911
H    0.411373  -5.664682  0.210630
H    -1.148866  -5.737241  0.835512
N    -0.804497  -0.925585  6.023503
C    -0.813912  -0.934006  7.488354
H    -0.464853  -1.764893  5.558233
H    0.211046  -1.057281  7.858377
H    -1.426249  -1.772100  7.841903
H    -1.228984  0.006943  7.854105
Pb    -2.375553  3.124945  4.902623
