34
Energy: -608352.090927 eV PBE+vdW (tier 2 basis)
C    -0.736439  1.473058  -1.733583
C    -0.034727  0.552026  -0.800798
O    1.007690  -0.077362  -1.191857
H    -0.131014  2.375926  -1.905781
H    -1.738295  1.754328  -1.396986
H    -0.808381  0.967387  -2.707294
N    -0.477408  0.348175  0.457718
C    -0.881230  1.421155  1.362740
C    0.428003  2.102552  1.851689
O    1.579758  1.687054  1.488405
H    -0.047494  -0.451382  0.925751
H    -1.435857  2.168809  0.776534
C    -1.791471  0.906178  2.496876
C    -1.143568  -0.102488  3.456136
C    -2.136350  -0.747428  4.437057
C    -2.741948  0.213880  5.471211
N    -3.612081  -0.494612  6.376250
H    -2.674122  0.461780  2.013368
H    -2.169754  1.776875  3.052861
H    -0.325027  0.379804  4.016973
H    -0.682977  -0.927260  2.886112
H    -1.611167  -1.553070  4.971706
H    -2.953407  -1.231442  3.881510
H    -3.344707  0.993266  4.981652
H    -1.916858  0.739528  6.001111
H    -3.185362  -1.224374  6.941618
H    -4.270216  0.066536  6.908647
N    0.324973  3.146355  2.653442
C    1.463758  3.908286  3.179223
H    -0.607995  3.448434  2.922473
H    2.028975  4.364336  2.357846
H    2.126189  3.251417  3.754647
H    1.078192  4.695886  3.831197
Pb    2.845908  0.304117  0.125217
