34
Energy: -608351.277486 eV PBE+vdW (tier 2 basis)
C    -0.004417  0.644152  0.437103
C    -0.202946  -0.005196  1.763315
O    0.856673  -0.405569  2.420914
H    -0.933323  0.895947  -0.073684
H    0.579461  -0.015747  -0.216404
H    0.566307  1.571914  0.601677
N    -1.341950  -0.000910  2.454878
C    -2.663135  -0.215768  1.857369
C    -2.503637  -1.509077  0.980833
O    -1.371126  -1.849538  0.615195
H    -1.233818  -0.373242  3.398518
H    -3.323593  -0.424938  2.709544
C    -3.246795  0.985300  1.063806
C    -4.768908  1.163542  1.193826
C    -5.247238  1.643548  2.568697
C    -6.766436  1.880451  2.601977
N    -7.211356  2.350745  3.885795
H    -2.999644  0.881728  -0.001259
H    -2.750941  1.898687  1.423371
H    -5.292564  0.234625  0.911263
H    -5.070651  1.896913  0.431327
H    -4.729242  2.581606  2.826607
H    -5.000607  0.922534  3.364363
H    -7.308556  0.951800  2.372313
H    -7.030280  2.598159  1.795013
H    -6.835217  3.232823  4.223727
H    -8.189317  2.215073  4.124230
N    -3.635799  -2.147438  0.663426
C    -3.690925  -3.333411  -0.191275
H    -4.507857  -1.810682  1.057395
H    -3.893019  -4.231459  0.406007
H    -2.728442  -3.445445  -0.696684
H    -4.482986  -3.211996  -0.938439
Pb    2.688653  -1.475255  2.024127
