34
Energy: -608352.777195 eV PBE+vdW (tier 2 basis)
C    1.837265  3.158838  3.028454
C    1.230874  2.255818  4.048568
O    1.352854  2.545743  5.286457
H    1.408099  4.163433  3.153986
H    1.671659  2.822472  1.999805
H    2.915672  3.250854  3.214743
N    0.549851  1.182641  3.637035
C    -0.274588  0.284611  4.465006
C    0.641340  -0.757858  5.139354
O    1.325080  -0.431353  6.171293
H    0.488191  1.042649  2.630648
H    -0.689144  0.889501  5.288220
C    -1.444087  -0.294634  3.652600
C    -2.580259  0.685805  3.313844
C    -2.298416  1.759671  2.255061
C    -3.599688  2.413162  1.744307
N    -4.455099  1.446931  1.080845
H    -1.876821  -1.110573  4.250868
H    -1.063729  -0.751986  2.720622
H    -2.939735  1.158023  4.242671
H    -3.419123  0.078572  2.942768
H    -1.774894  1.311748  1.391274
H    -1.652729  2.562632  2.643573
H    -3.330965  3.262985  1.090532
H    -4.152733  2.835705  2.594924
H    -5.448875  1.653406  1.134943
H    -4.195864  1.239764  0.118609
N    0.714544  -1.975018  4.641212
C    1.543895  -3.068866  5.152788
H    0.119405  -2.182158  3.841047
H    0.900814  -3.919721  5.407264
H    2.082274  -2.733098  6.040917
H    2.257100  -3.377792  4.378934
Pb    1.717798  1.516575  7.250855
