34
Energy: -608353.297481 eV PBE+vdW (tier 2 basis)
C    0.549271  1.016359  1.639588
C    -0.265114  0.672072  2.833336
O    0.239893  0.710472  4.002344
H    0.106982  0.671575  0.700317
H    1.546369  0.572080  1.764243
H    0.704722  2.105917  1.598896
N    -1.563475  0.305849  2.716592
C    -2.573807  0.974016  1.907459
C    -2.589829  2.468299  2.300562
O    -2.043938  2.875248  3.383307
H    -1.943737  -0.089769  3.574338
H    -2.301870  0.905679  0.844827
C    -3.945161  0.258025  2.100473
C    -4.305828  -0.177680  3.531872
C    -4.550556  0.953688  4.555166
C    -4.156420  0.633228  5.993742
N    -2.671258  0.431511  6.175867
H    -3.929755  -0.632775  1.458530
H    -4.735398  0.908399  1.702038
H    -3.555417  -0.901551  3.900399
H    -5.211499  -0.794508  3.454503
H    -5.619669  1.207090  4.562653
H    -4.043764  1.881422  4.257803
H    -4.677855  -0.264897  6.357420
H    -4.446155  1.463049  6.650170
H    -2.487350  0.365609  7.184456
H    -2.403581  -0.493637  5.821785
N    -3.155608  3.357591  1.500812
C    -3.813911  3.162964  0.206006
H    -3.127200  4.315943  1.852611
H    -3.508348  2.221309  -0.257875
H    -3.526480  3.985876  -0.457053
H    -4.904922  3.170250  0.325705
Pb    -0.987921  2.173279  5.349964
