34
Energy: -608352.386197 eV PBE+vdW (tier 2 basis)
C    0.047445  -0.887882  0.176023
C    -0.048375  -0.499802  1.612558
O    0.985216  -0.050926  2.207771
H    0.827078  -1.652389  0.057296
H    0.370766  -0.012092  -0.404346
H    -0.896063  -1.262989  -0.233679
N    -1.225758  -0.618097  2.240194
C    -1.502585  -0.134529  3.595714
C    -0.845281  -1.066056  4.637612
O    0.261935  -0.695278  5.168839
H    -2.021320  -0.934065  1.689206
H    -0.938267  0.802304  3.707888
C    -3.007509  0.206450  3.843282
C    -4.007347  -0.140595  2.729394
C    -5.440169  0.321306  3.046428
C    -6.131567  -0.441814  4.186056
N    -7.486121  0.027455  4.356528
H    -3.057543  1.288945  4.017948
H    -3.317787  -0.252949  4.790149
H    -4.026184  -1.226190  2.525700
H    -3.706563  0.358415  1.794204
H    -6.039137  0.204250  2.131002
H    -5.447716  1.396284  3.279659
H    -5.608608  -0.279834  5.140994
H    -6.075366  -1.533174  3.974442
H    -7.932865  -0.218024  5.235293
H    -8.110614  -0.129461  3.568782
N    -1.360296  -2.222696  5.015934
C    -2.583250  -2.898260  4.579236
H    -0.808940  -2.703473  5.728985
H    -2.439542  -3.974474  4.716152
H    -2.778691  -2.711374  3.520386
H    -3.446713  -2.580062  5.177279
Pb    2.012180  0.358493  4.183871
