34
Energy: -608352.509194 eV PBE+vdW (tier 2 basis)
C    0.764816  1.598128  -0.512342
C    0.489229  0.250041  0.050318
O    0.747513  -0.789575  -0.655915
H    1.229404  2.259115  0.225461
H    -0.177606  2.066648  -0.839455
H    1.410751  1.493067  -1.389162
N    -0.040493  0.066839  1.276983
C    -1.250777  0.741842  1.818444
C    -2.345789  0.738242  0.730938
O    -2.322284  -0.265679  -0.146013
H    0.039987  -0.903146  1.580356
H    -1.605372  0.011629  2.563723
C    -1.058166  2.040678  2.618000
C    -0.784345  3.371382  1.887013
C    -1.438052  4.588674  2.570166
C    -2.842627  4.928359  2.083223
N    -3.835833  3.808087  2.299005
H    -0.260310  1.849418  3.348787
H    -1.965907  2.125071  3.232289
H    -1.130602  3.330882  0.844631
H    0.298673  3.540247  1.844762
H    -0.836636  5.487551  2.375292
H    -1.430317  4.468668  3.665445
H    -2.847752  5.129785  1.003917
H    -3.230464  5.817559  2.594852
H    -4.771646  4.097989  1.992122
H    -3.914879  3.573763  3.295432
N    -3.274698  1.629439  0.743665
C    -4.352492  1.526051  -0.243019
H    -3.553927  2.896868  1.732074
H    -4.901069  0.579241  -0.142308
H    -3.968489  1.585836  -1.271157
H    -5.060192  2.349942  -0.097681
Pb    -1.223313  -1.822711  -1.209595
