34
Energy: -608351.247976 eV PBE+vdW (tier 2 basis)
C    -0.208793  1.439286  -0.014245
C    -0.213071  0.987990  1.410710
O    0.781570  1.294925  2.205683
H    -0.165257  2.537671  -0.054720
H    -1.097897  1.111274  -0.562077
H    0.677169  1.036674  -0.527664
N    -1.212697  0.282467  1.863356
C    -1.451534  -0.287199  3.196322
C    -2.390993  -1.476421  2.840094
O    -3.111282  -1.331986  1.843643
H    -2.005565  -0.008301  1.247934
H    -0.496844  -0.605353  3.632651
C    -2.133312  0.791519  4.082106
C    -2.568908  0.378153  5.500028
C    -3.979789  -0.218180  5.593527
C    -4.393048  -0.498620  7.045698
N    -5.717250  -1.041992  7.137090
H    -3.000330  1.179522  3.526441
H    -1.414720  1.620063  4.157725
H    -2.537000  1.287095  6.119194
H    -1.828601  -0.301482  5.949769
H    -4.068669  -1.151298  5.020711
H    -4.696917  0.488240  5.145250
H    -4.309745  0.446733  7.628267
H    -3.699095  -1.204495  7.527445
H    -6.478811  -0.545324  6.682226
H    -5.987016  -1.522869  7.989994
N    -2.393809  -2.594328  3.585246
C    -1.600244  -2.953384  4.753029
H    -3.061309  -3.288479  3.250965
H    -1.248036  -3.985791  4.646704
H    -2.190318  -2.880607  5.677104
H    -0.722997  -2.306791  4.846342
Pb    2.706323  2.311972  2.044707
