34
Energy: -608352.3021 eV PBE+vdW (tier 2 basis)
C    -0.061150  1.526343  1.688957
C    -0.500281  0.634554  2.791513
O    -0.014083  0.788943  3.972491
H    -0.325624  2.571028  1.907067
H    -0.457249  1.229459  0.714400
H    1.039301  1.493862  1.660462
N    -1.403547  -0.339459  2.590421
C    -2.645164  -0.148047  1.840436
C    -3.487922  0.853673  2.641215
O    -3.211067  1.114072  3.881158
H    -1.456283  -1.035291  3.337885
H    -2.436762  0.242958  0.820959
C    -3.376144  -1.491420  1.640038
C    -2.500511  -2.598165  1.027344
C    -1.736054  -2.285395  -0.269912
C    -2.554040  -1.695939  -1.425099
N    -2.633997  -0.214100  -1.340708
H    -4.240363  -1.292995  0.993149
H    -3.789053  -1.840539  2.600461
H    -3.172915  -3.451419  0.851839
H    -1.777914  -2.960562  1.776192
H    -1.285766  -3.229892  -0.605003
H    -0.877759  -1.621526  -0.068087
H    -3.579541  -2.092876  -1.410711
H    -2.112870  -2.017776  -2.381019
H    -1.746124  0.179078  -1.664240
H    -3.319975  0.123187  -2.020667
N    -4.527416  1.456686  2.104061
C    -5.030475  1.364926  0.730608
H    -5.050413  2.058196  2.743281
H    -5.223746  2.379729  0.364601
H    -5.971268  0.799660  0.718047
H    -4.290505  0.882525  0.082713
Pb    -1.649356  1.142264  5.507111
