34
Energy: -608352.222174 eV PBE+vdW (tier 2 basis)
C    -0.329422  -0.134787  0.284835
C    -0.278751  -0.191730  1.744011
O    0.847636  -0.024122  2.370469
H    0.676130  -0.014359  -0.125864
H    -1.017497  0.712187  -0.064475
H    -0.799401  -1.029464  -0.148542
N    -1.373011  -0.389403  2.518400
C    -2.420493  -1.387759  2.275390
C    -1.722525  -2.771755  2.284411
O    -0.537356  -2.922143  2.759085
H    -1.238533  -0.132551  3.494671
H    -3.046553  -1.361969  3.182531
C    -3.346127  -1.104570  1.072492
C    -3.909392  0.324730  1.090138
C    -4.483893  0.788522  -0.256641
C    -3.477914  0.928577  -1.404251
N    -2.307127  1.752959  -1.038022
H    -4.187312  -1.814733  1.109849
H    -2.815564  -1.306706  0.133027
H    -3.120900  1.023887  1.400960
H    -4.694446  0.393619  1.857185
H    -4.972681  1.760787  -0.091315
H    -5.285670  0.111092  -0.586604
H    -4.013304  1.338947  -2.275643
H    -3.100447  -0.056731  -1.723565
H    -1.767375  1.983110  -1.874890
H    -2.605458  2.649074  -0.644130
N    -2.377385  -3.819943  1.831409
C    -1.870479  -5.197500  1.843140
H    -3.308472  -3.661589  1.452704
H    -2.673585  -5.860455  1.512115
H    -1.561670  -5.476679  2.856644
H    -1.016635  -5.295190  1.161903
Pb    1.353687  -1.879638  3.512871
