34
Energy: -608352.100912 eV PBE+vdW (tier 2 basis)
C    -1.272562  -1.121743  -0.801182
C    -0.777099  -1.131843  0.602339
O    -0.190897  -2.175065  1.054431
H    -1.136143  -0.149560  -1.284371
H    -2.347096  -1.369223  -0.819686
H    -0.750970  -1.903692  -1.363041
N    -0.929211  -0.075525  1.431034
C    -2.169235  0.699783  1.614024
C    -3.253654  -0.302299  2.091423
O    -2.941019  -1.467469  2.518005
H    -0.364882  -0.153675  2.277086
H    -1.958999  1.345808  2.481905
C    -2.575304  1.631820  0.455157
C    -1.452741  2.582831  0.025192
C    -1.903274  3.565527  -1.062078
C    -0.815449  4.586438  -1.433406
N    -0.493349  5.463211  -0.324312
H    -3.419519  2.245740  0.809435
H    -2.957461  1.053090  -0.397856
H    -0.587591  2.004623  -0.337586
H    -1.092761  3.153822  0.895630
H    -2.802624  4.108386  -0.727395
H    -2.194055  3.023830  -1.975153
H    -1.162924  5.149365  -2.321099
H    0.104382  4.066538  -1.736892
H    0.421570  5.903981  -0.375360
H    -1.208460  6.152668  -0.099950
N    -4.516694  0.077724  2.091486
C    -5.631713  -0.738590  2.585480
H    -4.730779  1.004689  1.733009
H    -5.459440  -1.021717  3.630179
H    -5.740621  -1.644031  1.976846
H    -6.546976  -0.145653  2.516761
Pb    -1.328037  -3.087924  2.825733
