34
Energy: -608352.145831 eV PBE+vdW (tier 2 basis)
C    0.553868  -0.809224  0.971779
C    0.389207  -0.254953  2.341985
O    1.416978  -0.034219  3.069100
H    -0.376168  -1.197369  0.547074
H    1.298912  -1.615790  1.023351
H    0.979889  -0.045817  0.302748
N    -0.832056  0.025262  2.843066
C    -1.865694  0.755387  2.106842
C    -1.326677  2.181551  1.869034
O    -0.329128  2.625671  2.544802
H    -0.838439  0.208160  3.848653
H    -2.028401  0.264088  1.137089
C    -3.179285  0.767059  2.919532
C    -3.806484  -0.617322  3.122905
C    -4.322174  -1.289717  1.846083
C    -5.151117  -2.553971  2.141884
N    -6.355534  -2.242335  2.885319
H    -3.896324  1.428231  2.413529
H    -2.974631  1.241197  3.894134
H    -4.652490  -0.493397  3.814767
H    -3.096859  -1.286186  3.636668
H    -3.494952  -1.584803  1.179413
H    -4.947334  -0.581614  1.275562
H    -4.554116  -3.258394  2.738053
H    -5.369570  -3.060761  1.182749
H    -6.724817  -3.002355  3.450289
H    -7.098654  -1.804281  2.344962
N    -1.894844  2.978900  0.981659
C    -3.031840  2.719235  0.095276
H    -1.489621  3.915297  0.933757
H    -3.198997  1.645798  -0.026825
H    -2.813065  3.153495  -0.886199
H    -3.941019  3.186698  0.494810
Pb    1.566375  2.153466  3.760668
