34
Energy: -608353.268116 eV PBE+vdW (tier 2 basis)
C    -0.797542  0.436209  -0.780195
C    -1.264428  1.163822  0.436214
O    -1.553735  2.407860  0.326403
H    -1.544828  0.537149  -1.578355
H    -0.591761  -0.624484  -0.603670
H    0.119303  0.923852  -1.142987
N    -1.342487  0.497652  1.588493
C    -1.564465  0.966594  2.977322
C    -3.021005  1.339933  3.262475
O    -3.679900  2.173864  2.517128
H    -1.094551  -0.486195  1.517197
H    -1.367326  0.071433  3.574390
C    -0.570085  2.055361  3.441763
C    -0.618859  2.346323  4.953434
C    0.072267  1.341335  5.895928
C    -0.408654  -0.112334  5.945476
N    -1.871648  -0.246502  6.197860
H    -0.746520  2.991451  2.888858
H    0.438113  1.725254  3.149668
H    -1.658746  2.519065  5.272272
H    -0.116462  3.311606  5.105571
H    0.009378  1.761350  6.911927
H    1.147870  1.313423  5.664708
H    0.170600  -0.631705  6.723565
H    -0.181030  -0.643886  5.008415
H    -2.089294  -1.230751  6.378025
H    -2.103670  0.238309  7.070619
N    -3.560214  0.822455  4.330605
C    -4.917431  1.132875  4.776366
H    -2.892684  0.296904  5.040351
H    -5.123829  0.548504  5.677330
H    -5.646112  0.866964  4.001776
H    -5.022821  2.201567  5.006148
Pb    -3.198627  3.721628  1.027895
