34
Energy: -608352.617623 eV PBE+vdW (tier 2 basis)
C    -1.429160  4.293815  0.077980
C    -1.050922  3.463280  1.259373
O    0.184526  3.230502  1.467500
H    -1.065059  3.793911  -0.830918
H    -0.913359  5.261639  0.135433
H    -2.507446  4.460753  -0.011999
N    -2.030905  2.989349  2.038589
C    -1.966598  2.034883  3.168411
C    -1.317894  2.687108  4.395779
O    -0.045882  2.801334  4.496526
H    -2.968798  3.248219  1.745240
H    -3.017178  1.844259  3.418522
C    -1.333921  0.664652  2.836978
C    -2.234831  -0.292520  2.042793
C    -2.646274  0.134579  0.631041
C    -3.234930  -1.050198  -0.165004
N    -2.240542  -2.090920  -0.367702
H    -1.072737  0.186371  3.793747
H    -0.387864  0.795267  2.280964
H    -3.131380  -0.514525  2.645047
H    -1.691181  -1.245393  1.952557
H    -1.773670  0.526305  0.079824
H    -3.400569  0.937612  0.648237
H    -3.650999  -0.665617  -1.112688
H    -4.078221  -1.478554  0.394603
H    -1.647138  -1.944064  -1.181504
H    -2.625425  -3.031405  -0.399070
N    -2.065655  3.106746  5.400361
C    -3.527992  3.073752  5.541410
H    -1.537089  3.490416  6.185931
H    -3.891929  2.044369  5.647962
H    -4.018983  3.568232  4.695636
H    -3.786319  3.624331  6.450088
Pb    1.651176  2.586521  3.039866
