34
Energy: -608351.238804 eV PBE+vdW (tier 2 basis)
C    0.350287  -0.858159  0.388741
C    0.050088  0.230296  1.367518
O    0.922417  1.174867  1.598242
H    1.254344  -1.399876  0.703856
H    0.535956  -0.421958  -0.603733
H    -0.466000  -1.581875  0.298339
N    -1.094153  0.237899  2.001040
C    -1.607443  1.190408  2.996741
C    -2.569374  0.298704  3.822621
O    -3.221433  -0.547246  3.191047
H    -1.792439  -0.508881  1.840344
H    -0.766699  1.579365  3.582295
C    -2.347387  2.336791  2.258117
C    -3.143675  3.326966  3.123762
C    -4.548889  2.902227  3.595510
C    -5.576362  2.641469  2.489158
N    -5.358591  1.413393  1.766463
H    -3.018017  1.878913  1.514117
H    -1.580946  2.889738  1.695469
H    -3.251079  4.247779  2.531265
H    -2.552841  3.623550  4.004682
H    -4.945873  3.717201  4.216507
H    -4.509251  2.025510  4.257924
H    -5.604274  3.471578  1.765056
H    -6.583800  2.636541  2.961894
H    -5.168691  0.571114  2.309204
H    -5.948996  1.247173  0.955136
N    -2.664472  0.451858  5.152471
C    -2.031522  1.420860  6.040572
H    -3.333500  -0.188911  5.578715
H    -2.725609  2.230274  6.304841
H    -1.143968  1.859612  5.576166
H    -1.717985  0.914485  6.960221
Pb    2.952614  1.720972  0.989938
