34
Energy: -608352.447344 eV PBE+vdW (tier 2 basis)
C    1.339873  1.341308  1.312456
C    1.143949  0.121098  2.136103
O    2.183895  -0.487092  2.590321
H    2.101643  1.947058  1.828056
H    0.430613  1.932140  1.189913
H    1.774004  1.090921  0.333271
N    -0.065627  -0.343070  2.520239
C    -1.213700  -0.752169  1.688964
C    -0.997959  -2.239833  1.330924
O    0.169152  -2.807040  1.428544
H    0.017076  -0.940962  3.344322
H    -2.090739  -0.711985  2.348773
C    -1.509146  0.099084  0.438433
C    -2.410587  1.311660  0.732693
C    -3.919778  1.058965  0.570367
C    -4.591003  -0.017480  1.432279
N    -4.411328  -1.412214  0.911545
H    -2.001686  -0.551432  -0.294806
H    -0.570179  0.394963  -0.043974
H    -2.139722  2.125027  0.045280
H    -2.202732  1.696991  1.744308
H    -4.141506  0.855424  -0.490972
H    -4.431449  2.006612  0.789427
H    -5.664330  0.213133  1.493328
H    -4.214442  0.009489  2.466497
H    -5.050540  -2.022965  1.430181
H    -4.764031  -1.436625  -0.050964
N    -2.061171  -2.872813  0.924725
C    -2.111617  -4.260220  0.477904
H    -2.995265  -2.281207  0.913789
H    -2.761933  -4.835756  1.149414
H    -1.112987  -4.702843  0.468241
H    -2.538440  -4.297881  -0.532222
Pb    2.256595  -2.729574  2.212125
