34
Energy: -608352.709959 eV PBE+vdW (tier 2 basis)
C    -0.170863  1.153734  0.500998
C    -0.262068  0.279620  1.707734
O    0.413074  -0.800075  1.728799
H    -0.773932  2.064677  0.572800
H    -0.497463  0.574214  -0.374401
H    0.879905  1.422709  0.328244
N    -1.062669  0.664508  2.710416
C    -1.469353  -0.053129  3.941650
C    -0.323227  -0.079444  4.961801
O    0.676821  -0.864062  4.811301
H    -1.538877  1.549558  2.556450
H    -2.268735  0.571699  4.356602
C    -2.087194  -1.445091  3.722484
C    -2.805658  -1.957484  4.969440
C    -3.464198  -3.327588  4.772815
C    -4.325045  -3.728335  5.977577
N    -5.379574  -2.748176  6.213253
H    -1.323315  -2.186692  3.401179
H    -2.783543  -1.371414  2.874455
H    -3.598789  -1.246121  5.257696
H    -2.108495  -2.006185  5.824066
H    -2.706131  -4.107836  4.601021
H    -4.095769  -3.304812  3.869226
H    -3.700814  -3.777916  6.881926
H    -4.714300  -4.749409  5.811022
H    -6.131715  -2.795479  5.526164
H    -5.787744  -2.816783  7.143464
N    -0.362852  0.695610  6.030130
C    -1.405739  1.646403  6.441159
H    0.439358  0.593773  6.654124
H    -1.557057  2.422159  5.681424
H    -1.066295  2.134653  7.358607
H    -2.348877  1.128996  6.654231
Pb    1.330392  -2.257397  3.162852
