34
Energy: -608351.134464 eV PBE+vdW (tier 2 basis)
C    -0.478444  -0.153733  -0.924514
C    -0.811793  -0.884614  0.328767
O    -0.289774  -2.049401  0.572998
H    -1.249930  0.566590  -1.214146
H    -0.329068  -0.862024  -1.747014
H    0.457380  0.404424  -0.763896
N    -1.631228  -0.391859  1.235999
C    -2.262937  0.938378  1.256123
C    -1.169050  2.036018  1.242222
O    -0.056881  1.809120  1.732299
H    -1.731884  -0.952508  2.083022
H    -2.905571  1.021838  0.368021
C    -3.144996  1.061359  2.518432
C    -2.412044  0.839180  3.867056
C    -2.553642  1.985422  4.875625
C    -1.800388  3.301028  4.501045
N    -0.377137  3.191679  4.443025
H    -3.984387  0.359665  2.413628
H    -3.603768  2.058977  2.488543
H    -1.339009  0.650629  3.701990
H    -2.810219  -0.067437  4.344388
H    -2.187247  1.651724  5.856129
H    -3.614062  2.250317  5.009026
H    -2.067754  4.059035  5.249630
H    -2.165277  3.663221  3.526535
H    0.073326  2.757297  3.639560
H    0.170018  3.263416  5.293666
N    -1.511210  3.229680  0.713576
C    -2.775490  3.640928  0.103511
H    -0.773816  3.928340  0.779188
H    -3.082718  2.957676  -0.698989
H    -2.630925  4.627955  -0.344812
H    -3.586923  3.720229  0.839360
Pb    1.043712  -3.687017  0.031298
