34
Energy: -608352.67082 eV PBE+vdW (tier 2 basis)
C    0.587023  1.098404  0.051802
C    0.208242  1.422353  1.456412
O    0.069652  2.644853  1.797429
H    -0.181939  1.502680  -0.622005
H    0.694853  0.024083  -0.129445
H    1.527180  1.608411  -0.197889
N    0.005564  0.425851  2.326219
C    -0.518879  0.584722  3.689375
C    0.569585  1.182608  4.610217
O    0.511638  2.439769  4.876833
H    0.087135  -0.524685  1.970503
H    -1.286789  1.374436  3.648653
C    -1.219554  -0.692614  4.166241
C    -1.789967  -0.575387  5.586870
C    -2.629351  -1.789903  6.020200
C    -4.014836  -1.897663  5.372458
N    -3.950907  -2.183524  3.935108
H    -0.546106  -1.559267  4.097097
H    -2.053138  -0.895021  3.472784
H    -2.413908  0.332001  5.657093
H    -0.973567  -0.437316  6.315013
H    -2.776009  -1.733079  7.107759
H    -2.063248  -2.720232  5.845576
H    -4.557423  -0.949576  5.503242
H    -4.592778  -2.661951  5.923488
H    -3.666305  -3.147039  3.753137
H    -4.852123  -2.040789  3.480002
N    1.559046  0.486067  5.135718
C    1.881669  -0.940000  5.026316
H    2.179760  1.041756  5.727164
H    2.937902  -1.061234  5.283890
H    1.735757  -1.300240  4.004066
H    1.279267  -1.533122  5.725415
Pb    -0.038203  4.128807  3.490876
