34
Energy: -608351.531046 eV PBE+vdW (tier 2 basis)
C    -1.004023  -0.454480  -0.327031
C    -1.078906  0.407448  0.885553
O    -0.789402  1.679107  0.756499
H    -1.368534  -1.469831  -0.150614
H    0.040068  -0.509557  -0.667480
H    -1.586937  0.001964  -1.137730
N    -1.400123  -0.027519  2.073188
C    -1.848609  -1.349533  2.522853
C    -2.557581  -0.989768  3.867764
O    -2.374239  0.143010  4.337033
H    -1.511478  0.622492  2.894609
H    -2.583534  -1.747479  1.808176
C    -0.701424  -2.368340  2.712631
C    0.309526  -2.026433  3.812227
C    1.374204  -3.119330  3.962335
C    2.375882  -2.818437  5.087985
N    3.365094  -3.850704  5.215248
H    -0.187108  -2.498635  1.747734
H    -1.169244  -3.341724  2.926740
H    -0.215641  -1.888970  4.770560
H    0.796888  -1.063009  3.590750
H    1.932627  -3.246285  3.022630
H    0.883266  -4.084825  4.166936
H    1.813287  -2.680997  6.038052
H    2.896757  -1.867484  4.903608
H    3.052103  -4.804532  5.373800
H    4.244615  -3.624749  5.668925
N    -3.297431  -1.949623  4.432094
C    -4.009037  -1.784100  5.699309
H    -3.408577  -2.830772  3.940227
H    -3.711376  -2.570538  6.402639
H    -5.092354  -1.837617  5.536794
H    -3.753171  -0.806258  6.114993
Pb    -0.730653  3.770279  0.324430
