34
Energy: -608353.158766 eV PBE+vdW (tier 2 basis)
C    0.156880  1.417042  -0.313651
C    0.176558  0.966599  1.108372
O    1.184784  1.283315  1.837214
H    -0.745970  1.115913  -0.854801
H    1.036970  0.994796  -0.820981
H    0.263040  2.509080  -0.357508
N    -0.839826  0.236061  1.564340
C    -0.994287  -0.521690  2.821798
C    -1.208924  0.318562  4.079533
O    -0.567599  1.418983  4.324506
H    -1.574482  0.069391  0.881001
H    -1.943198  -1.051781  2.678687
C    0.084959  -1.610048  3.046858
C    -0.170175  -2.886741  2.231910
C    -1.541739  -3.562756  2.421805
C    -1.985943  -3.859499  3.864341
N    -2.892402  -2.806485  4.424093
H    0.087256  -1.854400  4.119148
H    1.084429  -1.213887  2.819337
H    0.620364  -3.601282  2.503642
H    -0.023078  -2.684303  1.159824
H    -1.500490  -4.512604  1.872183
H    -2.339652  -2.995054  1.911258
H    -1.117167  -3.940547  4.533089
H    -2.489895  -4.835675  3.892831
H    -3.766151  -2.818635  3.888165
H    -3.174521  -3.103188  5.363930
N    -2.051335  -0.194603  4.935948
C    -2.363267  0.363772  6.247494
H    -2.437384  -1.188429  4.697842
H    -3.451118  0.361178  6.382850
H    -1.989086  1.386684  6.330860
H    -1.913483  -0.258076  7.033521
Pb    1.415931  2.234303  3.827563
