34
Energy: -608352.722273 eV PBE+vdW (tier 2 basis)
C    -0.428761  0.086766  -0.140652
C    -0.406006  -0.051049  1.346410
O    0.653833  -0.485522  1.903039
H    -0.214094  -0.894924  -0.586047
H    0.380943  0.759543  -0.454070
H    -1.381531  0.457989  -0.531982
N    -1.509341  0.279866  2.029710
C    -1.836674  0.089534  3.461602
C    -1.080497  1.083235  4.355267
O    0.171945  0.980385  4.576505
H    -2.278731  0.614739  1.456178
H    -2.902376  0.351045  3.521357
C    -1.714133  -1.361345  3.969568
C    -2.629882  -2.347488  3.233268
C    -2.584710  -3.750746  3.847468
C    -3.550604  -4.728994  3.158527
N    -3.517163  -6.027432  3.790513
H    -1.969216  -1.343664  5.040746
H    -0.672898  -1.719539  3.912765
H    -2.352876  -2.397963  2.168220
H    -3.664751  -1.967162  3.267421
H    -2.843112  -3.707266  4.916050
H    -1.559440  -4.152632  3.788315
H    -3.308666  -4.777114  2.076022
H    -4.578312  -4.345258  3.230236
H    -4.346645  -6.600264  3.664440
H    -2.668298  -6.570673  3.654390
N    -1.783483  2.040383  4.935901
C    -1.253451  3.050256  5.855565
H    -2.778109  2.087909  4.727053
H    -0.267237  2.740026  6.207327
H    -1.937864  3.149018  6.704974
H    -1.175085  4.017196  5.342357
Pb    1.867224  -0.285855  3.783553
