34
Energy: -608351.360943 eV PBE+vdW (tier 2 basis)
C    1.035520  -0.302177  -0.085433
C    0.791061  -0.107012  1.380214
O    1.718121  -0.282006  2.205894
H    1.412901  -1.321353  -0.243457
H    1.832402  0.380929  -0.407032
H    0.149161  -0.147125  -0.709235
N    -0.457038  0.277603  1.751884
C    -1.075120  0.354900  3.088351
C    -0.287369  1.134504  4.137521
O    -1.002482  1.822205  4.984568
H    -1.115468  0.412103  0.990778
H    -1.976781  0.964239  2.939069
C    -1.572448  -1.003884  3.666138
C    -0.556441  -2.137773  3.895226
C    -0.389484  -3.098827  2.708616
C    0.530992  -4.288470  3.020541
N    -0.014583  -5.161290  4.029562
H    -2.371292  -1.349051  2.992525
H    -2.079353  -0.758075  4.611675
H    -0.905057  -2.727672  4.755063
H    0.426575  -1.740913  4.192500
H    0.023250  -2.588091  1.828505
H    -1.377961  -3.479056  2.402820
H    1.515578  -3.938787  3.363190
H    0.712734  -4.838821  2.073240
H    0.635641  -5.772551  4.515528
H    -0.896953  -5.620796  3.815096
N    1.012456  1.065851  4.203210
C    1.812703  1.765635  5.185639
H    1.460543  0.428296  3.392715
H    2.872187  1.548723  5.012300
H    1.577524  1.427563  6.211725
H    1.692601  2.861469  5.095434
Pb    -0.878012  3.187831  6.671401
