34
Energy: -608352.702633 eV PBE+vdW (tier 2 basis)
C    0.481838  0.846410  0.505491
C    0.085008  0.771922  1.940726
O    0.834774  1.320484  2.819070
H    -0.221164  0.340301  -0.164055
H    0.553315  1.905651  0.218650
H    1.484339  0.416272  0.379362
N    -1.054158  0.155875  2.266287
C    -1.722788  0.150340  3.574286
C    -1.102570  -0.933618  4.478721
O    0.033830  -0.708002  5.032130
H    -1.602884  -0.229524  1.498709
H    -1.450871  1.093831  4.075173
C    -3.264408  0.170893  3.394448
C    -3.920879  -0.633881  2.259421
C    -3.947121  -2.163670  2.349217
C    -4.913946  -2.785451  1.314869
N    -6.274915  -2.327947  1.531724
H    -3.523658  1.227105  3.235830
H    -3.719698  -0.090485  4.361742
H    -3.520966  -0.327310  1.275098
H    -4.970297  -0.303885  2.223564
H    -4.302897  -2.471731  3.352226
H    -2.952108  -2.614218  2.188863
H    -4.812134  -3.884183  1.356799
H    -4.600982  -2.481122  0.305936
H    -6.829362  -2.264384  0.682015
H    -6.788753  -2.866293  2.226438
N    -1.737809  -2.061913  4.699527
C    -1.266888  -3.162409  5.542182
H    -2.631263  -2.192045  4.221228
H    -2.076998  -3.465323  6.215006
H    -0.403396  -2.835270  6.124601
H    -0.985624  -4.016564  4.913018
Pb    1.551106  0.952424  4.908732
