34
Energy: -608351.521979 eV PBE+vdW (tier 2 basis)
C    -0.512008  -1.293638  -0.753006
C    -0.205721  -0.978135  0.698443
O    1.051871  -0.400143  0.855227
H    0.230880  -1.986885  -1.165055
H    -0.525967  -0.359788  -1.327541
H    -1.501660  -1.755890  -0.844055
N    -1.201600  -0.221078  1.397728
C    -2.098037  -1.165667  2.091769
C    -1.261589  -2.427790  2.148702
O    -0.153817  -2.330964  1.432540
H    -0.750397  0.414110  2.055075
H    -2.264556  -0.804304  3.116248
C    -3.474820  -1.389064  1.407043
C    -4.650923  -0.778139  2.178109
C    -4.915682  -1.341374  3.584226
C    -5.145015  -2.858880  3.674988
N    -3.925033  -3.595916  4.131089
H    -3.642497  -2.464936  1.253515
H    -3.424082  -0.938358  0.407365
H    -5.554017  -0.919080  1.566029
H    -4.512152  0.311375  2.253023
H    -5.804789  -0.829892  3.975998
H    -4.108861  -1.059177  4.283226
H    -5.433271  -3.272460  2.698592
H    -5.976895  -3.069186  4.361208
H    -3.723307  -3.322571  5.097980
H    -4.151104  -4.594035  4.185713
N    -1.593386  -3.501259  2.782263
C    -0.802548  -4.732097  2.783032
H    -2.580529  -3.498321  3.339671
H    -1.466904  -5.568757  3.020887
H    -0.015221  -4.682278  3.546597
H    -0.342312  -4.903319  1.803990
Pb    2.941605  0.194759  0.349352
