34
Energy: -608352.117602 eV PBE+vdW (tier 2 basis)
C    0.084693  -0.028773  0.163660
C    -0.116095  0.228893  1.612572
O    0.803298  0.801754  2.296659
H    -0.680877  -0.676793  -0.271471
H    1.070382  -0.504499  0.046277
H    0.142112  0.919755  -0.390980
N    -1.257528  -0.123354  2.238564
C    -2.603754  0.171030  1.722595
C    -2.651221  1.695722  1.513399
O    -1.944161  2.472052  2.274260
H    -1.200160  -0.110788  3.259054
H    -2.749944  -0.336886  0.759715
C    -3.622579  -0.383297  2.749660
C    -5.113498  -0.241717  2.410872
C    -5.759964  1.072312  2.864598
C    -7.199407  1.250596  2.356228
N    -7.263727  1.324069  0.885819
H    -3.418164  0.085132  3.728143
H    -3.364977  -1.447996  2.849343
H    -5.635720  -1.074729  2.903162
H    -5.268659  -0.403716  1.333667
H    -5.172223  1.945042  2.537977
H    -5.773065  1.107203  3.965066
H    -7.606524  2.177603  2.778522
H    -7.825740  0.429448  2.740207
H    -7.608128  0.458944  0.471409
H    -7.886423  2.067487  0.573515
N    -3.366447  2.246885  0.553501
C    -4.285087  1.639629  -0.407286
H    -3.322967  3.267894  0.540692
H    -5.325750  1.641459  -0.007105
H    -3.992123  0.608772  -0.629380
H    -4.243763  2.226582  -1.330568
Pb    0.050025  2.714122  3.306154
