34
Energy: -608352.799648 eV PBE+vdW (tier 2 basis)
C    -0.923053  0.543922  0.295364
C    -0.479731  0.320945  1.702040
O    0.732185  -0.024453  1.910222
H    -1.971929  0.845876  0.210114
H    -0.769110  -0.386566  -0.270093
H    -0.282954  1.305688  -0.169883
N    -1.372809  0.474080  2.685489
C    -1.260258  0.178793  4.132817
C    -0.453836  1.275405  4.840454
O    0.817970  1.370796  4.667123
H    -2.300021  0.757806  2.378186
H    -2.292706  0.237913  4.497094
C    -0.763462  -1.233637  4.493123
C    -1.186209  -1.627943  5.915720
C    -2.652948  -2.076744  6.016364
C    -3.197524  -1.951900  7.446444
N    -3.414810  -0.535584  7.803911
H    0.344061  -1.312840  4.413022
H    -1.152320  -1.944318  3.749709
H    -1.013145  -0.783358  6.603511
H    -0.536787  -2.441939  6.265130
H    -2.743366  -3.116152  5.669419
H    -3.302917  -1.478023  5.354606
H    -2.479490  -2.392864  8.151988
H    -4.119015  -2.547555  7.530863
H    -4.397822  -0.294124  7.669085
H    -3.233457  -0.386491  8.796505
N    -1.048843  2.134648  5.639137
C    -2.464014  2.193733  6.037035
H    -0.420110  2.819527  6.063208
H    -3.108853  2.332929  5.160647
H    -2.584715  3.066753  6.684112
H    -2.746074  1.284487  6.601127
Pb    2.271662  0.120258  3.517664
