34
Energy: -608352.156523 eV PBE+vdW (tier 2 basis)
C    0.882108  1.266373  0.247905
C    0.554479  0.708785  1.585067
O    1.459263  0.632102  2.487848
H    0.080761  1.135604  -0.484214
H    1.785713  0.750197  -0.111642
H    1.157354  2.328256  0.330384
N    -0.690054  0.278245  1.880691
C    -1.907879  1.055791  1.609694
C    -1.712969  2.419081  2.291996
O    -1.004968  2.499213  3.373832
H    -0.748616  -0.289777  2.728654
H    -2.045511  1.181699  0.527357
C    -3.103477  0.270679  2.208501
C    -4.501750  0.847085  1.970002
C    -5.019133  0.723237  0.534127
C    -6.354225  1.456249  0.321136
N    -6.229672  2.910424  0.531531
H    -2.927993  0.173586  3.293084
H    -3.038959  -0.742329  1.780883
H    -4.547880  1.895312  2.305041
H    -5.184437  0.304361  2.640842
H    -5.156644  -0.339000  0.281158
H    -4.291451  1.119529  -0.193383
H    -7.110144  1.035816  1.001554
H    -6.706075  1.256508  -0.699022
H    -6.539162  3.438920  -0.282283
H    -6.778491  3.235636  1.325328
N    -2.263931  3.519504  1.820516
C    -3.046901  3.726796  0.600433
H    -2.113240  4.344206  2.404783
H    -2.695548  3.064934  -0.197802
H    -2.897529  4.763853  0.284085
H    -4.130656  3.543051  0.762598
Pb    0.868561  1.752352  4.398013
