34
Energy: -608352.982231 eV PBE+vdW (tier 2 basis)
C    -0.305342  -1.967398  1.376966
C    -1.148483  -1.123619  2.274262
O    -2.205661  -1.634291  2.800627
H    0.547387  -1.431933  0.947027
H    -0.917771  -2.389202  0.569390
H    0.068390  -2.819721  1.964296
N    -0.769567  0.128766  2.514019
C    -1.228718  1.106083  3.519625
C    -2.732628  1.387860  3.547321
O    -3.557352  0.957953  2.637973
H    0.080009  0.416271  2.031465
H    -0.984784  0.686750  4.508996
C    -0.407543  2.410582  3.307206
C    0.945496  2.425450  4.042988
C    0.947067  3.069498  5.439114
C    0.057017  2.471573  6.533236
N    -1.367901  2.925984  6.456475
H    -1.011334  3.270874  3.617142
H    -0.270983  2.538462  2.222065
H    1.663240  2.984548  3.427561
H    1.354889  1.402925  4.109166
H    0.721332  4.144981  5.342881
H    1.980924  3.030644  5.809846
H    0.475941  2.749208  7.511032
H    0.064049  1.371347  6.496934
H    -2.375133  2.449310  5.301585
H    -1.836212  2.652203  7.325962
N    -3.133178  2.122536  4.546855
C    -4.516993  2.547827  4.734594
H    -1.376325  3.951143  6.471797
H    -4.532179  3.359264  5.468481
H    -5.133856  1.724297  5.122856
H    -4.948280  2.904558  3.792658
Pb    -4.317519  -1.084735  2.346599
