34
Energy: -608351.831157 eV PBE+vdW (tier 2 basis)
C    -0.602867  1.237064  0.974107
C    -0.262872  0.889915  2.380280
O    0.817735  1.448617  2.849152
H    0.267258  1.026258  0.337399
H    -0.793103  2.316414  0.900194
H    -1.471214  0.685636  0.605509
N    -1.040289  0.077930  3.064101
C    -0.803158  -0.644822  4.321785
C    -0.338832  0.161745  5.522320
O    -0.836385  -0.254402  6.690385
H    -1.870940  -0.418472  2.529004
H    -1.792489  -1.035737  4.598597
C    0.149469  -1.856556  4.113190
C    -0.196162  -2.740598  2.905362
C    -1.614597  -3.359769  2.862712
C    -2.528667  -2.833424  1.752792
N    -3.015554  -1.442473  1.997460
H    0.122329  -2.454364  5.037166
H    1.178389  -1.482323  4.002059
H    0.550638  -3.545553  2.901759
H    -0.008524  -2.179360  1.977595
H    -2.122709  -3.266349  3.838032
H    -1.521564  -4.442078  2.703168
H    -3.378750  -3.518928  1.622599
H    -1.979739  -2.824555  0.801038
H    -3.770909  -1.469831  2.688345
H    -3.459556  -1.089022  1.145947
N    0.523049  1.117078  5.418562
C    0.981861  1.807920  6.577003
H    0.875772  1.341702  3.868400
H    1.700365  2.600038  6.327193
H    1.539295  1.130740  7.281226
H    0.149280  2.336096  7.116559
Pb    -0.480415  0.390682  8.693597
