34
Energy: -608353.128088 eV PBE+vdW (tier 2 basis)
C    -2.112188  -0.859975  0.482737
C    -1.336660  -0.609373  1.733889
O    -0.080513  -0.329959  1.600061
H    -3.150147  -1.142439  0.681787
H    -1.614900  -1.643188  -0.104522
H    -2.103068  0.050653  -0.132921
N    -1.968853  -0.678180  2.892103
C    -1.373110  -0.610373  4.239290
C    -0.656056  0.719308  4.501319
O    0.603945  0.867391  4.303472
H    -2.922069  -1.249153  2.934474
H    -2.241697  -0.603354  4.907053
C    -0.546382  -1.859610  4.601533
C    -1.203101  -3.193100  4.202006
C    -2.498000  -3.632971  4.914472
C    -3.777784  -2.795729  4.771448
N    -4.039958  -2.332774  3.376680
H    -0.338940  -1.829132  5.681842
H    0.447718  -1.828577  4.114965
H    -0.458204  -3.976967  4.397357
H    -1.349716  -3.212108  3.111196
H    -2.306840  -3.748925  5.991750
H    -2.712670  -4.649488  4.550981
H    -3.745767  -1.900550  5.409934
H    -4.616949  -3.398744  5.148798
H    -4.067243  -3.141491  2.748211
H    -4.977875  -1.925748  3.328173
N    -1.336162  1.739922  4.989750
C    -2.762658  1.808655  5.327602
H    -0.778772  2.577272  5.167478
H    -3.024116  2.861886  5.463446
H    -2.969865  1.277693  6.265885
H    -3.375941  1.405154  4.514844
Pb    1.827553  0.085824  2.608338
