34
Energy: -608352.359933 eV PBE+vdW (tier 2 basis)
C    -1.464890  -1.077677  -0.396343
C    -1.035518  -0.912629  1.013807
O    0.125043  -1.327906  1.385309
H    -0.710872  -0.673101  -1.084042
H    -2.449374  -0.645267  -0.594052
H    -1.505698  -2.161900  -0.594027
N    -1.835477  -0.339965  1.929404
C    -2.577542  0.900144  1.695293
C    -1.533575  2.000073  1.492155
O    -0.295465  1.821461  1.834444
H    -1.550539  -0.493774  2.900153
H    -3.235237  0.785967  0.791243
C    -3.503584  1.191686  2.895018
C    -4.568737  0.114816  3.162461
C    -5.780611  0.043542  2.217430
C    -5.587549  -0.589844  0.837186
N    -4.945440  0.326583  -0.140046
H    -3.991934  2.161664  2.728360
H    -2.880290  1.323192  3.796119
H    -4.946568  0.313697  4.175605
H    -4.095823  -0.879535  3.223837
H    -6.230804  1.044843  2.105563
H    -6.545684  -0.553072  2.734155
H    -6.568623  -0.929798  0.469776
H    -4.958514  -1.489949  0.919663
H    -4.899734  -0.133641  -1.052970
H    -5.566518  1.126853  -0.291197
N    -1.861310  3.169520  0.979175
C    -3.166304  3.620353  0.490404
H    -1.099144  3.848111  0.938188
H    -3.013662  4.177387  -0.440376
H    -3.638548  4.283485  1.226654
H    -3.812867  2.762926  0.288567
Pb    1.347651  0.349316  2.295446
