34
Energy: -608351.48985 eV PBE+vdW (tier 2 basis)
C    -0.283226  1.800480  0.575617
C    -0.397163  1.495653  2.037317
O    0.359390  2.040403  2.872861
H    -0.230084  2.886149  0.434413
H    -1.100871  1.387642  -0.024980
H    0.665983  1.382292  0.210792
N    -1.357596  0.609019  2.419311
C    -1.447783  -0.084494  3.713346
C    -1.697772  0.851370  4.895106
O    -2.593214  0.486904  5.767268
H    -1.947103  0.233784  1.683704
H    -2.344069  -0.714935  3.647636
C    -0.230154  -0.999488  4.015123
C    -0.074302  -2.124326  2.984759
C    1.095939  -3.078719  3.278567
C    2.494196  -2.500706  3.026673
N    2.715691  -2.180591  1.636303
H    -0.378820  -1.432631  5.017222
H    0.675027  -0.378073  4.068432
H    0.061847  -1.696269  1.980110
H    -1.003036  -2.714899  2.954294
H    0.972343  -3.980214  2.659014
H    1.051416  -3.429516  4.320372
H    3.237051  -3.243125  3.388816
H    2.677641  -1.591498  3.619003
H    2.579551  -2.941607  0.973105
H    3.547671  -1.635568  1.424124
N    -0.981500  1.936061  5.022227
C    -1.110640  2.876579  6.113848
H    -0.275117  2.082625  4.177447
H    -0.401120  3.698979  5.972179
H    -0.864164  2.404654  7.083473
H    -2.120258  3.328587  6.139070
Pb    -3.562079  1.120895  7.611540
