34
Energy: -608353.653248 eV PBE+vdW (tier 2 basis)
C    -0.325921  -1.353621  -0.045498
C    -0.746153  -0.520429  1.118039
O    -0.214977  0.618380  1.301761
H    0.744685  -1.583281  0.047520
H    -0.444406  -0.767726  -0.966953
H    -0.890100  -2.287853  -0.134438
N    -1.698283  -0.994920  1.945594
C    -2.221525  -0.197670  3.050946
C    -1.311968  -0.284740  4.286893
O    -0.534434  0.706476  4.511240
H    -2.099053  -1.906817  1.740833
H    -2.049295  0.830529  2.723262
C    -3.749819  -0.273759  3.276440
C    -4.384824  1.073792  2.886719
C    -3.857813  2.259230  3.740436
C    -3.352478  3.484134  2.981991
N    -2.138115  3.227297  2.122540
H    -3.974671  -0.497240  4.327848
H    -4.186914  -1.090703  2.684721
H    -5.474541  0.997920  2.984664
H    -4.207057  1.244946  1.811326
H    -3.068568  1.926578  4.433961
H    -4.662893  2.615982  4.396853
H    -3.074464  4.269291  3.695938
H    -4.145622  3.895543  2.339519
H    -1.873597  4.123555  1.696202
H    -2.407886  2.640754  1.324266
N    -1.297017  -1.318064  5.108346
C    -2.073981  -2.556249  5.058672
H    -0.638146  -1.228831  5.884747
H    -2.730733  -2.619712  5.935182
H    -1.388513  -3.412083  5.066693
H    -2.686340  -2.600813  4.155561
Pb    0.102899  2.268080  2.923084
