34
Energy: -608352.200197 eV PBE+vdW (tier 2 basis)
C    -2.558871  -3.826866  0.564259
C    -1.536729  -2.877826  1.078352
O    -0.300453  -3.204676  1.070212
H    -2.479316  -3.914856  -0.530110
H    -3.581265  -3.557412  0.843252
H    -2.320694  -4.822726  0.965002
N    -1.882139  -1.665684  1.561993
C    -2.812784  -0.752633  0.894899
C    -2.150116  -0.349167  -0.445156
O    -0.899990  -0.530168  -0.654650
H    -1.136174  -1.192738  2.076256
H    -3.749007  -1.287309  0.676821
C    -3.116444  0.439496  1.831964
C    -4.205512  1.407128  1.358340
C    -4.627178  2.381487  2.469235
C    -5.755357  3.329652  2.041189
N    -6.975151  2.610348  1.717937
H    -2.180412  0.988874  2.029058
H    -3.424184  -0.012001  2.787554
H    -5.100111  0.849477  1.033430
H    -3.854473  1.996074  0.495651
H    -3.767289  2.988504  2.789601
H    -4.950077  1.811261  3.355403
H    -5.452738  3.904639  1.153941
H    -5.907998  4.068603  2.851384
H    -7.644441  3.142244  1.166339
H    -7.442623  2.191947  2.520902
N    -2.902746  0.200525  -1.378885
C    -2.411238  0.664797  -2.681212
H    -3.888111  0.341262  -1.167698
H    -1.635310  1.427111  -2.545705
H    -3.251686  1.094915  -3.231313
H    -1.998626  -0.174513  -3.253293
Pb    0.999600  -1.715898  -0.095870
