34
Energy: -608352.533389 eV PBE+vdW (tier 2 basis)
C    -0.126526  0.534639  -0.131868
C    -0.123363  0.257551  1.332838
O    0.987805  0.190356  1.953743
H    0.352101  1.508985  -0.306366
H    -1.130810  0.545118  -0.567844
H    0.488071  -0.217081  -0.645050
N    -1.291531  0.101458  1.970565
C    -1.440372  -0.023155  3.428080
C    -0.948055  -1.414427  3.882272
O    0.200553  -1.488490  4.454608
H    -2.140027  0.216496  1.419972
H    -0.719955  0.674193  3.884237
C    -2.840434  0.440318  3.875596
C    -2.993287  0.692352  5.383715
C    -3.017339  -0.548068  6.282475
C    -3.335766  -0.200082  7.746185
N    -3.324688  -1.385685  8.580629
H    -3.618838  -0.249857  3.523202
H    -3.011706  1.393128  3.350551
H    -3.936322  1.243945  5.512200
H    -2.203660  1.385585  5.718144
H    -2.052563  -1.079353  6.277445
H    -3.775920  -1.259869  5.915156
H    -4.302540  0.340554  7.782692
H    -2.576902  0.495411  8.132064
H    -3.161241  -1.202033  9.567465
H    -4.138038  -1.988669  8.472943
N    -1.619025  -2.534984  3.690233
C    -2.928567  -2.771686  3.078366
H    -1.144151  -3.360507  4.060026
H    -2.929535  -3.789207  2.675075
H    -3.112352  -2.078400  2.253729
H    -3.728940  -2.687759  3.823775
Pb    2.107672  -0.455629  3.810806
