34
Energy: -608352.31113 eV PBE+vdW (tier 2 basis)
C    -2.192599  0.972041  0.050487
C    -1.253741  0.532650  1.117445
O    -0.079625  1.057931  1.185686
H    -1.863388  1.941881  -0.337123
H    -3.223391  1.035641  0.413385
H    -2.170992  0.258048  -0.790193
N    -1.579012  -0.422468  2.005320
C    -2.212699  -1.707523  1.664261
C    -1.349914  -2.371207  0.608986
O    -0.100965  -2.054381  0.455500
H    -0.969383  -0.467414  2.823800
H    -2.079964  -2.286284  2.641740
C    -3.730558  -1.691238  1.426197
C    -4.541968  -0.996965  2.534442
C    -4.698750  -1.741155  3.873041
C    -3.521700  -1.729870  4.850386
N    -2.403741  -2.617518  4.434809
H    -4.070603  -2.739009  1.370339
H    -3.967632  -1.237152  0.453139
H    -5.548244  -0.838350  2.122869
H    -4.137121  0.012069  2.716663
H    -5.015383  -2.782129  3.688341
H    -5.545112  -1.278427  4.400149
H    -3.894222  -2.014785  5.846613
H    -3.121341  -0.709267  4.945899
H    -2.720950  -3.590966  4.447260
H    -1.652291  -2.573520  5.127130
N    -1.842845  -3.350791  -0.125205
C    -1.076934  -4.151030  -1.086772
H    -2.828132  -3.571252  -0.003634
H    -0.750165  -3.530168  -1.929667
H    -1.724527  -4.948204  -1.460135
H    -0.200792  -4.593661  -0.599884
Pb    1.498770  -0.526749  0.839521
