34
Energy: -608352.748099 eV PBE+vdW (tier 2 basis)
C    -0.016574  -0.883523  -0.112960
C    0.099701  -0.140262  1.174768
O    0.636049  1.016258  1.180515
H    -0.612538  -0.278696  -0.811646
H    -0.481543  -1.868892  -0.005128
H    0.979708  -0.994893  -0.561232
N    -0.387181  -0.697893  2.290554
C    -0.529847  -0.046620  3.605212
C    0.822597  -0.102510  4.346234
O    1.719935  0.771410  4.092136
H    -0.803791  -1.621840  2.193960
H    -0.717670  1.022754  3.417981
C    -1.741106  -0.622308  4.351914
C    -2.117940  0.171536  5.614044
C    -3.226783  -0.481764  6.451839
C    -4.611443  -0.502855  5.788254
N    -5.586983  -1.103165  6.668395
H    -1.577762  -1.687939  4.597713
H    -2.581141  -0.616346  3.641677
H    -2.424646  1.187853  5.317609
H    -1.233874  0.298549  6.258057
H    -3.300675  0.070870  7.400453
H    -2.947524  -1.512063  6.722574
H    -4.597178  -1.097681  4.862235
H    -4.882001  0.533200  5.490367
H    -6.464238  -1.375880  6.233913
H    -5.747448  -0.615887  7.547300
N    1.043700  -1.064559  5.219565
C    2.280472  -1.273784  5.975778
H    0.275060  -1.706303  5.403766
H    2.054904  -1.259164  7.048618
H    2.990501  -0.479777  5.737173
H    2.709358  -2.248540  5.713198
Pb    1.984671  2.310448  2.442428
