34
Energy: -608351.884606 eV PBE+vdW (tier 2 basis)
C    0.932678  3.274192  1.654368
C    1.285645  1.830841  1.574703
O    2.282269  1.487087  0.845658
H    0.436333  3.547117  2.587807
H    0.286678  3.548577  0.805187
H    1.860242  3.848669  1.537384
N    0.641268  0.858022  2.257944
C    -0.812069  0.617183  2.324242
C    -1.218349  0.036290  0.948748
O    -0.446707  0.157035  -0.068771
H    1.176101  -0.012316  2.255167
H    -0.934840  -0.181290  3.072862
C    -1.687777  1.802862  2.773695
C    -1.423028  2.212559  4.231039
C    -2.378000  3.292323  4.757821
C    -2.143970  4.698272  4.187836
N    -3.072612  5.643354  4.757572
H    -2.735821  1.485789  2.685150
H    -1.583748  2.641937  2.073769
H    -0.378497  2.539619  4.358582
H    -1.528020  1.318271  4.864802
H    -2.265150  3.335790  5.851596
H    -3.423624  3.002883  4.572583
H    -2.288647  4.714054  3.096055
H    -1.083928  4.985343  4.369549
H    -3.047305  5.743196  5.769796
H    -3.147302  6.542687  4.291028
N    -2.367635  -0.601050  0.799564
C    -3.396390  -0.922276  1.792589
H    -2.552207  -0.912390  -0.155364
H    -3.795581  -1.915429  1.560802
H    -4.217203  -0.194828  1.750000
H    -2.976808  -0.946133  2.802344
Pb    1.699278  0.155691  -0.914257
