34
Energy: -608352.718695 eV PBE+vdW (tier 2 basis)
C    -0.324047  -0.667534  0.241026
C    -0.250882  -0.665404  1.732016
O    0.656006  -1.362410  2.295757
H    -1.114799  -0.024434  -0.158748
H    -0.493978  -1.699596  -0.097755
H    0.644771  -0.354634  -0.170559
N    -1.151305  0.057024  2.408204
C    -1.418036  0.128910  3.863446
C    -0.309058  0.900435  4.593148
O    0.831655  0.374016  4.829576
H    -1.812600  0.562568  1.825029
H    -2.333175  0.732805  3.937422
C    -1.724652  -1.226567  4.540085
C    -3.137916  -1.774329  4.289651
C    -3.508098  -2.132205  2.847546
C    -4.798166  -2.978613  2.791326
N    -4.613899  -4.261273  3.449070
H    -1.591637  -1.086306  5.624087
H    -0.992613  -1.991889  4.227049
H    -3.870989  -1.060313  4.700219
H    -3.240100  -2.689015  4.893247
H    -2.692657  -2.706272  2.374042
H    -3.667254  -1.233885  2.229717
H    -5.106070  -3.080457  1.735706
H    -5.608090  -2.438903  3.301663
H    -5.453962  -4.627743  3.889014
H    -4.204108  -4.978568  2.854530
N    -0.581377  2.121283  5.016165
C    0.328492  2.993018  5.764137
H    -1.505502  2.494705  4.810280
H    -0.187801  3.365487  6.656159
H    0.621594  3.844121  5.136830
H    1.215093  2.427324  6.057092
Pb    1.820335  -1.548159  4.201781
