34
Energy: -608353.057889 eV PBE+vdW (tier 2 basis)
C    0.473641  1.526298  -0.318092
C    0.439338  0.941853  1.053435
O    1.466720  1.089865  1.807459
H    1.312820  1.073537  -0.866634
H    0.683098  2.602362  -0.253950
H    -0.450367  1.366447  -0.883125
N    -0.641502  0.264373  1.438436
C    -0.873676  -0.559407  2.645179
C    -1.120289  0.270842  3.902562
O    -0.276706  1.153850  4.336523
H    -1.390505  0.233191  0.750923
H    -1.833938  -1.043947  2.435793
C    0.165556  -1.699793  2.851750
C    -0.411588  -3.076265  2.449774
C    -1.048547  -3.925070  3.569661
C    -2.026241  -3.282228  4.556911
N    -3.161138  -2.542805  3.931575
H    0.495543  -1.720879  3.902930
H    1.058081  -1.486718  2.250284
H    0.396014  -3.680220  2.015465
H    -1.125073  -2.926029  1.623406
H    -0.242319  -4.357245  4.181354
H    -1.538447  -4.785584  3.089184
H    -1.490821  -2.575705  5.213780
H    -2.398509  -4.078655  5.216397
H    -3.420646  -2.976529  3.042031
H    -3.995096  -2.642981  4.515852
N    -2.220448  -0.012414  4.547054
C    -2.644829  0.588798  5.806372
H    -2.755037  -0.881475  4.186268
H    -3.644167  1.022432  5.677187
H    -1.945217  1.368102  6.116728
H    -2.701350  -0.188171  6.579816
Pb    1.845648  1.603163  3.931711
