34
Energy: -608352.523484 eV PBE+vdW (tier 2 basis)
C    -0.425203  1.463160  0.384911
C    -0.381379  1.082832  1.825749
O    0.639096  1.401214  2.522971
H    0.449326  1.042652  -0.129504
H    -0.344103  2.556722  0.307193
H    -1.339197  1.133295  -0.119507
N    -1.421284  0.430873  2.357396
C    -1.590387  0.136656  3.782860
C    -0.646195  -1.008598  4.209635
O    0.444885  -0.699826  4.814471
H    -2.229895  0.267142  1.759417
H    -1.190872  1.004709  4.327525
C    -3.088577  -0.019070  4.200728
C    -4.137244  -0.004287  3.082397
C    -5.563358  -0.138131  3.637211
C    -6.636158  0.011434  2.550011
N    -6.577862  1.324129  1.920370
H    -3.307303  0.808888  4.887158
H    -3.197047  -0.929437  4.805656
H    -3.973468  -0.824026  2.359165
H    -4.097495  0.941113  2.515774
H    -5.724996  0.627235  4.413610
H    -5.693250  -1.111918  4.132802
H    -7.620838  -0.201127  3.006045
H    -6.487971  -0.748030  1.768188
H    -6.932065  2.072573  2.515271
H    -7.059992  1.362730  1.024672
N    -0.894379  -2.287635  3.997531
C    -2.029793  -2.937089  3.340841
H    -0.174114  -2.911046  4.367527
H    -1.663290  -3.847784  2.856279
H    -2.463811  -2.290069  2.575505
H    -2.798484  -3.213561  4.073829
Pb    1.825733  1.040988  4.408823
