34
Energy: -608353.26538 eV PBE+vdW (tier 2 basis)
C    0.130444  -0.768166  1.015311
C    0.287829  0.489989  1.790761
O    1.446178  0.978668  2.010331
H    0.300974  -0.571445  -0.054838
H    -0.847717  -1.239223  1.150008
H    0.921855  -1.463516  1.326684
N    -0.781948  1.148655  2.288184
C    -2.009470  1.443463  1.562248
C    -1.636073  2.292228  0.315511
O    -0.489811  2.835086  0.184706
H    -0.522762  1.872846  2.956500
H    -2.449139  0.505570  1.192476
C    -3.047862  2.132966  2.499273
C    -2.485128  3.016262  3.628918
C    -1.510008  4.147558  3.207159
C    -0.155629  4.097419  3.934593
N    0.967765  4.557388  3.055938
H    -3.654330  1.342322  2.959510
H    -3.735112  2.719779  1.873753
H    -2.010779  2.373022  4.387337
H    -3.351146  3.444062  4.148845
H    -1.973396  5.126666  3.382237
H    -1.328906  4.111008  2.123379
H    0.101705  3.079534  4.267678
H    -0.180644  4.705855  4.849782
H    0.753644  5.496223  2.698050
H    1.811510  4.680742  3.629030
N    -2.561487  2.416454  -0.620465
C    -2.436072  3.176105  -1.866717
H    -3.449115  1.941273  -0.465960
H    -2.598913  2.506771  -2.719632
H    -1.436601  3.610725  -1.925879
H    -3.188879  3.973249  -1.888653
Pb    1.656689  3.102939  1.079777
