34
Energy: -608352.69642 eV PBE+vdW (tier 2 basis)
C    -0.995704  -1.552133  0.523962
C    -1.115658  -0.987599  1.894460
O    -0.624762  -1.674655  2.892486
H    -1.330539  -0.857555  -0.251432
H    -1.559077  -2.492437  0.445822
H    0.059716  -1.804876  0.347404
N    -1.666948  0.171989  2.160155
C    -2.639274  1.002154  1.442799
C    -2.852692  2.169701  2.457806
O    -2.535110  1.968986  3.643878
H    -1.636912  0.558661  3.134873
H    -2.219935  1.373112  0.497173
C    -3.971199  0.247936  1.175236
C    -4.726055  -0.305044  2.401547
C    -3.946405  -1.370758  3.178308
C    -4.662854  -2.184221  4.244862
N    -3.670690  -3.167843  4.801540
H    -3.770318  -0.568503  0.464889
H    -4.634244  0.942955  0.641507
H    -5.662017  -0.749417  2.030154
H    -5.021194  0.509495  3.078647
H    -3.116930  -0.856601  3.709573
H    -3.488220  -2.076277  2.463121
H    -5.533346  -2.721572  3.842922
H    -5.012364  -1.549420  5.068339
H    -3.963523  -3.481715  5.733630
H    -3.670920  -4.015618  4.222734
N    -3.406467  3.286230  1.984355
C    -3.716215  4.457453  2.805773
H    -3.578846  3.354726  0.985504
H    -4.786384  4.687570  2.744540
H    -3.140820  5.322344  2.455139
H    -3.445894  4.237994  3.841510
Pb    -1.246807  -2.314702  4.910033
