34
Energy: -608351.206449 eV PBE+vdW (tier 2 basis)
C    -0.853321  -0.348294  -1.110755
C    -0.134809  -0.083213  0.165791
O    0.981880  -0.711825  0.422116
H    -1.867872  0.058260  -1.129993
H    -0.910588  -1.433619  -1.272535
H    -0.294214  0.111786  -1.937989
N    -0.595575  0.713651  1.107901
C    -1.670469  1.703882  0.965121
C    -1.293644  2.642435  -0.232979
O    -0.162492  2.586008  -0.717626
H    0.003868  0.808711  1.928145
H    -2.593411  1.159086  0.715476
C    -1.891119  2.449071  2.303104
C    -1.013550  3.676464  2.587221
C    0.479485  3.412427  2.820920
C    1.243104  4.685849  3.240507
N    0.803858  5.208533  4.506152
H    -1.805866  1.712335  3.118489
H    -2.941010  2.766341  2.324266
H    -1.422830  4.164319  3.483697
H    -1.127228  4.409755  1.773003
H    0.966310  3.038621  1.906266
H    0.612684  2.646315  3.605641
H    1.114692  5.469341  2.481394
H    2.326036  4.444952  3.262023
H    0.983972  4.656278  5.340405
H    0.878222  6.209079  4.661465
N    -2.254831  3.466960  -0.695039
C    -3.629236  3.651311  -0.237110
H    -1.929657  4.078054  -1.441567
H    -4.221629  4.038055  -1.072342
H    -3.695563  4.368351  0.592843
H    -4.080192  2.700407  0.069616
Pb    2.511821  -1.955439  -0.479775
