34
Energy: -608352.090236 eV PBE+vdW (tier 2 basis)
C    0.079536  0.372494  -0.108416
C    -0.064101  0.087187  1.343127
O    0.972827  -0.154334  2.053527
H    0.586636  1.337545  -0.259351
H    -0.870544  0.357238  -0.649322
H    0.751484  -0.388681  -0.532014
N    -1.273115  0.083258  1.941579
C    -2.278890  1.138028  1.759046
C    -1.597663  2.459261  2.158465
O    -0.648938  2.450725  3.032937
H    -1.282547  -0.334297  2.874310
H    -2.596547  1.169589  0.708549
C    -3.491086  0.794941  2.659594
C    -4.705481  1.721582  2.548893
C    -5.918463  1.236304  3.365671
C    -6.666235  0.033151  2.778358
N    -5.890638  -1.206272  2.840268
H    -3.145566  0.767536  3.707817
H    -3.801991  -0.230311  2.397371
H    -5.008746  1.815115  1.493391
H    -4.444725  2.732867  2.897724
H    -6.633716  2.067296  3.438154
H    -5.612890  1.017060  4.402124
H    -6.911348  0.226258  1.723706
H    -7.632989  -0.059681  3.307509
H    -5.827841  -1.579590  3.787876
H    -6.268926  -1.935125  2.236495
N    -1.969757  3.622839  1.657049
C    -2.965454  3.936448  0.628730
H    -1.471140  4.423682  2.050430
H    -3.835920  4.424466  1.082738
H    -3.294243  3.033295  0.110602
H    -2.510969  4.620647  -0.096811
Pb    1.168109  1.306206  3.811224
