34
Energy: -608352.450851 eV PBE+vdW (tier 2 basis)
C    -0.454331  0.017355  -0.184876
C    -0.316927  0.102466  1.170550
O    0.863537  0.402503  1.745788
H    -1.413433  1.784727  -0.590095
H    -1.379687  -0.329489  -0.636362
H    0.437156  0.038759  -0.806110
N    -1.346938  -0.109078  2.089389
C    -2.238376  -1.257994  2.022295
C    -1.386052  -2.541949  1.837316
O    -0.181236  -2.597692  2.259185
H    -1.121276  0.215917  3.023855
H    -2.665936  -1.354678  3.035251
C    -3.437830  -1.119268  1.053918
C    -4.318621  0.129753  1.266711
C    -3.737731  1.500822  0.870096
C    -3.521782  1.699592  -0.636790
N    -2.211851  2.414666  -0.899937
H    -4.102688  -1.982546  1.214260
H    -3.098368  -1.194321  0.010417
H    -4.608885  0.186816  2.326220
H    -5.259284  -0.033737  0.720444
H    -2.787495  1.649728  1.399719
H    -4.418865  2.279833  1.237215
H    -4.316688  2.294813  -1.099374
H    -3.452999  0.753306  -1.187063
H    -2.084266  2.629152  -1.897791
H    -2.155218  3.301847  -0.382977
N    -1.928384  -3.618249  1.296992
C    -1.241765  -4.905491  1.151113
H    -2.890390  -3.556280  0.978025
H    -0.398165  -4.811653  0.456803
H    -1.954627  -5.633250  0.755718
H    -0.871980  -5.249307  2.123655
Pb    1.682900  -1.349797  2.724658
