34
Energy: -608352.774314 eV PBE+vdW (tier 2 basis)
C    0.478399  0.237199  0.464329
C    -0.010936  0.341589  1.868527
O    0.682015  0.995662  2.721836
H    0.585230  1.253137  0.057036
H    -0.186904  -0.341553  -0.184666
H    1.480381  -0.212457  0.457279
N    -1.172936  -0.229144  2.195062
C    -1.920112  -0.072393  3.456402
C    -1.361881  -1.050114  4.507435
O    -0.250784  -0.792769  5.093130
H    -1.661080  -0.719983  1.447823
H    -1.696298  0.935572  3.841815
C    -3.426892  -0.175500  3.182460
C    -3.990036  0.940832  2.285984
C    -3.903462  2.365748  2.854210
C    -4.585832  2.569650  4.214968
N    -5.944515  2.050227  4.213484
H    -3.956843  -0.159653  4.146263
H    -3.653058  -1.148618  2.711216
H    -5.044334  0.690032  2.111483
H    -3.510907  0.918967  1.294763
H    -4.364292  3.040690  2.117236
H    -2.858194  2.709807  2.932481
H    -4.526502  3.645372  4.469615
H    -4.033085  2.046154  5.013561
H    -6.388325  2.079318  5.129541
H    -6.553758  2.519908  3.543561
N    -2.034129  -2.144510  4.795095
C    -1.636026  -3.177481  5.754163
H    -2.924337  -2.275066  4.316890
H    -2.442910  -3.320266  6.482408
H    -0.723418  -2.867715  6.266643
H    -1.462825  -4.121577  5.222925
Pb    1.332390  0.797259  4.856420
