34
Energy: -608353.309938 eV PBE+vdW (tier 2 basis)
C    -1.089056  -0.628475  0.005692
C    -1.057806  -0.731055  1.497409
O    -0.088486  -1.344741  2.054832
H    -2.101563  -0.543920  -0.405539
H    -0.575760  -1.496643  -0.423233
H    -0.516687  0.258603  -0.309461
N    -1.994956  -0.201942  2.335149
C    -2.633294  1.068192  1.975058
C    -1.624675  2.192799  2.295899
O    -0.634564  1.968472  3.068464
H    -3.233469  -1.523740  2.671445
H    -2.835424  1.109962  0.891962
C    -3.960799  1.270478  2.746498
C    -5.236148  0.890359  1.977792
C    -5.401910  -0.554691  1.477083
C    -5.379545  -1.638298  2.558455
N    -4.000598  -2.263826  2.692707
H    -4.064755  2.322474  3.044707
H    -3.879563  0.718494  3.697729
H    -5.337185  1.556508  1.107762
H    -6.093633  1.130523  2.624078
H    -4.668173  -0.800206  0.690356
H    -6.375294  -0.616783  0.972468
H    -6.067073  -2.460863  2.333137
H    -5.643952  -1.242355  3.546839
H    -3.923323  -2.823520  3.551056
H    -3.822180  -2.900478  1.905343
N    -1.771405  3.403920  1.779490
C    -2.828707  3.904470  0.901123
H    -1.066353  4.077946  2.081099
H    -3.640762  4.359583  1.483423
H    -3.234755  3.100732  0.279051
H    -2.400519  4.665805  0.241544
Pb    -0.251806  -0.098362  4.042167
