34
Energy: -608351.448509 eV PBE+vdW (tier 2 basis)
C    0.229154  -0.059826  0.426159
C    0.235657  -0.012237  1.923453
O    1.215875  -0.422002  2.581830
H    1.188344  0.309208  0.046087
H    -0.592405  0.504794  -0.028117
H    0.143622  -1.111763  0.116862
N    -0.872833  0.491594  2.535780
C    -1.231839  0.353898  3.954386
C    -0.262471  1.065424  4.901919
O    -0.776112  1.776646  5.861857
H    -1.606153  0.847193  1.931894
H    -2.187521  0.881524  4.068785
C    -1.423653  -1.106939  4.445331
C    -2.596548  -1.874946  3.810775
C    -2.325735  -2.504416  2.437297
C    -3.454207  -3.466772  2.022216
N    -3.202371  -4.079826  0.747159
H    -1.596511  -1.046567  5.531053
H    -0.483456  -1.661531  4.312388
H    -3.488312  -1.228537  3.764520
H    -2.856466  -2.681014  4.513666
H    -1.372543  -3.057163  2.466706
H    -2.227697  -1.744239  1.649955
H    -4.413619  -2.934163  1.963468
H    -3.572249  -4.233361  2.818410
H    -2.394188  -4.690895  0.662978
H    -4.001141  -4.389570  0.201813
N    1.023920  0.887852  4.756450
C    2.034232  1.470873  5.613468
H    1.272711  0.259153  3.885258
H    3.026575  1.170601  5.260412
H    1.939226  1.104856  6.652595
H    2.002995  2.575704  5.579212
Pb    -0.244541  3.016733  7.576769
