34
Energy: -608352.532525 eV PBE+vdW (tier 2 basis)
C    0.482453  1.434221  1.028816
C    0.028507  0.368574  1.972997
O    0.532603  -0.792900  1.860895
H    -0.013472  2.398409  1.180150
H    0.296987  1.090902  0.001231
H    1.568853  1.563302  1.127580
N    -0.901788  0.694373  2.881334
C    -1.678948  -0.098166  3.866599
C    -0.823678  -0.582706  5.037586
O    0.217158  -1.305343  4.873186
H    -1.191700  1.667551  2.833966
H    -2.362830  0.655766  4.271761
C    -2.614728  -1.195909  3.283331
C    -2.119456  -2.624618  3.010045
C    -3.184418  -3.520042  2.354073
C    -4.411627  -3.832843  3.248433
N    -5.307682  -4.704226  2.534498
H    -3.043889  -0.775625  2.361528
H    -3.452864  -1.269584  3.992137
H    -1.785849  -3.102876  3.949396
H    -1.272881  -2.601353  2.285649
H    -2.716277  -4.475202  2.075452
H    -3.535355  -3.065871  1.416137
H    -4.956612  -2.908713  3.485628
H    -4.054701  -4.251804  4.210625
H    -5.086346  -5.694925  2.575968
H    -6.297186  -4.544258  2.690966
N    -1.183837  -0.273920  6.273105
C    -2.303644  0.560344  6.730764
H    -0.578263  -0.667989  6.994801
H    -2.197902  1.593813  6.378413
H    -2.283925  0.572205  7.823896
H    -3.266801  0.144103  6.412566
Pb    1.081294  -2.523756  3.176734
