34
Energy: -608352.563875 eV PBE+vdW (tier 2 basis)
C    -2.607704  -3.378660  0.047132
C    -1.765498  -2.475826  0.882561
O    -0.592207  -2.172834  0.484610
H    -2.078116  -4.328138  -0.109377
H    -2.737060  -2.920893  -0.943994
H    -3.592326  -3.577506  0.482702
N    -2.265651  -1.989784  2.025334
C    -1.620893  -0.978170  2.873629
C    -0.456670  -1.604912  3.668485
O    0.736405  -1.446996  3.215905
H    -3.222170  -2.248581  2.259228
H    -1.120745  -0.266303  2.198051
C    -2.667018  -0.185265  3.676360
C    -3.441633  0.824196  2.810097
C    -2.675116  2.104631  2.445384
C    -2.534092  3.105445  3.604671
N    -3.833425  3.515126  4.104761
H    -2.150525  0.335128  4.496517
H    -3.372396  -0.878289  4.156194
H    -4.342098  1.117475  3.367991
H    -3.802475  0.330029  1.894202
H    -3.203691  2.599029  1.616560
H    -1.667557  1.884588  2.051059
H    -1.918373  3.955646  3.252507
H    -1.977804  2.659668  4.444030
H    -4.375657  4.074966  3.448247
H    -3.806650  3.980334  5.008960
N    -0.605789  -2.288600  4.787947
C    -1.815411  -2.640757  5.539185
H    0.277414  -2.612799  5.186388
H    -1.579973  -3.514349  6.154249
H    -2.634054  -2.908790  4.865347
H    -2.123222  -1.819674  6.197632
Pb    1.465625  -1.456181  1.077046
