34
Energy: -608352.412445 eV PBE+vdW (tier 2 basis)
C    -0.965856  -2.538476  -0.623027
C    -0.884824  -1.828825  0.685795
O    0.152564  -1.139041  0.957278
H    -0.873206  -1.798755  -1.430818
H    -1.896546  -3.100120  -0.753756
H    -0.110605  -3.221000  -0.719325
N    -1.911121  -1.919354  1.540956
C    -2.039199  -1.167403  2.795956
C    -1.112617  -1.759831  3.878158
O    0.021150  -1.187779  4.078876
H    -2.718617  -2.461292  1.239851
H    -1.617322  -0.167161  2.612393
C    -3.516409  -0.972895  3.179924
C    -4.258408  0.038774  2.293055
C    -3.797755  1.494404  2.426927
C    -4.768764  2.477957  1.744697
N    -6.078891  2.443929  2.367066
H    -3.550277  -0.637712  4.227838
H    -4.041630  -1.938078  3.149604
H    -5.321580  -0.005613  2.570137
H    -4.215543  -0.272629  1.235677
H    -2.799674  1.652134  1.984122
H    -3.713845  1.762014  3.493805
H    -4.886025  2.207427  0.685698
H    -4.315197  3.486445  1.763227
H    -6.142238  2.941567  3.252925
H    -6.845747  2.717219  1.758297
N    -1.409631  -2.812407  4.617764
C    -2.596894  -3.673740  4.626175
H    -0.683880  -3.047236  5.297525
H    -2.307555  -4.630804  5.070306
H    -2.953620  -3.863646  3.609884
H    -3.398562  -3.233483  5.231164
Pb    1.427820  -0.234115  2.591005
