34
Energy: -608351.440132 eV PBE+vdW (tier 2 basis)
C    -1.190998  2.632493  0.670447
C    -1.000878  1.618303  1.744815
O    -0.154902  1.894857  2.707125
H    -0.246602  2.759007  0.121911
H    -1.436582  3.602673  1.122315
H    -1.975229  2.358649  -0.040054
N    -1.611326  0.465991  1.781094
C    -2.651895  -0.097331  0.912555
C    -3.274265  -1.176065  1.851812
O    -2.631460  -1.491666  2.866325
H    -1.504440  -0.202191  2.589334
H    -3.390693  0.681302  0.677888
C    -2.094909  -0.701319  -0.398903
C    -1.219015  -1.948175  -0.233433
C    -0.731813  -2.481180  -1.585866
C    0.107813  -3.760766  -1.447903
N    0.561756  -4.244572  -2.720893
H    -1.538021  0.086696  -0.929297
H    -2.956166  -0.934576  -1.041195
H    -1.785662  -2.734434  0.289802
H    -0.352200  -1.721035  0.408109
H    -0.128257  -1.721739  -2.105472
H    -1.598877  -2.688263  -2.234328
H    -0.498097  -4.529044  -0.918202
H    0.990286  -3.582357  -0.816228
H    -0.130915  -4.447786  -3.436331
H    1.369762  -4.858645  -2.744211
N    -4.448664  -1.730373  1.526449
C    -5.329467  -1.439618  0.398977
H    -4.751379  -2.450891  2.179668
H    -5.218817  -0.401645  0.067775
H    -6.367354  -1.572872  0.721468
H    -5.140155  -2.112122  -0.448694
Pb    0.878281  2.594844  4.439923
