34
Energy: -608353.365444 eV PBE+vdW (tier 2 basis)
C    -0.560539  -0.650457  -0.186863
C    -0.425047  -0.514016  1.291375
O    0.732105  -0.667188  1.822622
H    -0.182837  -1.631891  -0.502681
H    0.081977  0.104117  -0.664217
H    -1.588265  -0.520796  -0.541330
N    -1.499902  -0.208703  2.017502
C    -1.556210  0.178094  3.443431
C    -1.617814  -1.095603  4.306830
O    -0.542108  -1.826216  4.391698
H    -2.374050  -0.106443  1.504238
H    -0.599447  0.671197  3.684339
C    -2.703080  1.172257  3.628285
C    -2.782930  1.782481  5.037710
C    -4.192641  2.268428  5.412953
C    -5.303113  1.235236  5.207846
N    -4.921451  -0.109060  5.729314
H    -3.643567  0.661597  3.368489
H    -2.577970  1.972471  2.884565
H    -2.080305  2.623671  5.113151
H    -2.446765  1.051498  5.788282
H    -4.457004  3.164750  4.833450
H    -4.173515  2.589610  6.464681
H    -5.537148  1.110944  4.141141
H    -6.226462  1.597698  5.682150
H    -4.784796  -0.047100  6.743400
H    -5.714697  -0.744980  5.607798
N    -2.704379  -1.461173  4.926025
C    -2.759871  -2.705062  5.698830
H    -3.598431  -0.808959  5.094355
H    -2.513236  -3.565787  5.066719
H    -3.777557  -2.820384  6.082192
H    -2.057620  -2.676240  6.542359
Pb    1.525678  -1.705993  3.628359
