34
Energy: -608351.392018 eV PBE+vdW (tier 2 basis)
C    -0.693015  0.061477  -0.302074
C    -0.718055  0.284288  1.180483
O    0.118993  1.025280  1.742195
H    0.297469  -0.319069  -0.585242
H    -0.813605  1.027409  -0.809763
H    -1.458573  -0.635122  -0.659549
N    -1.696684  -0.341955  1.888103
C    -1.783197  -0.461162  3.351145
C    -2.000117  0.876401  4.056547
O    -2.913220  0.931056  4.980217
H    -2.355388  -0.906222  1.361714
H    -2.694915  -1.042114  3.540974
C    -0.596160  -1.198482  4.029629
C    -0.365122  -2.633919  3.520242
C    0.632817  -2.814393  2.361656
C    2.106292  -2.584437  2.726634
N    2.439285  -1.199266  2.976832
H    -0.830688  -1.228446  5.104675
H    0.325421  -0.606214  3.928765
H    -1.326810  -3.085754  3.227665
H    -0.014495  -3.237763  4.369910
H    0.367778  -2.188680  1.496050
H    0.551575  -3.851034  2.005764
H    2.724645  -2.993447  1.899069
H    2.377181  -3.168157  3.618511
H    2.290980  -0.551106  2.204909
H    3.327677  -1.035038  3.444792
N    -1.232460  1.892749  3.758314
C    -1.314121  3.197929  4.382382
H    -0.522808  1.669678  2.964875
H    -0.571568  3.861962  3.928042
H    -1.083141  3.140837  5.460981
H    -2.304164  3.659627  4.217493
Pb    -3.890113  2.211272  6.444630
