34
Energy: -608351.265729 eV PBE+vdW (tier 2 basis)
C    -0.384656  0.943449  -0.142359
C    -0.494844  0.289498  1.196716
O    0.582649  0.044576  1.903280
H    0.104321  1.923101  -0.038334
H    -1.359427  1.093785  -0.617176
H    0.227655  0.318926  -0.810262
N    -1.665907  -0.041580  1.664194
C    -2.038289  -0.715186  2.911606
C    -3.370002  -1.405467  2.485264
O    -4.019699  -0.834951  1.597068
H    -2.543357  0.089504  1.107764
H    -1.245829  -1.416702  3.199460
C    -2.286501  0.345456  4.019967
C    -2.680370  -0.230426  5.383101
C    -2.934638  0.832487  6.467650
C    -4.284003  1.562768  6.360375
N    -4.353809  2.507786  5.270325
H    -3.067856  1.032405  3.660512
H    -1.364037  0.937988  4.124429
H    -1.883393  -0.899099  5.745477
H    -3.583910  -0.850819  5.285803
H    -2.114609  1.568634  6.491050
H    -2.917742  0.336431  7.447768
H    -4.460764  2.074168  7.330367
H    -5.104412  0.840931  6.242841
H    -5.285643  2.759309  4.948897
H    -3.743862  3.319721  5.342260
N    -3.776111  -2.540139  3.073764
C    -3.104275  -3.393802  4.046605
H    -4.673754  -2.869156  2.719018
H    -3.659753  -3.420475  4.992870
H    -2.093258  -3.032567  4.251565
H    -3.031954  -4.415540  3.654056
Pb    2.741786  0.147964  1.658918
