34
Energy: -608352.141115 eV PBE+vdW (tier 2 basis)
C    -0.275527  2.634490  -0.102523
C    -0.148404  1.669310  1.021832
O    0.925897  1.633359  1.712997
H    0.674415  2.630413  -0.655413
H    -0.395575  3.657183  0.286718
H    -1.096414  2.399030  -0.785790
N    -1.145996  0.813696  1.330559
C    -2.550713  1.203446  1.443060
C    -2.674308  2.041691  2.745080
O    -1.693164  2.175898  3.551610
H    -0.870491  0.072279  1.977881
H    -2.798687  1.857922  0.593343
C    -3.468735  -0.034313  1.422853
C    -3.400172  -0.799727  0.093188
C    -4.182225  -2.121002  0.086704
C    -5.710007  -1.968842  0.116424
N    -6.355290  -3.256690  0.049755
H    -4.498158  0.295354  1.624172
H    -3.197192  -0.694979  2.264088
H    -2.348292  -1.024622  -0.138415
H    -3.758201  -0.147131  -0.720416
H    -3.870406  -2.755999  0.930049
H    -3.903481  -2.669889  -0.825451
H    -6.019413  -1.299855  -0.716245
H    -6.044742  -1.482041  1.045323
H    -7.339267  -3.286516  0.300459
H    -6.152504  -3.823365  -0.770414
N    -3.830509  2.622403  3.008983
C    -4.099104  3.440096  4.198035
H    -4.590213  2.495311  2.345132
H    -5.143510  3.759812  4.165756
H    -3.450957  4.324399  4.206707
H    -3.926361  2.853779  5.107749
Pb    0.578304  1.955382  3.961741
