34
Energy: -608353.332161 eV PBE+vdW (tier 2 basis)
C    2.282401  1.507348  1.888822
C    1.352060  1.452693  3.055736
O    1.195954  2.553431  3.723067
H    2.482042  0.522219  1.461155
H    3.228749  1.967304  2.199498
H    1.849443  2.162726  1.118964
N    0.715394  0.330042  3.338752
C    -0.316247  0.209150  4.385844
C    0.333475  0.108942  5.782985
O    0.703985  1.174122  6.399569
H    0.811991  -0.501811  2.592683
H    -0.880163  1.157638  4.416742
C    -1.322231  -0.903364  4.045950
C    -0.747195  -2.323753  3.800622
C    -1.084167  -2.919168  2.423183
C    -0.638431  -2.069075  1.233931
N    0.765125  -1.595371  1.395210
H    -1.866147  -0.560947  3.154735
H    -2.074947  -0.921971  4.845826
H    -1.130180  -3.018080  4.563064
H    0.350935  -2.325484  3.906713
H    -2.167566  -3.086585  2.339721
H    -0.621241  -3.915295  2.358259
H    -1.268320  -1.173424  1.126823
H    -0.765431  -2.648485  0.308522
H    1.388316  -2.398400  1.525992
H    1.066967  -1.166053  0.516622
N    0.484988  -1.060766  6.365651
C    1.076542  -1.281108  7.688231
H    0.174573  -1.880229  5.846058
H    0.593215  -2.150461  8.144030
H    0.919096  -0.399077  8.314073
H    2.152953  -1.475582  7.594209
Pb    0.921062  3.308877  5.759758
