34
Energy: -608352.140619 eV PBE+vdW (tier 2 basis)
C    -0.903162  1.590559  -0.934624
C    -0.764756  0.707223  0.254294
O    0.299024  0.021583  0.420257
H    -0.265821  2.481018  -0.819252
H    -1.934951  1.897166  -1.128572
H    -0.510415  1.047684  -1.805503
N    -1.749386  0.611177  1.174481
C    -2.441314  1.766447  1.748749
C    -1.395935  2.546905  2.578203
O    -0.284350  2.000009  2.907931
H    -1.622999  -0.157749  1.835645
H    -2.801100  2.406898  0.930145
C    -3.635799  1.299971  2.605812
C    -4.754567  0.647887  1.783802
C    -5.910877  0.165613  2.667637
C    -7.038947  -0.492222  1.856934
N    -8.095277  -0.966080  2.716701
H    -4.033866  2.163912  3.155439
H    -3.263256  0.604920  3.377705
H    -4.351677  -0.201525  1.209294
H    -5.126763  1.372646  1.040981
H    -6.321770  1.015051  3.237371
H    -5.548111  -0.561784  3.409457
H    -6.647707  -1.353151  1.295940
H    -7.409849  0.231223  1.100058
H    -8.619614  -0.261894  3.229795
H    -8.697654  -1.690612  2.337389
N    -1.637830  3.784810  2.975191
C    -2.813666  4.624024  2.733406
H    -0.900370  4.195013  3.550482
H    -3.469432  4.628419  3.613591
H    -3.375106  4.274836  1.862579
H    -2.475005  5.647636  2.540888
Pb    1.346563  0.434338  2.432973
