34
Energy: -608353.846042 eV PBE+vdW (tier 2 basis)
C    -0.427819  0.226787  -0.340488
C    -0.714175  -0.133117  1.083676
O    -0.237535  -1.217624  1.543520
H    0.658555  0.260177  -0.495646
H    -0.869357  1.178241  -0.654166
H    -0.815275  -0.575965  -0.983938
N    -1.477523  0.712595  1.791927
C    -2.126519  0.625248  3.124741
C    -1.142902  0.635820  4.300257
O    -0.168714  -0.168780  4.437209
H    -1.767813  1.531641  1.264459
H    -2.656545  1.585359  3.184406
C    -3.250005  -0.442000  3.222701
C    -2.892152  -1.933613  3.267665
C    -2.596271  -2.507674  4.662640
C    -1.904209  -3.866950  4.596049
N    -0.406552  -3.742103  4.476070
H    -3.897799  -0.249395  2.355428
H    -3.857385  -0.179645  4.103324
H    -2.072789  -2.147555  2.569771
H    -3.752295  -2.484375  2.860633
H    -3.541753  -2.625396  5.210138
H    -1.987183  -1.826097  5.277121
H    -2.256865  -4.438417  3.728071
H    -2.124121  -4.466757  5.489381
H    -0.033880  -4.616925  4.089259
H    -0.020966  -3.699146  5.426844
N    -1.380559  1.528239  5.251301
C    -0.600530  1.640071  6.486939
H    -2.144875  2.184464  5.118226
H    -1.045227  2.424124  7.104710
H    0.438926  1.904082  6.258518
H    -0.619036  0.691352  7.035809
Pb    0.922147  -1.874665  3.379446
