34
Energy: -608352.684427 eV PBE+vdW (tier 2 basis)
C    1.283913  2.747660  2.299062
C    0.152366  2.218942  3.114514
O    -0.597328  3.037639  3.742349
H    0.875187  3.425524  1.535775
H    1.867608  1.963153  1.806531
H    1.943913  3.350772  2.936630
N    -0.059864  0.898327  3.143608
C    -1.222713  0.199767  3.712400
C    -1.015940  -0.019319  5.224806
O    -1.105307  0.977854  6.019872
H    0.587465  0.320491  2.611482
H    -2.072273  0.900079  3.655445
C    -1.592909  -1.031322  2.856227
C    -0.476102  -2.007029  2.441231
C    -1.035653  -3.199129  1.649921
C    0.076511  -4.162199  1.161196
N    -0.380584  -5.294534  0.404295
H    -2.065310  -0.642823  1.942370
H    -2.394708  -1.570229  3.384112
H    0.099528  -2.387247  3.304184
H    0.266140  -1.495018  1.803464
H    -1.599859  -2.831267  0.779124
H    -1.750863  -3.759226  2.272503
H    0.640952  -4.535423  2.030355
H    0.790943  -3.600067  0.539453
H    -0.743487  -5.121524  -0.527831
H    -0.889171  -6.019262  0.900731
N    -0.769155  -1.227873  5.689397
C    -0.567263  -1.583069  7.095775
H    -0.711617  -1.979806  5.005885
H    0.463083  -1.929558  7.243576
H    -1.259486  -2.388844  7.366033
H    -0.754166  -0.708535  7.721715
Pb    -1.568852  3.189097  5.768805
