34
Energy: -608352.567542 eV PBE+vdW (tier 2 basis)
C    -0.149644  -0.313723  -0.109269
C    -0.394988  -0.195946  1.356113
O    0.495358  0.340304  2.096490
H    0.007660  0.693191  -0.521773
H    -0.970747  -0.798324  -0.647483
H    0.780072  -0.873765  -0.278114
N    -1.551703  -0.640259  1.863096
C    -1.993503  -0.459412  3.252182
C    -1.205936  -1.400619  4.191034
O    -0.230014  -0.901136  4.863935
H    -2.229718  -1.023103  1.206823
H    -1.672441  0.546694  3.562420
C    -3.526881  -0.505111  3.348019
C    -4.082922  -0.356070  4.771631
C    -3.807861  0.986038  5.469543
C    -4.375159  2.219982  4.750840
N    -5.790459  2.061724  4.463283
H    -3.908468  -1.432538  2.899817
H    -3.904921  0.312532  2.715645
H    -3.719444  -1.174236  5.413612
H    -5.169693  -0.492485  4.695925
H    -2.728928  1.143749  5.638489
H    -4.243910  0.929458  6.478326
H    -3.859050  2.388357  3.791154
H    -4.151131  3.110059  5.370472
H    -6.167613  2.781718  3.850599
H    -6.372091  1.999478  5.298482
N    -1.464488  -2.685738  4.341580
C    -2.491918  -3.532479  3.726202
H    -0.847580  -3.148174  5.012098
H    -2.157528  -4.570793  3.808888
H    -2.613901  -3.296939  2.665178
H    -3.450832  -3.429774  4.248971
Pb    1.322386  0.586435  4.181467
