34
Energy: -608351.450231 eV PBE+vdW (tier 2 basis)
C    -1.069132  0.048585  -0.578989
C    -0.720813  0.646508  0.734949
O    0.473902  1.204092  0.863570
H    -1.080117  0.842321  -1.340639
H    -2.047273  -0.454659  -0.565427
H    -0.292173  -0.670499  -0.872651
N    -1.507809  0.674769  1.766446
C    -2.867864  0.160381  1.962036
C    -3.285650  0.958347  3.237931
O    -2.377896  1.486654  3.903104
H    -1.263279  1.161441  2.679253
H    -3.497340  0.420191  1.099497
C    -2.835585  -1.373283  2.179139
C    -4.188753  -2.057367  2.414457
C    -5.250475  -1.955439  1.307015
C    -4.860142  -2.561185  -0.048146
N    -4.105012  -1.633803  -0.900324
H    -2.177869  -1.579715  3.036628
H    -2.353067  -1.813131  1.294223
H    -4.623671  -1.709998  3.363381
H    -3.969640  -3.122615  2.584261
H    -5.581744  -0.913520  1.143854
H    -6.145029  -2.482322  1.666826
H    -5.781242  -2.896050  -0.560341
H    -4.248463  -3.462696  0.101222
H    -3.723336  -2.109639  -1.719090
H    -4.697510  -0.873375  -1.239094
N    -4.585370  1.017115  3.534962
C    -5.119864  1.691783  4.717807
H    -5.244636  0.564133  2.910278
H    -5.846415  2.455295  4.416165
H    -4.292411  2.165001  5.251968
H    -5.611322  0.966444  5.377749
Pb    2.323817  2.166255  1.131008
