34
Energy: -608352.904621 eV PBE+vdW (tier 2 basis)
C    -3.040038  1.781379  0.735339
C    -1.720375  1.233710  1.185139
O    -0.643812  1.625491  0.696464
H    -3.003481  2.876920  0.770370
H    -3.894202  1.421790  1.318801
H    -3.186974  1.502048  -0.317580
N    -1.744426  0.284687  2.172462
C    -0.643535  -0.585931  2.588079
C    0.604626  0.103075  3.137498
O    1.236601  -0.542068  4.083739
H    -2.653042  0.050810  2.559283
H    -1.034767  -1.151584  3.443051
C    -0.242777  -1.588642  1.458736
C    0.764955  -2.682536  1.832854
C    0.303508  -3.660886  2.922409
C    1.406358  -4.425862  3.643630
N    2.071367  -3.576364  4.704013
H    0.126395  -1.018680  0.596028
H    -1.172366  -2.080237  1.133013
H    1.747580  -2.197080  2.099986
H    1.034132  -3.240898  0.924253
H    -0.355750  -4.401697  2.446531
H    -0.322500  -3.157054  3.674706
H    2.187040  -4.769269  2.950483
H    0.995151  -5.317633  4.136311
H    1.360544  -3.290988  5.389141
H    2.738634  -4.159307  5.224255
N    1.017102  1.227826  2.626537
C    2.185782  1.981359  3.062427
H    0.428002  1.544732  1.773280
H    2.390790  1.801615  4.123841
H    1.986070  3.048382  2.917650
H    3.065395  1.726150  2.452387
Pb    3.184474  -1.559643  3.902088
