34
Energy: -608352.692909 eV PBE+vdW (tier 2 basis)
C    -0.702631  0.499380  -0.473217
C    -0.356368  -0.160827  0.811905
O    0.730235  -0.840121  0.907774
H    -0.025961  1.345812  -0.665373
H    -1.742269  0.835287  -0.518809
H    -0.516830  -0.225849  -1.279042
N    -1.155670  -0.070591  1.890509
C    -1.731513  1.187244  2.367348
C    -0.580667  2.046645  2.939283
O    0.632000  1.580121  3.036193
H    -0.940472  -0.738845  2.633218
H    -2.130484  1.734533  1.500752
C    -2.869740  0.943842  3.381650
C    -4.264914  0.940889  2.748708
C    -4.721389  2.280840  2.147411
C    -4.682526  3.490631  3.092200
N    -3.401432  4.262129  3.000123
H    -2.814383  1.710336  4.164963
H    -2.684937  -0.011711  3.897008
H    -4.978491  0.642684  3.530575
H    -4.327793  0.156007  1.979056
H    -5.754807  2.145490  1.801354
H    -4.156859  2.523456  1.229111
H    -4.802117  3.171324  4.137034
H    -5.528247  4.156383  2.871105
H    -3.380238  4.739053  2.093028
H    -3.441913  5.023570  3.685189
N    -0.882072  3.255223  3.314992
C    0.085773  4.198841  3.872621
H    -1.936548  3.604434  3.194693
H    0.876030  4.426926  3.146185
H    0.545945  3.792029  4.781528
H    -0.442408  5.123059  4.123491
Pb    2.097604  -0.028235  2.535642
