34
Energy: -608352.763687 eV PBE+vdW (tier 2 basis)
C    -0.739578  0.524501  -0.451359
C    -0.812413  -0.027811  0.935671
O    0.105056  -0.828624  1.311102
H    -0.720922  -0.313377  -1.162161
H    0.209348  1.064363  -0.573333
H    -1.570395  1.191387  -0.703435
N    -1.843216  0.345903  1.703113
C    -2.299114  -0.067436  3.053728
C    -1.309877  0.305648  4.166296
O    -0.111935  -0.122879  4.246062
H    -2.481123  0.989085  1.241058
H    -3.160441  0.592982  3.219940
C    -2.913829  -1.494783  3.137468
C    -2.140863  -2.733100  2.658170
C    -1.153061  -3.373271  3.653497
C    -1.791967  -4.475816  4.571883
N    -2.896190  -3.943685  5.340764
H    -3.835748  -1.429546  2.541942
H    -3.237717  -1.651545  4.177981
H    -1.660993  -2.537889  1.690767
H    -2.899428  -3.495960  2.429143
H    -0.744481  -2.632981  4.373123
H    -0.327761  -3.885229  3.116431
H    -1.002232  -4.890968  5.212824
H    -2.122866  -5.284815  3.904499
H    -3.784745  -4.390457  5.131476
H    -2.744982  -3.985202  6.345057
N    -1.764911  1.106053  5.116606
C    -0.984946  1.524354  6.285691
H    -2.711884  1.465601  5.032888
H    -0.179785  2.204953  5.982355
H    -0.549102  0.649163  6.779788
H    -1.654060  2.040555  6.978610
Pb    1.179165  -1.591169  3.114353
