34
Energy: -608353.179776 eV PBE+vdW (tier 2 basis)
C    -1.479030  -0.858674  0.225421
C    -1.083828  -0.552440  1.633120
O    0.187860  -0.437873  1.862495
H    -1.120696  -0.055523  -0.433230
H    -2.561040  -0.961056  0.105246
H    -0.977969  -1.780860  -0.098858
N    -2.031087  -0.424655  2.539524
C    -1.893781  -0.271727  3.996404
C    -1.119460  0.984976  4.415136
O    0.157928  1.001665  4.523332
H    -3.049831  -0.851022  2.304770
H    -2.927705  -0.105578  4.338565
C    -1.408890  -1.552259  4.705696
C    -2.432736  -2.705664  4.695450
C    -2.719782  -3.397940  3.339703
C    -4.084232  -3.131349  2.692348
N    -4.357368  -1.693045  2.360433
H    -1.180134  -1.295291  5.750764
H    -0.465377  -1.910842  4.256807
H    -3.370226  -2.346664  5.151553
H    -2.049806  -3.456385  5.398580
H    -2.680592  -4.484987  3.493488
H    -1.913261  -3.188918  2.619905
H    -4.882448  -3.513798  3.343703
H    -4.142412  -3.705735  1.759721
H    -4.879211  -1.638583  1.483328
H    -4.986782  -1.291728  3.058623
N    -1.819566  2.057324  4.733341
C    -1.270805  3.337307  5.188085
H    -2.832154  1.993331  4.654337
H    -1.887931  3.711450  6.011772
H    -1.288978  4.065610  4.366994
H    -0.244540  3.192317  5.532572
Pb    1.740769  -0.037895  3.345579
