34
Energy: -608353.355064 eV PBE+vdW (tier 2 basis)
C    -0.697692  1.902419  0.533825
C    -0.690556  0.503877  1.034081
O    0.235163  0.090634  1.806525
H    -0.978030  2.586959  1.349624
H    -1.363928  2.053127  -0.320554
H    0.330226  2.170949  0.253080
N    -1.661515  -0.372537  0.684148
C    -3.094127  -0.112032  0.691029
C    -3.479405  0.424637  2.094311
O    -2.707682  0.290574  3.099915
H    -1.433871  -1.336351  0.921396
H    -3.337072  0.670948  -0.042575
C    -3.856080  -1.406840  0.277967
C    -3.347885  -2.733624  0.868931
C    -3.499654  -2.911810  2.395984
C    -2.412651  -3.743813  3.069469
N    -1.047894  -3.100292  3.013820
H    -3.801424  -1.470202  -0.817027
H    -4.919072  -1.272830  0.523437
H    -2.305647  -2.909313  0.543159
H    -3.894315  -3.537308  0.356910
H    -4.459570  -3.402790  2.607531
H    -3.560407  -1.943129  2.909980
H    -2.344428  -4.746068  2.620475
H    -2.655147  -3.880970  4.130541
H    -0.417749  -3.653505  3.607390
H    -0.652789  -3.212074  2.073437
N    -4.640906  1.046695  2.199807
C    -5.208338  1.614809  3.425363
H    -5.193973  1.151206  1.350849
H    -6.166454  1.128976  3.645497
H    -5.376055  2.689318  3.285862
H    -4.513737  1.455603  4.252241
Pb    -0.694163  -0.693091  3.800008
