34
Energy: -608352.098667 eV PBE+vdW (tier 2 basis)
C    0.936639  2.022846  1.072810
C    0.420853  1.164245  2.171741
O    1.090879  1.037452  3.251290
H    0.426836  1.861217  0.118972
H    2.008582  1.808435  0.955976
H    0.870167  3.083946  1.358219
N    -0.752201  0.503110  2.054957
C    -1.989409  1.113506  1.563781
C    -2.372656  2.213243  2.586532
O    -1.876951  2.227443  3.765100
H    -0.901728  -0.205623  2.776010
H    -1.795190  1.589074  0.590926
C    -3.063323  0.014152  1.391113
C    -4.363030  0.449265  0.700884
C    -5.338021  -0.713751  0.447588
C    -4.911763  -1.679933  -0.668034
N    -5.893347  -2.721770  -0.843882
H    -3.296228  -0.418988  2.378306
H    -2.574549  -0.777902  0.805126
H    -4.129101  0.945275  -0.257138
H    -4.891120  1.185563  1.325114
H    -6.315130  -0.282951  0.182973
H    -5.498494  -1.285119  1.374356
H    -3.954397  -2.167686  -0.430494
H    -4.742203  -1.098219  -1.600083
H    -6.829949  -2.422281  -1.104678
H    -5.596416  -3.539753  -1.368048
N    -3.236222  3.142546  2.221444
C    -3.717277  4.221507  3.092432
H    -3.612842  3.094234  1.277869
H    -4.451770  4.809353  2.536528
H    -2.885256  4.871536  3.388057
H    -4.187779  3.804148  3.990009
Pb    -0.106740  1.622084  5.128998
