34
Energy: -608353.702764 eV PBE+vdW (tier 2 basis)
C    -0.096960  1.079453  0.890481
C    -0.721782  0.863229  2.227267
O    -0.421876  1.631439  3.192368
H    -0.457034  0.381571  0.127396
H    0.993531  0.983992  0.984710
H    -0.297322  2.109497  0.565428
N    -1.605254  -0.142676  2.377571
C    -2.346275  -0.342112  3.617746
C    -1.549202  -1.131506  4.667687
O    -1.009692  -0.455633  5.611939
H    -1.831662  -0.702918  1.559615
H    -2.362144  0.653342  4.068635
C    -3.826384  -0.704515  3.443017
C    -4.686428  0.533563  3.088052
C    -4.261304  1.857246  3.754577
C    -4.104400  1.821569  5.286588
N    -2.928053  2.641214  5.739618
H    -4.168844  -1.141918  4.392326
H    -3.971761  -1.490272  2.689330
H    -5.728605  0.299606  3.343703
H    -4.679790  0.695377  2.001511
H    -4.996130  2.626581  3.482743
H    -3.316480  2.208213  3.305024
H    -3.947084  0.804549  5.669555
H    -5.013708  2.196810  5.775718
H    -2.981107  3.568589  5.301412
H    -3.023193  2.822482  6.746085
N    -1.411050  -2.444336  4.650719
C    -1.965241  -3.417561  3.706513
H    -0.868655  -2.821161  5.430031
H    -2.029423  -2.996498  2.699438
H    -2.957065  -3.756740  4.030792
H    -1.291880  -4.279466  3.670497
Pb    -0.499500  1.801923  5.510760
