34
Energy: -608351.485619 eV PBE+vdW (tier 2 basis)
C    -1.694691  0.388830  -2.077271
C    -0.931617  1.075029  -0.997809
O    0.212970  1.630788  -1.312425
H    -2.693032  0.077303  -1.758864
H    -1.136505  -0.500045  -2.405495
H    -1.783584  1.055743  -2.944495
N    -1.323634  1.145362  0.244506
C    -2.560859  0.694975  0.891855
C    -2.552585  1.559893  2.193741
O    -1.508197  2.160087  2.486552
H    -0.792493  1.697110  0.968656
H    -3.422202  0.970689  0.266189
C    -2.588365  -0.822164  1.188481
C    -1.497311  -1.309053  2.150526
C    -1.482515  -2.829727  2.364208
C    -2.680721  -3.374784  3.158278
N    -2.554950  -4.784438  3.400277
H    -2.520493  -1.366127  0.233141
H    -3.589768  -1.048728  1.584010
H    -1.598977  -0.799381  3.121744
H    -0.510995  -1.014108  1.761091
H    -0.560076  -3.089756  2.905350
H    -1.431527  -3.355332  1.398370
H    -3.629553  -3.212390  2.626281
H    -2.759357  -2.806806  4.112565
H    -3.389841  -5.311915  3.635282
H    -1.712522  -5.120272  3.859331
N    -3.676977  1.569183  2.916937
C    -3.828302  2.311489  4.168428
H    -4.489518  1.077156  2.558871
H    -4.163608  1.638059  4.965717
H    -4.561051  3.118433  4.046436
H    -2.859255  2.740070  4.436152
Pb    1.869814  2.814532  -1.951828
