34
Energy: -608352.802305 eV PBE+vdW (tier 2 basis)
C    -0.220761  0.629904  -0.562576
C    -0.586976  1.514533  0.581394
O    -0.147465  2.710677  0.610180
H    -0.558868  1.106835  -1.493679
H    -0.655703  -0.372525  -0.493405
H    0.872717  0.550669  -0.627296
N    -1.389738  1.033768  1.538338
C    -2.007412  1.796317  2.637113
C    -1.003369  1.921450  3.800391
O    -0.046842  2.765580  3.723578
H    -1.693359  0.067836  1.433984
H    -2.158994  2.824473  2.269648
C    -3.377821  1.203229  2.994966
C    -4.430855  1.358561  1.886456
C    -5.798256  0.813868  2.315225
C    -6.877794  1.002030  1.238448
N    -8.158497  0.515692  1.695262
H    -3.739333  1.714438  3.900078
H    -3.272928  0.133740  3.253938
H    -4.100739  0.848080  0.967102
H    -4.522777  2.426717  1.629625
H    -6.135868  1.316719  3.233922
H    -5.711898  -0.257951  2.558801
H    -6.547272  0.507123  0.300667
H    -6.987319  2.070517  1.003100
H    -8.972042  0.890815  1.216265
H    -8.236020  -0.489203  1.831635
N    -1.141153  1.151805  4.862054
C    -0.266200  1.142729  6.036870
H    -1.938799  0.519373  4.875011
H    -0.868426  1.319883  6.935567
H    0.486549  1.926644  5.935012
H    0.224346  0.165207  6.120737
Pb    0.714874  4.166466  2.104586
