34
Energy: -608352.796273 eV PBE+vdW (tier 2 basis)
C    -0.173082  0.605690  -0.217312
C    -0.189082  0.463525  1.265541
O    0.891090  0.659876  1.921078
H    0.139723  1.629186  -0.469424
H    -1.143928  0.401803  -0.680481
H    0.583690  -0.069630  -0.638992
N    -1.332771  0.151767  1.883677
C    -1.518478  0.113880  3.340193
C    -0.827627  -1.130769  3.934412
O    0.315850  -0.973022  4.516732
H    -2.164310  0.048183  1.305098
H    -0.951478  0.962603  3.758764
C    -2.989110  0.318762  3.726939
C    -3.194368  0.371723  5.247811
C    -4.673048  0.431643  5.670258
C    -5.367240  -0.925804  5.802486
N    -5.420562  -1.673119  4.529713
H    -3.623535  -0.464766  3.292325
H    -3.304508  1.274610  3.280404
H    -2.667316  1.253066  5.644855
H    -2.726808  -0.505598  5.727469
H    -5.236355  1.079299  4.978141
H    -4.737996  0.925437  6.649338
H    -6.371518  -0.763370  6.229470
H    -4.818662  -1.546393  6.527094
H    -6.053553  -1.206845  3.875066
H    -5.826859  -2.597215  4.689336
N    -1.330684  -2.345636  3.873998
C    -2.580411  -2.821465  3.272078
H    -0.745169  -3.052405  4.322830
H    -3.472436  -2.462805  3.824919
H    -2.555594  -3.914333  3.291615
H    -2.648527  -2.500789  2.225650
Pb    1.977219  0.370403  3.871426
