34
Energy: -608352.026749 eV PBE+vdW (tier 2 basis)
C    1.297830  2.203346  0.580650
C    1.020185  2.507652  2.009171
O    1.748259  3.350822  2.635313
H    0.792808  1.301989  0.222153
H    2.384903  2.080717  0.470428
H    1.025378  3.062889  -0.050786
N    0.011177  1.906271  2.675031
C    -1.345255  1.760319  2.149329
C    -1.943809  3.183901  2.055332
O    -1.382610  4.172222  2.648751
H    0.044243  2.037910  3.687780
H    -1.286729  1.337101  1.136472
C    -2.174369  0.806206  3.040887
C    -2.439246  1.302017  4.469613
C    -3.108143  0.258175  5.378583
C    -4.553412  -0.099089  4.995384
N    -5.138991  -0.974495  5.980453
H    -1.630195  -0.149984  3.060487
H    -3.124080  0.602365  2.530213
H    -3.055875  2.216453  4.444631
H    -1.492641  1.587169  4.962776
H    -3.119459  0.641637  6.407843
H    -2.494441  -0.656993  5.397851
H    -4.578472  -0.544278  3.977115
H    -5.164427  0.815458  4.952588
H    -6.153489  -1.017660  6.002016
H    -4.716334  -1.893883  6.081425
N    -3.051012  3.404225  1.367140
C    -3.866883  2.462872  0.595810
H    -3.377841  4.371339  1.393292
H    -3.269924  1.613338  0.251718
H    -4.258607  2.987214  -0.281881
H    -4.711044  2.100099  1.196083
Pb    0.535309  5.064998  3.569491
