34
Energy: -608352.561895 eV PBE+vdW (tier 2 basis)
C    -0.517509  -1.429064  0.807620
C    -0.147438  -0.570932  1.962852
O    1.088342  -0.418075  2.275294
H    -0.237452  -0.937695  -0.136872
H    -1.578734  -1.691791  0.789098
H    0.087122  -2.345740  0.863609
N    -1.080375  0.066858  2.693118
C    -2.187577  0.834026  2.107224
C    -1.556569  1.969923  1.269282
O    -0.328208  2.351643  1.507730
H    -0.737874  0.448642  3.577353
H    -2.756935  0.182607  1.433457
C    -3.089714  1.336065  3.259553
C    -4.303005  2.208994  2.908250
C    -5.527915  1.515169  2.288855
C    -5.393894  0.916482  0.887789
N    -4.833067  1.890458  -0.090865
H    -2.448128  1.905189  3.953658
H    -3.421616  0.439110  3.804683
H    -3.991012  3.071228  2.299581
H    -4.636583  2.652483  3.856872
H    -6.345669  2.252428  2.271844
H    -5.877045  0.714778  2.958329
H    -6.381625  0.560482  0.561153
H    -4.740196  0.030857  0.884011
H    -4.923825  1.514195  -1.038721
H    -5.402222  2.742889  -0.083101
N    -2.275577  2.539473  0.349443
C    -1.787262  3.647985  -0.470142
H    -3.365511  2.228806  0.179084
H    -0.944516  3.330649  -1.097817
H    -1.463494  4.488068  0.156654
H    -2.603533  3.978201  -1.119516
Pb    1.705851  1.776961  2.200285
