34
Energy: -608353.823748 eV PBE+vdW (tier 2 basis)
C    1.193550  -0.374096  2.980296
C    0.066027  0.478746  2.505646
O    0.223078  1.736624  2.419297
H    1.464772  -0.073891  4.001907
H    2.073522  -0.183185  2.350937
H    0.962595  -1.444297  2.965708
N    -1.093488  -0.111482  2.162020
C    -2.216346  0.620842  1.576798
C    -3.114610  1.215312  2.669381
O    -2.870689  2.408649  3.053291
H    -1.154307  -1.123772  2.244855
H    -1.748004  1.507233  1.144649
C    -2.880538  -0.108301  0.394232
C    -2.217102  0.331428  -0.925470
C    -2.706080  1.680560  -1.499043
C    -2.735742  2.926494  -0.603791
N    -1.386009  3.394067  -0.096650
H    -3.955400  0.123962  0.367001
H    -2.804559  -1.198532  0.519238
H    -2.407485  -0.427958  -1.695047
H    -1.121092  0.326382  -0.793740
H    -3.741553  1.551521  -1.850737
H    -2.119917  1.904533  -2.403108
H    -3.397544  2.779523  0.261773
H    -3.174124  3.754270  -1.174018
H    -0.648505  2.765596  -0.433370
H    -1.167894  4.299266  -0.524519
N    -4.098568  0.504908  3.187498
C    -5.007378  0.949542  4.248802
H    -4.252559  -0.428002  2.810162
H    -4.937325  0.261521  5.099540
H    -6.036943  0.951038  3.871561
H    -4.727145  1.956937  4.563071
Pb    -1.031639  3.681563  2.427832
