34
Energy: -608352.149866 eV PBE+vdW (tier 2 basis)
C    0.580947  2.067986  1.130488
C    0.192338  1.913098  2.557800
O    0.980635  2.317983  3.481089
H    0.469808  3.118931  0.820451
H    0.009728  1.425299  0.454310
H    1.651669  1.837616  1.044677
N    -0.981767  1.351086  2.908584
C    -2.261229  1.674002  2.278253
C    -2.594236  3.136898  2.683531
O    -1.906189  3.765362  3.559376
H    -1.055299  1.112425  3.899287
H    -2.133638  1.644826  1.185341
C    -3.367316  0.680211  2.689448
C    -3.259628  -0.726827  2.084674
C    -2.151425  -1.636796  2.629896
C    -2.324420  -3.096775  2.163544
N    -3.552990  -3.680576  2.659190
H    -4.330792  1.114260  2.385150
H    -3.406928  0.630287  3.791514
H    -3.174961  -0.647464  0.988200
H    -4.220709  -1.228089  2.273730
H    -2.158056  -1.616718  3.733543
H    -1.152763  -1.301526  2.313206
H    -1.432895  -3.670041  2.480842
H    -2.346037  -3.134248  1.065505
H    -3.958446  -4.410283  2.079900
H    -3.546406  -3.954829  3.638998
N    -3.619370  3.729810  2.101498
C    -4.065546  5.098576  2.388516
H    -4.148008  3.199337  1.412955
H    -4.926925  5.318439  1.753122
H    -3.263606  5.813424  2.170413
H    -4.357871  5.189325  3.441160
Pb    0.010113  3.888759  4.840669
