34
Energy: -608353.85909 eV PBE+vdW (tier 2 basis)
C    -2.965914  -0.303645  -0.487408
C    -2.504173  0.528397  0.669695
O    -1.362608  0.283558  1.164164
H    -3.957753  -0.030039  -0.861719
H    -2.977599  -1.358016  -0.178312
H    -2.235851  -0.219031  -1.303225
N    -3.345570  1.471271  1.117765
C    -3.350648  2.441169  2.243266
C    -2.108145  3.335727  2.340830
O    -0.937847  2.914951  2.603605
H    -4.214985  1.501591  0.591560
H    -4.166839  3.111903  1.944224
C    -3.809895  1.887188  3.627343
C    -2.804281  1.219556  4.572623
C    -2.423929  -0.225487  4.225923
C    -1.165786  -0.724676  4.925083
N    0.034763  0.129535  4.607366
H    -4.657600  1.213370  3.429240
H    -4.240763  2.754873  4.148346
H    -3.251866  1.233818  5.577027
H    -1.914691  1.863025  4.649552
H    -2.285600  -0.354311  3.145420
H    -3.249225  -0.898532  4.499637
H    -0.933073  -1.744966  4.598169
H    -1.296135  -0.751322  6.017013
H    0.042080  0.942797  5.232523
H    0.882134  -0.394179  4.853540
N    -2.318283  4.640670  2.233882
C    -1.275506  5.656778  2.401142
H    -3.258975  4.964155  2.027045
H    -0.772698  5.527426  3.366218
H    -1.746440  6.642272  2.365662
H    -0.535266  5.580549  1.595388
Pb    0.417963  1.095622  2.302413
