34
Energy: -608352.063167 eV PBE+vdW (tier 2 basis)
C    -1.168993  -0.470520  -0.723635
C    -0.611843  -0.150653  0.603799
O    0.619988  0.242041  0.683779
H    -2.100645  0.112246  -0.943294
H    -1.469229  -1.525585  -0.791272
H    -0.408860  -0.275049  -1.485133
N    -1.311608  -0.173939  1.764824
C    -2.147005  -1.258323  2.308029
C    -1.174851  -2.332534  2.838513
O    0.069348  -2.325749  2.499879
H    -0.836205  0.353650  2.497767
H    -2.667672  -0.817212  3.172816
C    -3.220179  -1.814895  1.348398
C    -4.158305  -0.713485  0.837620
C    -4.919465  -1.090103  -0.441677
C    -5.219413  0.148642  -1.299530
N    -3.982380  0.702352  -1.877778
H    -3.790683  -2.584299  1.884259
H    -2.738359  -2.344277  0.515427
H    -3.571447  0.193153  0.632403
H    -4.867099  -0.437005  1.632385
H    -5.857996  -1.608093  -0.202423
H    -4.328153  -1.796131  -1.047986
H    -5.692035  0.923734  -0.680757
H    -5.947932  -0.120201  -2.080775
H    -3.781253  0.278347  -2.784267
H    -4.054491  1.707766  -2.031036
N    -1.590296  -3.283472  3.655001
C    -2.916591  -3.499086  4.241093
H    -0.870327  -3.961125  3.911321
H    -3.485382  -2.565933  4.282596
H    -2.780305  -3.868495  5.263008
H    -3.474840  -4.249172  3.666523
Pb    1.910399  -1.111363  1.919516
