34
Energy: -608352.804225 eV PBE+vdW (tier 2 basis)
C    -0.247956  -0.051484  0.083574
C    -0.211599  -0.231721  1.564386
O    0.841765  -0.724590  2.088666
H    -0.098811  -1.031257  -0.392197
H    0.596097  0.581052  -0.223180
H    -1.183016  0.386194  -0.280723
N    -1.287541  0.125116  2.276105
C    -1.580340  -0.060446  3.717150
C    -0.740249  0.899722  4.575909
O    0.490305  0.659671  4.829035
H    -2.056079  0.501810  1.726788
H    -2.630733  0.245428  3.819251
C    -1.524374  -1.516203  4.204488
C    -2.009597  -1.667038  5.648805
C    -2.110530  -3.129559  6.113772
C    -2.850811  -4.066288  5.144920
N    -4.041865  -3.428966  4.580170
H    -0.513340  -1.968084  4.087544
H    -2.176009  -2.104489  3.540249
H    -3.002189  -1.196896  5.716360
H    -1.358494  -1.115001  6.345443
H    -2.612065  -3.131067  7.092548
H    -1.107799  -3.546477  6.297661
H    -3.063786  -5.011787  5.674083
H    -2.194358  -4.338969  4.303809
H    -4.476196  -4.016294  3.868703
H    -4.751919  -3.251917  5.292473
N    -1.328219  1.973361  5.066565
C    -0.693503  2.989762  5.910125
H    -2.312872  2.110015  4.847647
H    -1.310894  3.148704  6.801471
H    -0.615864  3.932637  5.354381
H    0.301954  2.649921  6.202613
Pb    1.866016  -0.944772  4.064551
