34
Energy: -608351.419349 eV PBE+vdW (tier 2 basis)
C    -0.202291  -1.048981  1.825333
C    0.007676  0.070172  2.784527
O    1.003437  -0.035806  3.636802
H    -0.963995  -0.824422  1.074000
H    -0.507365  -1.948744  2.379121
H    0.744861  -1.282951  1.322141
N    -0.733000  1.139179  2.844500
C    -1.859179  1.581926  2.012262
C    -1.875083  3.110278  2.337927
O    -1.171922  3.500472  3.285872
H    -0.510446  1.955159  3.482596
H    -1.612459  1.425857  0.952193
C    -3.189682  0.872609  2.357640
C    -3.791460  1.257713  3.712397
C    -5.091471  0.510010  4.051550
C    -6.268573  0.759108  3.101644
N    -6.615170  2.160421  2.996450
H    -3.024522  -0.215067  2.306224
H    -3.894181  1.101677  1.547145
H    -3.984196  2.340980  3.732439
H    -3.065130  1.062363  4.516018
H    -5.393135  0.789822  5.072580
H    -4.911437  -0.575257  4.082443
H    -7.128329  0.156839  3.463410
H    -6.061537  0.382874  2.087784
H    -7.336760  2.382336  2.313862
H    -6.788807  2.636753  3.880479
N    -2.635753  3.932799  1.607827
C    -3.523002  3.620897  0.491448
H    -2.601381  4.901433  1.920458
H    -3.117655  2.808692  -0.122336
H    -3.600852  4.506428  -0.147073
H    -4.529437  3.350659  0.841638
Pb    2.776084  -0.020673  4.806966
