34
Energy: -608351.323109 eV PBE+vdW (tier 2 basis)
C    -1.339416  0.972279  0.957682
C    -0.822024  0.467183  2.269600
O    0.395440  0.564354  2.556734
H    -0.945684  1.979012  0.776193
H    -2.432289  0.984685  0.888564
H    -0.947478  0.322939  0.161333
N    -1.728351  -0.079361  3.122477
C    -1.518574  -0.928313  4.306043
C    -0.581993  -0.372942  5.372167
O    -0.857466  -0.730958  6.595710
H    -2.689185  -0.075239  2.793065
H    -2.489225  -0.928095  4.821342
C    -1.234750  -2.429255  3.958126
C    -0.207398  -2.753291  2.869021
C    1.275097  -2.626065  3.236913
C    2.196963  -2.955645  2.054567
N    2.051626  -2.017447  0.969593
H    -2.204797  -2.836912  3.640427
H    -0.992010  -2.949518  4.898080
H    -0.413553  -2.160645  1.965408
H    -0.399574  -3.795020  2.569318
H    1.521856  -3.313051  4.060536
H    1.515919  -1.611569  3.587569
H    1.986478  -3.963731  1.667494
H    3.244910  -2.986215  2.422141
H    2.440927  -2.287413  0.070460
H    2.184275  -1.031788  1.184994
N    0.428405  0.395665  5.077330
C    1.336325  0.957288  6.055935
H    0.558488  0.536410  3.981667
H    0.802449  1.619535  6.761535
H    2.082348  1.574634  5.544681
H    1.882178  0.166256  6.600787
Pb    -0.350820  -0.470506  8.690841
