34
Energy: -608353.170899 eV PBE+vdW (tier 2 basis)
C    0.215627  0.897369  0.783448
C    -0.212801  -0.053841  1.855367
O    0.241120  -1.247101  1.804020
H    0.444351  1.899578  1.158646
H    -0.592208  0.992135  0.039850
H    1.086483  0.481838  0.266656
N    -1.080444  0.206427  2.880148
C    -2.245642  1.097101  2.691754
C    -3.184699  0.404090  1.671879
O    -3.146577  -0.863946  1.548762
H    -0.201358  0.771428  4.463757
H    -2.802867  1.023218  3.643415
C    -1.995718  2.601887  2.444048
C    -0.910070  3.235161  3.325035
C    -1.141236  3.189616  4.856292
C    0.026225  2.590594  5.626584
N    0.093089  1.076357  5.440233
H    -2.943784  3.132293  2.630486
H    -1.736479  2.786222  1.392814
H    -0.805187  4.281628  3.012245
H    0.061237  2.774838  3.086012
H    -2.071555  2.661333  5.122384
H    -1.281426  4.207047  5.244227
H    -0.044482  2.768729  6.705795
H    0.985613  2.990481  5.276496
H    -0.542461  0.614881  6.102084
H    1.037237  0.717171  5.630666
N    -4.036202  1.126565  0.964195
C    -5.021347  0.587151  0.021644
H    -4.030502  2.133448  1.102377
H    -4.993812  1.176878  -0.900889
H    -6.026671  0.646130  0.457296
H    -4.778617  -0.454986  -0.196477
Pb    -1.657957  -2.165915  2.780996
