34
Energy: -608351.34359 eV PBE+vdW (tier 2 basis)
C    -0.430630  -1.387132  -0.336436
C    -0.141747  -0.829514  1.013562
O    1.057958  -1.020646  1.508436
H    0.285184  -0.974656  -1.060676
H    -1.447533  -1.171012  -0.674131
H    -0.283833  -2.475964  -0.318240
N    -1.002332  -0.163761  1.731534
C    -2.400224  0.214418  1.476073
C    -2.563348  1.398344  2.480727
O    -1.826103  1.381885  3.478942
H    -0.760186  0.227725  2.676269
H    -2.518947  0.525349  0.431067
C    -3.328905  -0.974808  1.845962
C    -4.833791  -0.789429  1.617982
C    -5.281462  -0.807686  0.151603
C    -6.808948  -0.705342  -0.008665
N    -7.499852  -1.843716  0.542232
H    -3.148483  -1.200484  2.907392
H    -2.982578  -1.852916  1.277780
H    -5.188681  0.123676  2.118947
H    -5.339636  -1.613986  2.141145
H    -4.932334  -1.734986  -0.332766
H    -4.838259  0.020013  -0.423090
H    -7.035672  -0.581249  -1.087747
H    -7.187422  0.197298  0.491897
H    -8.463091  -1.708667  0.835096
H    -7.348473  -2.742841  0.091464
N    -3.473190  2.358922  2.266956
C    -4.316429  2.616097  1.106134
H    -3.513108  3.041098  3.023320
H    -4.269599  3.682689  0.858292
H    -5.363357  2.348903  1.301789
H    -3.965072  2.055057  0.235733
Pb    2.993911  -1.180932  2.381788
