34
Energy: -608352.837509 eV PBE+vdW (tier 2 basis)
C    0.168044  0.730954  -0.579552
C    -0.524145  1.570766  0.439338
O    -0.388946  2.840886  0.393783
H    1.246889  0.934022  -0.550809
H    -0.184416  1.033610  -1.576366
H    -0.006284  -0.341934  -0.447968
N    -1.289374  0.976327  1.359010
C    -2.198141  1.633326  2.316107
C    -1.393460  2.094229  3.546193
O    -0.678582  3.155079  3.478174
H    -1.346343  -0.039417  1.313456
H    -2.561222  2.557222  1.836254
C    -3.411072  0.738083  2.599496
C    -4.311004  0.549433  1.368997
C    -5.530394  -0.350264  1.623692
C    -6.484341  0.136952  2.721753
N    -6.874852  1.527739  2.520836
H    -3.996929  1.216655  3.397968
H    -3.081434  -0.247243  2.978336
H    -3.735245  0.121531  0.533778
H    -4.656831  1.541771  1.041766
H    -5.208119  -1.373277  1.871048
H    -6.083933  -0.435133  0.676366
H    -6.012644  0.060696  3.714042
H    -7.347719  -0.554162  2.752229
H    -7.403375  1.668975  1.659418
H    -7.423225  1.899284  3.294888
N    -1.447407  1.388792  4.656770
C    -0.733758  1.681368  5.902006
H    -2.061264  0.575952  4.654536
H    -0.135906  2.585746  5.775389
H    -0.082364  0.835952  6.154306
H    -1.460875  1.826648  6.709922
Pb    -0.123330  4.566428  1.801837
