34
Energy: -608353.254367 eV PBE+vdW (tier 2 basis)
C    0.180914  0.267201  1.177095
C    -0.962056  0.013997  2.091621
O    -0.767319  -0.392329  3.283439
H    0.911673  -0.542675  1.308563
H    0.697260  1.192694  1.476791
H    -0.112172  0.331889  0.125243
N    -2.240337  0.208772  1.689611
C    -2.735794  1.372179  0.956411
C    -2.346630  2.632781  1.754532
O    -2.095424  2.556823  3.006867
H    -2.926437  -0.180225  2.333968
H    -2.283878  1.403697  -0.043882
C    -4.276268  1.284860  0.828850
C    -5.032045  1.225054  2.174088
C    -5.299700  -0.185431  2.757235
C    -5.289984  -0.257210  4.283452
N    -3.909038  -0.447062  4.866769
H    -4.515760  0.414069  0.201430
H    -4.608281  2.162720  0.260408
H    -6.003008  1.717010  2.037445
H    -4.513838  1.851098  2.918529
H    -4.622114  -0.957310  2.349452
H    -6.288519  -0.523072  2.418746
H    -5.911799  -1.096467  4.625412
H    -5.710313  0.657212  4.721943
H    -3.567722  -1.373276  4.579122
H    -4.026391  -0.531512  5.884524
N    -2.297616  3.814471  1.163265
C    -2.556345  4.166195  -0.235589
H    -2.076898  4.589644  1.790718
H    -2.450058  3.296359  -0.889238
H    -1.828329  4.923620  -0.544630
H    -3.566713  4.580911  -0.344607
Pb    -1.829476  1.057876  4.779064
