34
Energy: -608353.381292 eV PBE+vdW (tier 2 basis)
C    -0.218167  0.099434  0.330241
C    -0.372654  0.202340  1.813613
O    0.664452  0.103739  2.551876
H    0.032961  1.091086  -0.078541
H    -1.118138  -0.263599  -0.178414
H    0.634034  -0.552272  0.105505
N    -1.553761  0.405754  2.463097
C    -2.562808  1.275931  1.851158
C    -2.136793  2.742250  2.115319
O    -1.289219  3.017893  3.024642
H    -2.185000  -1.396989  2.869192
H    -2.587733  1.138827  0.756362
C    -3.964445  0.969720  2.412406
C    -4.528900  -0.364152  1.865614
C    -5.006179  -1.386784  2.908200
C    -3.963928  -1.853028  3.919342
N    -2.670597  -2.262665  3.234684
H    -4.650664  1.789532  2.165390
H    -3.899875  0.967913  3.512165
H    -3.781240  -0.832693  1.203082
H    -5.379159  -0.154761  1.204513
H    -5.414752  -2.262974  2.381837
H    -5.844781  -0.978497  3.491317
H    -4.321441  -2.716199  4.491996
H    -3.681304  -1.067189  4.630946
H    -2.851136  -2.902639  2.449607
H    -2.038253  -2.748673  3.882616
N    -2.675199  3.695065  1.372493
C    -2.409865  5.130776  1.505083
H    -3.340908  3.414054  0.656202
H    -2.133586  5.538869  0.526437
H    -1.591602  5.280284  2.212486
H    -3.308898  5.643308  1.868709
Pb    -0.268767  1.369611  4.294415
