34
Energy: -608352.873809 eV PBE+vdW (tier 2 basis)
C    -1.791450  2.078160  2.041239
C    -1.120802  1.001236  2.825565
O    0.156762  0.948750  2.811742
H    -2.883001  2.059469  2.122553
H    -1.505494  1.974816  0.984846
H    -1.416374  3.054768  2.376299
N    -1.875857  0.133899  3.504884
C    -1.480090  -1.074566  4.256752
C    -0.723863  -0.696025  5.528745
O    0.552029  -0.513393  5.507167
H    -2.881348  0.270862  3.421112
H    -2.447393  -1.557623  4.509299
C    -0.782909  -2.146561  3.410581
C    -0.549476  -3.480493  4.140646
C    -1.765824  -4.120293  4.842368
C    -3.051463  -4.243823  4.012081
N    -3.885882  -3.012977  4.096591
H    0.187041  -1.807861  2.979869
H    -1.418031  -2.293303  2.524986
H    0.258871  -3.368608  4.880563
H    -0.165955  -4.185033  3.388463
H    -2.000000  -3.591674  5.781946
H    -1.448559  -5.124237  5.156390
H    -3.611360  -5.129684  4.345651
H    -2.805227  -4.421769  2.955355
H    -4.508836  -2.969070  3.287639
H    -4.516428  -3.100512  4.896909
N    -1.341008  -0.568831  6.686523
C    -2.756158  -0.725310  7.023879
H    -0.723958  -0.313708  7.461777
H    -3.152622  0.234091  7.378918
H    -2.851225  -1.465691  7.827299
H    -3.329883  -1.061555  6.157472
Pb    1.892813  -0.060895  3.784617
