34
Energy: -608352.179874 eV PBE+vdW (tier 2 basis)
C    -1.568926  0.033110  -0.941421
C    -0.550329  0.686907  -0.094384
O    0.517183  1.174278  -0.634762
H    -1.368875  0.278520  -1.989449
H    -2.614071  0.289332  -0.654121
H    -1.489580  -1.063524  -0.839604
N    -0.662284  0.782557  1.246811
C    -1.113957  -0.305572  2.128513
C    -0.156535  -1.497152  1.878021
O    0.980302  -1.330752  1.300976
H    -0.002887  1.434618  1.669755
H    -0.883024  0.047600  3.147449
C    -2.625432  -0.601091  2.084055
C    -3.459276  0.640460  2.435175
C    -4.964460  0.477213  2.154121
C    -5.404672  0.967584  0.773820
N    -4.767335  0.226290  -0.332720
H    -2.848926  -1.385436  2.825135
H    -2.912385  -0.999179  1.103143
H    -3.083903  1.507310  1.869102
H    -3.302340  0.878072  3.497899
H    -5.530238  1.052400  2.899353
H    -5.273436  -0.571094  2.300500
H    -5.132434  2.027259  0.660648
H    -6.505863  0.919885  0.718039
H    -5.014287  0.658941  -1.225084
H    -5.136072  -0.727045  -0.376792
N    -0.498336  -2.693397  2.307684
C    0.344013  -3.891857  2.216490
H    -1.412364  -2.787893  2.744752
H    -0.144682  -4.696652  2.771116
H    1.329009  -3.693806  2.653408
H    0.463995  -4.195445  1.169444
Pb    2.336405  0.062325  0.093095
