34
Energy: -608354.011472 eV PBE+vdW (tier 2 basis)
C    -2.050468  -0.466056  -0.502306
C    -2.062711  0.310946  0.774555
O    -1.239021  -0.000951  1.690462
H    -2.795099  -0.126804  -1.229782
H    -2.233609  -1.524450  -0.269461
H    -1.049769  -0.408272  -0.950811
N    -2.962190  1.301266  0.897792
C    -3.304598  2.102315  2.092833
C    -2.217656  3.150019  2.390518
O    -1.111842  2.841938  2.939265
H    -3.556240  1.447056  0.086113
H    -4.213070  2.651411  1.809386
C    -3.632656  1.221021  3.310623
C    -3.820402  1.989463  4.630495
C    -3.510952  1.146564  5.876133
C    -2.035706  0.961143  6.232520
N    -1.267142  0.029894  5.317612
H    -2.847676  0.466163  3.410668
H    -4.542445  0.654822  3.067388
H    -4.854202  2.354664  4.693171
H    -3.185965  2.889399  4.659528
H    -4.009387  0.164457  5.815227
H    -3.963581  1.639835  6.748271
H    -1.968633  0.554281  7.250557
H    -1.513695  1.928695  6.238277
H    -0.530027  -0.414789  5.877120
H    -1.878769  -0.746854  5.041410
N    -2.488069  4.406663  2.075941
C    -1.597432  5.550357  2.282509
H    -3.393183  4.601484  1.654190
H    -2.131748  6.327403  2.841063
H    -1.287061  5.956461  1.311806
H    -0.718870  5.227376  2.844397
Pb    0.048875  0.913081  3.341532
