34
Energy: -608352.756739 eV PBE+vdW (tier 2 basis)
C    -0.096795  1.908545  0.503419
C    -0.693807  1.042558  1.565020
O    -0.444785  -0.204651  1.537633
H    -0.382108  2.962349  0.584908
H    -0.398412  1.524647  -0.480455
H    0.997936  1.825924  0.553001
N    -1.456966  1.626917  2.497060
C    -2.200404  1.058645  3.645923
C    -1.316953  0.254948  4.604881
O    -1.028293  -0.979087  4.411980
H    -1.579343  2.628721  2.374884
H    -2.501876  1.950795  4.207488
C    -3.532213  0.355036  3.295191
C    -3.608827  -0.734044  2.227562
C    -5.056023  -1.140893  1.893635
C    -5.835756  -0.086142  1.083939
N    -6.091119  1.146753  1.832373
H    -4.245093  1.132980  2.947878
H    -3.956537  -0.015731  4.241453
H    -3.110214  -1.685396  2.583350
H    -3.104585  -0.423666  1.299637
H    -5.596779  -1.380053  2.822533
H    -5.041441  -2.065549  1.300403
H    -6.761573  -0.577399  0.735539
H    -5.267405  0.174656  0.178595
H    -6.371909  1.901936  1.207139
H    -6.853486  1.022497  2.500554
N    -0.905057  0.815285  5.730885
C    -1.113460  2.186015  6.215423
H    -0.385954  0.185599  6.345079
H    -0.518578  2.311134  7.124405
H    -2.166732  2.361421  6.469334
H    -0.768722  2.922733  5.481147
Pb    -0.790475  -2.187338  2.542105
