34
Energy: -608352.76691 eV PBE+vdW (tier 2 basis)
C    -0.284375  0.608062  0.003073
C    -0.010821  0.235327  1.422938
O    1.195587  0.228121  1.828644
H    0.097725  1.621188  -0.182780
H    -1.345179  0.565814  -0.264464
H    0.282067  -0.067997  -0.652547
N    -1.049996  -0.083645  2.206263
C    -1.069015  -0.619418  3.585759
C    -0.720796  0.468484  4.612627
O    0.474150  0.889532  4.766262
H    -1.958051  -0.034227  1.752210
H    -2.119762  -0.892846  3.747743
C    -0.245575  -1.906795  3.796613
C    -0.589267  -3.057612  2.843637
C    -2.038281  -3.547018  2.947607
C    -2.280971  -4.841169  2.136668
N    -3.671243  -5.225088  2.193995
H    -0.407797  -2.215781  4.841073
H    0.842922  -1.703282  3.717421
H    0.093285  -3.886933  3.082173
H    -0.358139  -2.772255  1.805243
H    -2.752225  -2.793107  2.577877
H    -2.296945  -3.736918  4.002218
H    -1.601111  -5.626919  2.517041
H    -2.010138  -4.669928  1.085520
H    -4.040729  -5.659093  1.353727
H    -3.949692  -5.744508  3.022414
N    -1.699695  0.941854  5.363352
C    -1.558212  1.955621  6.411835
H    -2.635840  0.577157  5.201937
H    -0.499094  2.107289  6.629936
H    -2.078897  1.610828  7.312018
H    -2.005672  2.899935  6.076794
Pb    2.418785  0.431326  3.705177
