34
Energy: -608351.359958 eV PBE+vdW (tier 2 basis)
C    0.874379  -0.227151  0.816404
C    0.151769  -0.640424  2.050483
O    0.838869  -1.212126  3.008389
H    1.650012  0.499632  1.105372
H    0.232229  0.226186  0.062766
H    1.358259  -1.103411  0.366856
N    -1.100156  -0.328172  2.360343
C    -2.219627  -0.157428  1.428538
C    -2.274417  -1.482419  0.587871
O    -1.240841  -2.136859  0.432241
H    -1.365317  -0.621528  3.300788
H    -3.105429  -0.088102  2.075107
C    -2.170216  1.120514  0.551179
C    -3.560219  1.664147  0.194896
C    -3.481163  2.989871  -0.574526
C    -4.858378  3.556965  -0.952031
N    -5.550422  2.743993  -1.922333
H    -1.610457  0.929453  -0.375199
H    -1.616399  1.887516  1.113001
H    -4.142519  1.814639  1.118974
H    -4.116191  0.938419  -0.418843
H    -2.879469  2.861806  -1.489180
H    -2.961227  3.746643  0.031387
H    -4.706550  4.588581  -1.333032
H    -5.497516  3.650730  -0.062720
H    -6.559679  2.853051  -1.974802
H    -5.122065  2.668713  -2.842540
N    -3.474251  -1.791155  0.074475
C    -3.714114  -2.950599  -0.783367
H    -4.268247  -1.204696  0.308923
H    -4.413672  -3.643010  -0.299619
H    -2.761358  -3.458285  -0.953374
H    -4.131982  -2.629929  -1.745070
Pb    2.569464  -2.444463  3.387239
