34
Energy: -608351.27924 eV PBE+vdW (tier 2 basis)
C    -0.666718  -1.060221  -0.743459
C    -0.185255  -0.117404  0.302715
O    0.838888  0.652050  0.016078
H    -0.981027  -0.463127  -1.614197
H    -1.504920  -1.676835  -0.420608
H    0.152329  -1.723647  -1.046916
N    -0.818636  0.176866  1.432190
C    -1.575164  -0.768166  2.258706
C    -0.593341  -1.966731  2.512386
O    0.311060  -2.182773  1.698758
H    -0.388829  0.946226  1.946145
H    -1.755936  -0.228537  3.199136
C    -2.952450  -1.204070  1.691141
C    -3.967117  -1.531611  2.795488
C    -5.398322  -1.803865  2.301941
C    -5.612912  -3.139398  1.578488
N    -5.058134  -3.169291  0.238224
H    -2.850508  -2.067466  1.020263
H    -3.338552  -0.368930  1.087642
H    -4.011919  -0.685244  3.500134
H    -3.629729  -2.405065  3.377030
H    -5.743703  -0.975084  1.662420
H    -6.063416  -1.798661  3.176455
H    -6.704838  -3.336610  1.555755
H    -5.169354  -3.966797  2.151833
H    -5.485532  -2.511056  -0.411973
H    -4.995890  -4.096207  -0.178516
N    -0.832368  -2.692598  3.612399
C    -0.055828  -3.872639  3.990802
H    -1.564380  -2.387153  4.245246
H    0.574734  -3.655691  4.862173
H    0.578919  -4.157542  3.147987
H    -0.732378  -4.699494  4.234715
Pb    2.737415  0.711208  -0.984573
