34
Energy: -608353.149785 eV PBE+vdW (tier 2 basis)
C    -0.262692  -0.890660  0.233238
C    -0.121578  -0.665701  1.701185
O    0.992130  -0.970418  2.260051
H    -1.236130  -0.584806  -0.163640
H    -0.113641  -1.961821  0.032001
H    0.534917  -0.356221  -0.299579
N    -1.161321  -0.179573  2.378666
C    -1.387774  -0.040014  3.832573
C    -0.601830  1.085963  4.500036
O    0.675661  1.246376  4.351191
H    -1.973628  0.029931  1.803989
H    -2.433537  0.276113  3.895359
C    -1.268890  -1.368303  4.624777
C    -2.572894  -2.182454  4.623203
C    -3.693981  -1.717503  5.572376
C    -4.477624  -0.433845  5.254523
N    -3.865905  0.815417  5.808810
H    -0.989336  -1.130929  5.662831
H    -0.450789  -1.974505  4.210681
H    -2.312776  -3.211291  4.909148
H    -2.961059  -2.260003  3.593680
H    -3.307740  -1.663366  6.604311
H    -4.431466  -2.531953  5.592613
H    -5.497572  -0.547421  5.649467
H    -4.588753  -0.302442  4.166672
H    -4.522051  1.585269  5.643426
H    -3.838956  0.722586  6.829498
N    -1.305758  1.835626  5.305464
C    -0.782717  2.913075  6.137877
H    -2.332025  1.514154  5.448707
H    -1.314659  3.842237  5.898646
H    0.286678  3.051321  5.963442
H    -0.958146  2.675059  7.194940
Pb    2.361839  -0.026899  3.727838
