34
Energy: -608351.324147 eV PBE+vdW (tier 2 basis)
C    0.130935  0.129949  0.080872
C    -0.046392  0.036180  1.556510
O    1.017854  -0.170373  2.292350
H    0.860776  0.918132  -0.148657
H    -0.802109  0.341540  -0.447640
H    0.543504  -0.817009  -0.294660
N    -1.196048  0.145242  2.164861
C    -2.551867  0.377363  1.640118
C    -3.250141  0.976793  2.896514
O    -2.820120  0.611442  4.000085
H    -1.274422  0.086199  3.206437
H    -2.510220  1.091814  0.808730
C    -3.157801  -0.975220  1.180347
C    -4.589968  -0.957505  0.618358
C    -5.703192  -1.141665  1.659433
C    -7.101248  -1.240001  1.027643
N    -7.260763  -2.420351  0.217054
H    -3.094114  -1.675760  2.027162
H    -2.480185  -1.365426  0.406319
H    -4.666871  -1.783721  -0.103081
H    -4.762460  -0.045351  0.025938
H    -5.721450  -0.320566  2.388943
H    -5.509774  -2.055402  2.244670
H    -7.307602  -0.363463  0.396240
H    -7.850239  -1.214777  1.846936
H    -7.190701  -3.319852  0.687141
H    -7.981895  -2.404075  -0.498366
N    -4.259077  1.852057  2.761765
C    -4.847433  2.442536  1.565480
H    -4.641554  2.152727  3.657421
H    -5.001812  3.514374  1.733553
H    -5.816629  1.984163  1.326244
H    -4.184547  2.330587  0.702841
Pb    2.819643  -0.368955  3.415751
