34
Energy: -608351.47439 eV PBE+vdW (tier 2 basis)
C    0.011875  -0.820837  0.081198
C    0.241181  -0.346705  1.473795
O    1.479300  -0.293576  1.908489
H    0.580522  -0.191419  -0.616967
H    -1.043536  -0.805626  -0.202788
H    0.393107  -1.846561  -0.020508
N    -0.707501  0.014578  2.291305
C    -2.158462  0.113357  2.107031
C    -2.526412  1.130580  3.233686
O    -1.726801  1.256406  4.173142
H    -0.506742  0.386347  3.256162
H    -2.383597  0.526063  1.112790
C    -2.847573  -1.264321  2.297898
C    -4.338093  -1.266577  1.938887
C    -5.004762  -2.653930  1.969256
C    -5.284939  -3.217785  3.368687
N    -4.093874  -3.656889  4.066726
H    -2.693870  -1.598700  3.334300
H    -2.324350  -1.989922  1.654804
H    -4.466263  -0.856254  0.923264
H    -4.893170  -0.600694  2.617356
H    -4.411409  -3.378645  1.387966
H    -5.970884  -2.578965  1.451300
H    -6.005620  -4.054238  3.254364
H    -5.790073  -2.466117  3.992306
H    -4.198671  -3.782535  5.071199
H    -3.615043  -4.451662  3.646514
N    -3.684120  1.787969  3.112115
C    -4.179953  2.745065  4.100616
H    -4.241800  1.636599  2.277735
H    -4.262590  3.742714  3.652864
H    -3.475019  2.778188  4.935011
H    -5.165071  2.432586  4.466976
Pb    3.496736  0.052268  2.483338
