34
Energy: -608352.546361 eV PBE+vdW (tier 2 basis)
C    -0.739893  0.669385  -0.865693
C    -0.192898  0.108021  0.396437
O    1.081127  -0.070254  0.479389
H    -1.750731  1.065358  -0.767320
H    -0.704622  -0.079378  -1.671117
H    -0.057358  1.475214  -1.174662
N    -0.929288  -0.162034  1.495182
C    -2.118566  -1.035974  1.615427
C    -1.563054  -2.460696  1.829945
O    -0.390185  -2.790758  1.355663
H    -0.332432  -0.238447  2.321044
H    -2.632734  -0.729007  2.537100
C    -3.122487  -0.953732  0.447379
C    -4.440183  -1.710792  0.669386
C    -5.342606  -1.176630  1.807993
C    -5.758641  -2.234835  2.826202
N    -4.608282  -2.663315  3.679386
H    -2.653283  -1.323247  -0.475525
H    -3.353172  0.110580  0.297290
H    -4.237879  -2.782475  0.810155
H    -4.986556  -1.655843  -0.280974
H    -6.257825  -0.749700  1.378158
H    -4.865665  -0.333928  2.337825
H    -6.135591  -3.127645  2.309083
H    -6.578241  -1.856046  3.453031
H    -4.419721  -1.934358  4.374338
H    -4.886126  -3.480431  4.230747
N    -2.298536  -3.319893  2.471244
C    -1.911452  -4.716031  2.665113
H    -3.284641  -3.000286  2.944092
H    -2.767911  -5.254092  3.082198
H    -1.070831  -4.794620  3.367853
H    -1.622554  -5.179581  1.714762
Pb    1.706090  -2.205699  0.906380
