34
Energy: -608352.084466 eV PBE+vdW (tier 2 basis)
C    0.180048  0.658526  -0.061512
C    -0.005497  -0.027255  1.244727
O    0.981899  -0.615563  1.802569
H    0.767609  1.579632  0.073675
H    -0.760903  0.888934  -0.568985
H    0.789124  0.002559  -0.699628
N    -1.206470  -0.050835  1.863006
C    -2.063206  1.123433  2.030102
C    -1.325322  2.067324  3.016560
O    -0.329106  1.662489  3.708558
H    -1.261568  -0.716753  2.636111
H    -2.150561  1.637901  1.061418
C    -3.469296  0.680964  2.494646
C    -4.543259  1.780768  2.491887
C    -5.981425  1.237691  2.523728
C    -6.378611  0.537267  3.831055
N    -7.755599  0.112854  3.783708
H    -3.388467  0.217342  3.490910
H    -3.770861  -0.115115  1.796907
H    -4.441662  2.382872  1.573226
H    -4.401151  2.462913  3.345725
H    -6.141674  0.545707  1.683565
H    -6.663992  2.084554  2.356659
H    -6.176495  1.223384  4.683073
H    -5.764119  -0.359410  4.003073
H    -8.045992  -0.570884  4.476366
H    -8.452165  0.841835  3.649616
N    -1.747880  3.312282  3.133328
C    -1.161937  4.310146  4.035782
H    -2.550403  3.593602  2.575076
H    -0.116308  4.499752  3.765996
H    -1.210561  3.960390  5.073428
H    -1.731509  5.237515  3.937594
Pb    1.402357  0.140331  3.932955
