34
Energy: -608352.835238 eV PBE+vdW (tier 2 basis)
C    -0.380553  0.019156  0.043558
C    -0.257899  -0.169721  1.512487
O    0.729212  -0.894658  1.957473
H    -0.713367  -0.916518  -0.429739
H    0.617170  0.236426  -0.361352
H    -1.067354  0.826990  -0.224273
N    -1.074724  0.378467  2.385818
C    -2.454288  0.853529  2.271534
C    -2.831414  1.129094  3.754912
O    -2.166023  0.574107  4.659976
H    -0.858413  0.270730  3.391124
H    -2.492323  1.795367  1.704806
C    -3.387165  -0.195298  1.592879
C    -3.131791  -1.676253  1.918245
C    -3.507682  -2.182012  3.333243
C    -2.440027  -3.009870  4.045481
N    -1.290687  -2.169317  4.586540
H    -3.300464  -0.062596  0.506012
H    -4.425919  0.071876  1.835703
H    -2.077929  -1.922830  1.703020
H    -3.695060  -2.258075  1.177020
H    -4.392568  -2.828389  3.256570
H    -3.814452  -1.360067  3.994748
H    -2.036515  -3.782898  3.372013
H    -2.885056  -3.540511  4.896530
H    -1.129021  -2.447881  5.561055
H    -1.604526  -1.174133  4.648828
N    -3.865861  1.935402  3.970242
C    -4.388125  2.279667  5.293977
H    -4.306740  2.376116  3.166914
H    -4.362072  3.367287  5.427753
H    -3.762913  1.804962  6.053680
H    -5.422881  1.930162  5.392631
Pb    0.899553  -2.444690  3.519866
