34
Energy: -608351.109989 eV PBE+vdW (tier 2 basis)
C    -0.032576  2.015591  -0.618910
C    0.475683  0.808004  0.085153
O    1.464509  0.142316  -0.463099
H    0.810654  2.705752  -0.778782
H    -0.839084  2.525880  -0.096889
H    -0.430800  1.707730  -1.596274
N    0.073867  0.341055  1.253885
C    -1.087612  0.678583  2.105155
C    -2.365675  0.263809  1.315179
O    -2.460905  0.599311  0.135470
H    0.591998  -0.486552  1.550874
H    -0.952999  0.041321  2.987743
C    -1.097864  2.145420  2.591101
C    -2.050034  2.427576  3.770151
C    -3.464125  2.864751  3.367912
C    -4.361656  3.162171  4.589135
N    -4.767425  1.966958  5.297637
H    -1.344259  2.823531  1.763948
H    -0.067860  2.376485  2.898165
H    -1.598053  3.236093  4.363077
H    -2.092226  1.560151  4.446585
H    -3.961907  2.114724  2.734915
H    -3.406774  3.784339  2.766388
H    -5.248561  3.716237  4.230783
H    -3.830342  3.820845  5.288380
H    -4.758077  2.009081  6.312790
H    -5.597311  1.495831  4.946225
N    -3.310073  -0.454853  1.958649
C    -3.349426  -0.947956  3.332632
H    -4.122321  -0.645440  1.374722
H    -2.381541  -1.360056  3.641967
H    -4.077110  -1.764273  3.378944
H    -3.654332  -0.169044  4.047281
Pb    2.651760  0.008558  -2.269592
