34
Energy: -608351.539805 eV PBE+vdW (tier 2 basis)
C    -0.271318  1.010198  0.185167
C    -0.362774  0.784022  1.654378
O    0.513697  1.381168  2.422470
H    -0.302282  2.088802  -0.019652
H    -1.072820  0.517110  -0.370967
H    0.696151  0.636975  -0.179160
N    -1.259477  0.025004  2.223324
C    -2.373597  -0.748418  1.663731
C    -3.291188  -0.894264  2.919350
O    -2.760241  -0.778796  4.032708
H    -1.315551  -0.080779  3.266875
H    -2.875001  -0.172680  0.872480
C    -1.874724  -2.113440  1.126397
C    -2.951892  -2.986704  0.471055
C    -2.349696  -4.247951  -0.160980
C    -3.419056  -5.144275  -0.813960
N    -2.846079  -6.321096  -1.401208
H    -1.399947  -2.656188  1.957902
H    -1.080406  -1.908909  0.391378
H    -3.481505  -2.407095  -0.304282
H    -3.703578  -3.281848  1.218423
H    -1.813424  -4.826851  0.607876
H    -1.608983  -3.978495  -0.928390
H    -3.954716  -4.595468  -1.600991
H    -4.176301  -5.408584  -0.044138
H    -2.368096  -6.983560  -0.797205
H    -3.312455  -6.745215  -2.196335
N    -4.587497  -1.144538  2.703222
C    -5.562206  -1.342490  3.775407
H    -4.921793  -1.176823  1.745645
H    -6.026744  -2.331917  3.687472
H    -6.341412  -0.572674  3.724907
H    -5.041407  -1.270335  4.733491
Pb    1.809615  2.505288  3.691566
