34
Energy: -608352.585917 eV PBE+vdW (tier 2 basis)
C    -1.142029  2.270907  -0.038515
C    -1.256525  2.170322  1.444644
O    -1.308940  3.238016  2.139739
H    -2.008589  2.829014  -0.420905
H    -1.093665  1.296273  -0.534952
H    -0.249508  2.856928  -0.295915
N    -1.322389  0.959402  2.011219
C    -1.587116  0.701553  3.432862
C    -0.334636  1.028362  4.275455
O    -0.290895  2.162069  4.879015
H    -1.323037  0.154951  1.388073
H    -2.326634  1.448927  3.762299
C    -2.214922  -0.686679  3.665087
C    -3.729489  -0.753164  3.419375
C    -4.202253  -0.592385  1.969589
C    -5.686676  -0.977415  1.801112
N    -5.911468  -2.376560  2.112409
H    -2.019563  -0.965353  4.711201
H    -1.701497  -1.441029  3.049070
H    -4.235909  -0.015179  4.063389
H    -4.068860  -1.738550  3.771219
H    -3.599474  -1.234786  1.302962
H    -4.081918  0.442730  1.610997
H    -6.002602  -0.714241  0.774900
H    -6.300003  -0.371105  2.482448
H    -6.840169  -2.589164  2.466454
H    -5.667051  -3.023857  1.365976
N    0.692033  0.211300  4.420773
C    0.934425  -1.125011  3.867962
H    1.422378  0.581020  5.032255
H    2.016379  -1.287102  3.854670
H    0.565001  -1.199693  2.841496
H    0.469883  -1.898539  4.491413
Pb    -1.016386  4.181239  4.174210
