34
Energy: -608351.226651 eV PBE+vdW (tier 2 basis)
C    -0.434710  0.770838  -0.504903
C    -0.110155  -0.065870  0.682417
O    1.138260  -0.294343  0.990274
H    -1.491459  0.737435  -0.782206
H    0.161944  0.426595  -1.360752
H    -0.178245  1.817056  -0.285782
N    -1.021326  -0.663729  1.421847
C    -2.458276  -0.368304  1.455713
C    -2.618525  1.162727  1.740648
O    -1.640930  1.822085  2.097498
H    -0.655031  -1.191892  2.215430
H    -2.874059  -0.588998  0.460936
C    -3.136873  -1.310813  2.474109
C    -2.787126  -1.133037  3.962160
C    -3.506563  0.017699  4.682140
C    -3.336302  -0.037180  6.209278
N    -3.968770  -1.188400  6.799047
H    -2.894653  -2.338076  2.160801
H    -4.222745  -1.222619  2.341563
H    -1.697476  -1.022981  4.108639
H    -3.050033  -2.073180  4.468551
H    -4.582472  -0.011472  4.442407
H    -3.137887  0.995752  4.345573
H    -3.747381  0.903649  6.632622
H    -2.271396  -0.053246  6.482385
H    -4.977091  -1.274772  6.694913
H    -3.636893  -1.494527  7.709103
N    -3.840044  1.702257  1.548139
C    -5.085463  1.077638  1.113228
H    -3.878028  2.691751  1.784514
H    -4.899782  0.264539  0.402436
H    -5.689621  1.830699  0.596745
H    -5.669671  0.688779  1.958876
Pb    3.187782  0.331354  0.677926
