34
Energy: -608352.119222 eV PBE+vdW (tier 2 basis)
C    -0.375983  2.319631  -0.366723
C    -0.181939  1.667841  0.954947
O    0.767636  2.050352  1.722422
H    -0.761216  3.342190  -0.232642
H    -1.035481  1.758464  -1.034438
H    0.613121  2.428899  -0.834316
N    -0.991993  0.673532  1.374789
C    -2.452855  0.715835  1.282916
C    -2.920701  1.912250  2.144987
O    -2.158815  2.421332  3.041845
H    -0.642920  0.161119  2.187514
H    -2.746167  0.893880  0.238239
C    -3.022028  -0.641582  1.762216
C    -4.537146  -0.842808  1.640290
C    -5.131523  -0.745145  0.225730
C    -4.623518  -1.807642  -0.763610
N    -4.826328  -3.147341  -0.245807
H    -2.726104  -0.790766  2.813577
H    -2.496219  -1.411035  1.177460
H    -5.072628  -0.165626  2.322948
H    -4.740136  -1.853211  2.022687
H    -4.965553  0.246368  -0.235872
H    -6.224757  -0.836337  0.313275
H    -3.546396  -1.682600  -0.957165
H    -5.125174  -1.638272  -1.736106
H    -5.805060  -3.411934  -0.141040
H    -4.329077  -3.873678  -0.756137
N    -4.137450  2.379102  1.941738
C    -4.789772  3.460905  2.683087
H    -4.690134  1.920850  1.218209
H    -5.016318  4.289449  2.001153
H    -4.129511  3.805981  3.480605
H    -5.725563  3.088535  3.116508
Pb    -0.001904  2.745095  3.766881
