34
Energy: -608352.081503 eV PBE+vdW (tier 2 basis)
C    0.378607  0.968898  0.412616
C    0.020132  0.462532  1.764204
O    0.937516  0.090949  2.571174
H    1.155359  0.308025  0.002487
H    0.839690  1.965456  0.490956
H    -0.470210  1.004747  -0.276069
N    -1.267383  0.380363  2.164579
C    -2.244206  1.458026  1.998436
C    -1.784716  2.619552  2.909305
O    -0.917813  2.421302  3.832881
H    -1.400176  -0.160755  3.021306
H    -2.224082  1.794651  0.951384
C    -3.657657  0.952660  2.352924
C    -4.166170  -0.111072  1.368388
C    -5.489764  -0.768596  1.783596
C    -6.719035  0.148186  1.706952
N    -7.917529  -0.570756  2.063847
H    -4.338935  1.813114  2.381548
H    -3.639799  0.552185  3.381280
H    -3.408031  -0.902096  1.266737
H    -4.269002  0.341393  0.368061
H    -5.412495  -1.177187  2.802865
H    -5.655680  -1.632561  1.122436
H    -6.776881  0.584546  0.685737
H    -6.626674  0.997024  2.401919
H    -8.738681  -0.009042  2.269457
H    -8.145048  -1.380410  1.491309
N    -2.288144  3.833071  2.760421
C    -3.274644  4.316302  1.791718
H    -1.945134  4.517985  3.436001
H    -2.967566  5.310927  1.451028
H    -4.264814  4.393380  2.259012
H    -3.332013  3.654479  0.923306
Pb    0.877894  1.184523  4.597339
