34
Energy: -608352.552069 eV PBE+vdW (tier 2 basis)
C    -0.101742  -0.366526  -0.159311
C    -0.143395  -0.362554  1.331101
O    0.947293  -0.406816  1.986585
H    0.469513  0.510162  -0.496794
H    -1.094631  -0.346877  -0.620326
H    0.445486  -1.253765  -0.504966
N    -1.331523  -0.294806  1.949658
C    -1.518562  -0.121008  3.396126
C    -1.219973  -1.445086  4.135811
O    -0.072162  -1.578507  4.691867
H    -2.157633  -0.222752  1.359638
H    -0.720955  0.554332  3.743217
C    -2.853213  0.573471  3.707032
C    -3.073772  0.797365  5.210983
C    -4.293942  1.670778  5.535527
C    -5.650990  1.017425  5.238919
N    -6.732569  1.896237  5.614710
H    -3.691128  0.020815  3.260771
H    -2.820000  1.548530  3.196249
H    -2.180612  1.285462  5.631667
H    -3.165228  -0.169774  5.733935
H    -4.232189  2.627103  4.994854
H    -4.252491  1.923137  6.605693
H    -5.696380  0.034148  5.759121
H    -5.760632  0.806740  4.163628
H    -7.649995  1.654706  5.251083
H    -6.777667  2.147732  6.599578
N    -2.070810  -2.452787  4.218957
C    -3.432203  -2.593320  3.694586
H    -1.708633  -3.247556  4.748596
H    -3.666864  -3.661276  3.663492
H    -3.505834  -2.200441  2.676182
H    -4.160223  -2.093695  4.346157
Pb    1.958485  -0.875037  3.959928
