34
Energy: -608352.168466 eV PBE+vdW (tier 2 basis)
C    -2.266973  4.268016  -1.056622
C    -1.394118  3.302621  -0.339553
O    -0.125344  3.480586  -0.321109
H    -1.798746  4.481658  -2.028590
H    -2.296392  5.228068  -0.518887
H    -3.283646  3.898397  -1.216140
N    -1.903595  2.230929  0.300172
C    -3.065689  2.280193  1.190418
C    -2.661852  3.171844  2.388656
O    -1.433236  3.442710  2.640063
H    -1.211505  1.526933  0.564916
H    -3.904531  2.760283  0.664595
C    -3.464740  0.837389  1.579780
C    -4.768924  0.702951  2.375842
C    -5.278569  -0.745823  2.503149
C    -4.491251  -1.648041  3.457780
N    -3.146157  -1.958894  2.972289
H    -2.641342  0.347900  2.124192
H    -3.570897  0.299079  0.625313
H    -5.558946  1.292515  1.879435
H    -4.647510  1.112447  3.391906
H    -5.330605  -1.210539  1.504918
H    -6.315385  -0.707671  2.865252
H    -5.088855  -2.563231  3.629730
H    -4.392183  -1.160179  4.439226
H    -3.163891  -2.557755  2.145764
H    -2.577731  -2.420436  3.681706
N    -3.611300  3.651106  3.167731
C    -3.380416  4.478934  4.357391
H    -4.572723  3.402538  2.945144
H    -2.736164  3.950277  5.069216
H    -4.346690  4.684659  4.824305
H    -2.908197  5.427411  4.075206
Pb    0.697573  3.621900  1.806993
