34
Energy: -608351.439059 eV PBE+vdW (tier 2 basis)
C    0.471693  1.986769  0.526938
C    -0.071112  1.208150  1.674539
O    0.752584  0.864454  2.632839
H    1.230569  1.384597  0.007599
H    0.971585  2.889372  0.903372
H    -0.298197  2.278506  -0.192002
N    -1.320099  0.843601  1.784819
C    -2.476871  1.072010  0.907784
C    -3.654395  0.895423  1.911412
O    -3.463627  0.176655  2.900370
H    -1.664745  0.317016  2.621092
H    -2.449093  2.095053  0.506871
C    -2.486324  0.030632  -0.239732
C    -3.681465  0.097579  -1.211636
C    -4.837720  -0.849437  -0.865869
C    -5.977299  -0.772434  -1.891367
N    -7.053878  -1.668415  -1.568672
H    -2.421627  -0.971489  0.210290
H    -1.553951  0.176446  -0.804165
H    -3.307213  -0.156840  -2.213766
H    -4.046602  1.134777  -1.301798
H    -5.249513  -0.637923  0.130862
H    -4.453964  -1.881853  -0.830334
H    -5.563976  -0.986547  -2.901992
H    -6.387609  0.247335  -1.947175
H    -7.952988  -1.507548  -2.013306
H    -6.832657  -2.653962  -1.451440
N    -4.795103  1.538012  1.627572
C    -6.006159  1.425526  2.437984
H    -4.827246  2.124039  0.799966
H    -6.386488  2.424245  2.679776
H    -5.756848  0.895803  3.361140
H    -6.781671  0.864950  1.899641
Pb    2.185495  0.502403  4.172529
