34
Energy: -608352.44706 eV PBE+vdW (tier 2 basis)
C    -0.201074  -1.672933  -0.012719
C    -0.502146  -0.993181  1.280331
O    0.115868  0.077914  1.581263
H    0.868641  -1.919154  -0.052370
H    -0.394771  -0.968410  -0.833854
H    -0.789930  -2.582218  -0.171745
N    -1.431006  -1.520493  2.090804
C    -1.936644  -0.894120  3.319383
C    -0.900109  -1.022380  4.456813
O    -0.138017  -0.017545  4.692346
H    -1.901977  -2.363432  1.769706
H    -1.978804  0.189922  3.128809
C    -3.370610  -1.350997  3.635950
C    -4.417903  -0.705425  2.716449
C    -5.836225  -1.192132  3.033900
C    -6.902212  -0.548749  2.134099
N    -8.217502  -1.061586  2.438589
H    -3.587604  -1.088027  4.682260
H    -3.445724  -2.446908  3.575060
H    -4.183415  -0.925428  1.661480
H    -4.365533  0.390722  2.822119
H    -6.072474  -0.973812  4.088232
H    -5.900606  -2.284846  2.919522
H    -6.688396  -0.774091  1.079115
H    -6.844492  0.555544  2.236215
H    -8.916373  -0.949984  1.709677
H    -8.591863  -0.821757  3.353451
N    -0.752250  -2.100662  5.206195
C    -1.452499  -3.388460  5.177700
H    -0.031602  -1.999320  5.923126
H    -0.803094  -4.129017  5.653885
H    -1.640816  -3.712625  4.150166
H    -2.395195  -3.337960  5.735796
Pb    0.807020  1.455475  3.247547
