34
Energy: -608352.288134 eV PBE+vdW (tier 2 basis)
C    -1.446597  0.580923  0.121532
C    -1.001941  0.532931  1.544215
O    0.027516  1.200575  1.895309
H    -0.644161  0.197708  -0.523803
H    -1.606213  1.630594  -0.161975
H    -2.363894  0.011643  -0.061100
N    -1.708194  -0.196216  2.414426
C    -1.536860  -0.223473  3.870332
C    -0.344499  -1.134038  4.253998
O    0.818018  -0.585116  4.312354
H    -2.536443  -0.669692  2.053103
H    -1.164818  0.771589  4.157564
C    -2.889872  -0.399680  4.607729
C    -4.012493  -1.261409  3.971812
C    -5.283787  -0.475129  3.623653
C    -5.142042  0.492726  2.443015
N    -6.383077  1.185097  2.197767
H    -3.277635  0.619018  4.744492
H    -2.663115  -0.749814  5.623694
H    -4.286341  -2.056717  4.675903
H    -3.670989  -1.805244  3.071658
H    -5.629412  0.085709  4.504585
H    -6.080164  -1.198314  3.392114
H    -4.776299  -0.083011  1.555643
H    -4.375999  1.257825  2.656278
H    -6.329450  1.970624  1.555534
H    -7.173642  0.586302  1.969161
N    -0.415106  -2.419236  4.543025
C    -1.550566  -3.344708  4.577802
H    0.490741  -2.818846  4.795873
H    -1.146467  -4.360843  4.568247
H    -2.188328  -3.218314  3.699831
H    -2.138451  -3.211274  5.493920
Pb    1.741940  1.233099  3.354456
