34
Energy: -608353.114215 eV PBE+vdW (tier 2 basis)
C    -1.061497  -0.644384  0.170308
C    -0.796868  0.080468  1.446262
O    0.171498  0.944178  1.441458
H    -0.152839  -1.164317  -0.160099
H    -1.299271  0.099086  -0.604416
H    -1.888831  -1.352442  0.251829
N    -1.559445  -0.144158  2.503296
C    -1.493765  0.649930  3.741120
C    -0.423550  0.055148  4.675370
O    0.819581  0.211084  4.382429
H    -2.280639  -0.968238  2.422491
H    -1.064506  1.625404  3.460236
C    -2.896468  0.952992  4.344622
C    -4.063137  0.024957  3.989995
C    -4.007310  -1.441147  4.476327
C    -4.313441  -2.427061  3.351791
N    -3.219728  -2.391832  2.333873
H    -3.163787  1.959128  3.995259
H    -2.796651  1.062384  5.435710
H    -4.200173  0.044123  2.898271
H    -4.968205  0.500808  4.389185
H    -4.715259  -1.598320  5.300536
H    -3.016963  -1.711314  4.882995
H    -5.252219  -2.142888  2.858697
H    -4.453777  -3.443030  3.745212
H    -2.564905  -3.155224  2.521713
H    -3.610067  -2.602908  1.412993
N    -0.766094  -0.588532  5.769347
C    0.146259  -1.189140  6.744416
H    -1.764141  -0.663544  5.960011
H    -0.071173  -0.780093  7.738088
H    1.177520  -0.964202  6.466468
H    -0.003138  -2.275732  6.764915
Pb    1.869433  1.375588  2.767256
