34
Energy: -608351.919841 eV PBE+vdW (tier 2 basis)
C    -0.203262  0.073501  0.279419
C    -0.302705  0.162528  1.762392
O    0.717125  0.525189  2.445027
H    -1.068271  0.532029  -0.211312
H    -0.160909  -0.981807  -0.037214
H    0.721273  0.558539  -0.047588
N    -1.438714  -0.144570  2.424311
C    -2.275433  -1.330605  2.155605
C    -1.328706  -2.559600  2.210239
O    -0.200117  -2.496489  2.813718
H    -1.421415  0.144717  3.402008
H    -2.902291  -1.423488  3.058383
C    -3.251647  -1.248189  0.967408
C    -4.288118  -0.111171  1.090232
C    -3.899131  1.250393  0.494031
C    -3.942412  1.300341  -1.041519
N    -5.274268  1.024455  -1.540981
H    -3.814591  -2.194479  0.956381
H    -2.712436  -1.207163  0.010856
H    -4.563103  0.011359  2.149022
H    -5.203747  -0.441498  0.580157
H    -2.908576  1.583899  0.838473
H    -4.601270  2.003878  0.882428
H    -3.263291  0.553652  -1.485636
H    -3.561231  2.288728  -1.367042
H    -5.979033  1.711091  -1.276547
H    -5.328823  0.828682  -2.537498
N    -1.718068  -3.697768  1.671872
C    -0.962160  -4.953976  1.739143
H    -2.615935  -3.709291  1.194544
H    -1.536650  -5.727137  1.223277
H    -0.810898  -5.249265  2.783990
H    0.011973  -4.839053  1.249691
Pb    1.426335  -1.191001  3.790810
