34
Energy: -608352.646173 eV PBE+vdW (tier 2 basis)
C    0.842020  2.759697  2.252949
C    -0.317340  2.094223  2.914426
O    -1.317210  2.799851  3.275765
H    1.234770  3.548536  2.908178
H    0.482553  3.256566  1.340115
H    1.648137  2.066993  1.990167
N    -0.287525  0.768400  3.087551
C    -1.396943  -0.096241  3.519795
C    -1.475501  -0.122478  5.060314
O    -1.872513  0.920088  5.685096
H    0.551243  0.286258  2.770943
H    -2.328924  0.404849  3.210971
C    -1.337622  -1.455080  2.790332
C    0.020137  -2.185352  2.746758
C    -0.078451  -3.636765  2.241835
C    -0.506661  -3.768321  0.756971
N    -0.479651  -5.106811  0.231800
H    -1.680265  -1.270395  1.763008
H    -2.107959  -2.103712  3.236079
H    0.511484  -2.200078  3.735139
H    0.719939  -1.644583  2.085317
H    -0.777094  -4.208596  2.873716
H    0.906336  -4.110099  2.361954
H    0.159548  -3.143882  0.139528
H    -1.526081  -3.377283  0.618090
H    -1.191357  -5.751391  0.561730
H    0.430355  -5.546586  0.130928
N    -1.158543  -1.218293  5.720482
C    -1.204887  -1.387782  7.174633
H    -0.845229  -2.014525  5.169696
H    -0.184341  -1.453031  7.572595
H    -1.741514  -2.313950  7.408735
H    -1.719583  -0.536241  7.623854
Pb    -2.651330  2.967014  5.079547
