34
Energy: -608352.743801 eV PBE+vdW (tier 2 basis)
C    -1.083171  -0.482470  -0.339061
C    -0.256379  -0.403520  0.901624
O    0.946081  -0.819768  0.857384
H    -2.100502  -0.098037  -0.213141
H    -1.132272  -1.533005  -0.659289
H    -0.580101  0.070562  -1.143725
N    -0.822258  0.094039  2.009529
C    -0.313039  0.165776  3.398702
C    0.789508  1.226622  3.541662
O    1.976567  1.021703  3.120411
H    -1.787275  0.392685  1.893973
H    -1.177666  0.518361  3.975667
C    0.093196  -1.191159  4.003186
C    0.336516  -1.148271  5.518755
C    -0.900261  -0.787126  6.349389
C    -0.665175  -0.967280  7.864116
N    -1.809601  -0.505350  8.616894
H    1.000433  -1.591731  3.507105
H    -0.704163  -1.909091  3.761058
H    1.163266  -0.456740  5.753539
H    0.693357  -2.145675  5.815297
H    -1.753322  -1.414262  6.043106
H    -1.208264  0.259760  6.193695
H    0.209493  -0.377296  8.172990
H    -0.416352  -2.028555  8.058690
H    -2.600778  -1.144845  8.635933
H    -1.600528  -0.173816  9.554351
N    0.479981  2.356553  4.151920
C    1.396485  3.472421  4.399146
H    -0.478488  2.468109  4.475008
H    1.268648  3.814232  5.431868
H    1.167425  4.300363  3.716145
H    2.424783  3.140066  4.241747
Pb    2.928187  -0.616178  1.882707
