34
Energy: -608352.808273 eV PBE+vdW (tier 2 basis)
C    -0.341770  0.504867  -0.095283
C    -0.307950  0.409043  1.391179
O    0.779171  0.681132  2.006820
H    0.436643  -0.143307  -0.519962
H    -0.089899  1.535018  -0.386031
H    -1.313587  0.238197  -0.523198
N    -1.417653  0.062047  2.050901
C    -1.582156  0.075028  3.512264
C    -0.860817  -1.139632  4.136644
O    0.326857  -0.955934  4.614548
H    -2.253547  -0.108018  1.494669
H    -1.017182  0.941965  3.890337
C    -3.052191  0.291194  3.896979
C    -3.274393  0.322698  5.413934
C    -4.744954  0.508637  5.819574
C    -5.717229  -0.557104  5.302822
N    -5.246508  -1.923976  5.590503
H    -3.683166  -0.478267  3.432783
H    -3.354742  1.253601  3.455342
H    -2.684830  1.142766  5.852635
H    -2.896758  -0.607116  5.866119
H    -5.106224  1.493180  5.486830
H    -4.785974  0.534051  6.919004
H    -5.845014  -0.473543  4.212518
H    -6.710064  -0.350536  5.737365
H    -5.932025  -2.607349  5.263823
H    -5.165487  -2.069815  6.599701
N    -1.370683  -2.350532  4.207216
C    -2.674293  -2.865644  3.778139
H    -0.750755  -3.023637  4.662328
H    -2.908693  -2.528200  2.762809
H    -3.483318  -2.558690  4.478880
H    -2.603559  -3.957014  3.765842
Pb    1.964158  0.375092  3.891540
