34
Energy: -608351.995679 eV PBE+vdW (tier 2 basis)
C    0.078700  -0.328339  3.190634
C    -0.914435  -0.602889  4.265138
O    -0.510116  -0.784457  5.464196
H    -0.280523  0.412333  2.469554
H    0.305930  -1.259519  2.645207
H    1.011197  0.011977  3.652872
N    -2.242079  -0.675480  4.021311
C    -2.871871  -1.410948  2.909668
C    -2.436984  -2.894263  3.054949
O    -1.913653  -3.329535  4.136880
H    -2.799754  -0.665861  4.875189
H    -3.947426  -1.393843  3.150659
C    -2.718408  -0.793166  1.506025
C    -3.129985  0.686830  1.459964
C    -2.940942  1.345700  0.086297
C    -3.941678  0.897416  -0.988399
N    -3.708127  1.594702  -2.229558
H    -3.370776  -1.363587  0.826192
H    -1.694118  -0.924146  1.129035
H    -2.539042  1.248529  2.198376
H    -4.179523  0.785164  1.782681
H    -1.918450  1.176046  -0.285698
H    -3.038123  2.433573  0.220247
H    -4.972959  1.053353  -0.603763
H    -3.849658  -0.180096  -1.195756
H    -4.166494  1.215771  -3.053397
H    -3.772703  2.609550  -2.194323
N    -2.654464  -3.723709  2.052003
C    -2.364260  -5.161917  2.084830
H    -3.060918  -3.341797  1.202335
H    -1.288943  -5.331064  2.215395
H    -2.685405  -5.598092  1.135797
H    -2.909357  -5.639452  2.907178
Pb    -1.037466  -2.883833  6.231882
