34
Energy: -608351.471606 eV PBE+vdW (tier 2 basis)
C    0.433671  0.713221  0.227504
C    0.025408  0.715697  1.659762
O    0.967152  0.804711  2.566314
H    1.014997  1.620440  0.013336
H    -0.417083  0.664507  -0.457011
H    1.091588  -0.146782  0.039691
N    -1.210956  0.629060  2.068017
C    -2.473983  0.561144  1.323174
C    -3.480418  1.074097  2.402441
O    -3.139574  0.983443  3.590482
H    -1.465437  0.676276  3.086391
H    -2.439617  1.241952  0.460338
C    -2.775990  -0.888138  0.868767
C    -4.016959  -1.020644  -0.026362
C    -4.177929  -2.406010  -0.671322
C    -4.569842  -3.521608  0.308524
N    -4.788946  -4.766488  -0.373119
H    -2.863534  -1.514510  1.768927
H    -1.896671  -1.253863  0.314981
H    -3.955287  -0.278580  -0.838698
H    -4.926020  -0.783586  0.546956
H    -3.254158  -2.697350  -1.193877
H    -4.957345  -2.330970  -1.444936
H    -5.478875  -3.201286  0.866081
H    -3.792658  -3.688661  1.069251
H    -4.800271  -5.620923  0.175167
H    -5.433223  -4.775123  -1.159561
N    -4.646096  1.564993  1.967848
C    -5.702144  2.048073  2.857070
H    -4.802509  1.629209  0.967162
H    -5.892876  3.112225  2.673870
H    -5.374445  1.909877  3.890441
H    -6.626412  1.482443  2.689000
Pb    2.487192  1.218650  4.005582
