34
Energy: -608352.543257 eV PBE+vdW (tier 2 basis)
C    -0.441740  0.590543  -0.108477
C    -0.342952  0.488169  1.376052
O    0.736147  0.835967  1.954998
H    0.361240  -0.001682  -0.567573
H    -0.270795  1.636511  -0.400290
H    -1.408644  0.260610  -0.502184
N    -1.402068  0.046511  2.069418
C    -1.510219  0.035926  3.534261
C    -0.679713  -1.122422  4.129222
O    0.496018  -0.854956  4.567904
H    -2.239082  -0.184119  1.538806
H    -0.989659  0.937266  3.895284
C    -2.971790  0.156350  3.995529
C    -3.520019  1.582642  3.816295
C    -4.920133  1.789377  4.410768
C    -6.056522  1.088699  3.653700
N    -7.329229  1.363213  4.278632
H    -3.013676  -0.118159  5.060696
H    -3.600981  -0.572666  3.465379
H    -3.527146  1.857070  2.748168
H    -2.829488  2.285964  4.307690
H    -5.122866  2.870936  4.422546
H    -4.938197  1.465921  5.462606
H    -5.920088  -0.004230  3.657711
H    -6.025352  1.403808  2.587525
H    -8.106510  0.783531  3.974639
H    -7.596058  2.344204  4.324146
N    -1.104469  -2.370092  4.220034
C    -2.371604  -2.980252  3.806485
H    -0.428697  -2.997257  4.660188
H    -2.196365  -4.052421  3.677160
H    -2.711064  -2.573740  2.849438
H    -3.144672  -2.840865  4.571843
Pb    2.041973  0.614074  3.795533
