34
Energy: -608351.609662 eV PBE+vdW (tier 2 basis)
C    0.026345  -0.609987  -0.162523
C    -0.442352  -0.750389  1.272242
O    0.758937  -0.820204  2.157240
H    0.528669  0.355892  -0.298461
H    -0.837263  -0.642786  -0.835245
H    0.711079  -1.424346  -0.426793
N    -1.365997  0.212463  1.708737
C    -2.356642  -0.348317  2.620675
C    -2.185963  -1.826483  2.305757
O    -1.116971  -1.995470  1.468918
H    -1.049912  1.167189  1.838412
H    -2.087909  -0.205901  3.686470
C    -3.733643  0.303197  2.370399
C    -4.874722  -0.168544  3.287145
C    -5.759574  -1.269369  2.662300
C    -6.268135  -2.309039  3.648864
N    -5.095331  -3.030902  4.298703
H    -3.999978  0.170978  1.312444
H    -3.577282  1.382259  2.510396
H    -5.506015  0.690483  3.546090
H    -4.443267  -0.494773  4.248369
H    -5.217763  -1.788057  1.859192
H    -6.636381  -0.815683  2.180971
H    -6.873697  -3.068789  3.142500
H    -6.875891  -1.872333  4.450468
H    -4.892225  -2.650974  5.228072
H    -5.298083  -4.026997  4.426692
N    -2.866231  -2.818676  2.726903
C    -2.482703  -4.168611  2.296544
H    -4.183224  -2.910262  3.681732
H    -3.073831  -4.906115  2.850934
H    -1.418909  -4.370046  2.479310
H    -2.675550  -4.310955  1.223989
Pb    2.773559  -0.902892  2.417919
