34
Energy: -608351.423749 eV PBE+vdW (tier 2 basis)
C    -1.279252  0.232720  0.236717
C    -0.849565  0.277795  1.669840
O    0.358485  0.230830  1.993396
H    -0.538619  0.743201  -0.386519
H    -2.271707  0.667762  0.070635
H    -1.315128  -0.823478  -0.077862
N    -1.832036  0.348209  2.611678
C    -1.698695  0.019909  4.038651
C    -0.798257  0.995096  4.798593
O    -1.213464  1.422373  5.955912
H    -2.784227  0.430746  2.271176
H    -2.700532  0.150945  4.467824
C    -1.227021  -1.430620  4.335869
C    -2.216404  -2.544254  3.945131
C    -2.367757  -2.890801  2.454981
C    -1.089149  -3.414058  1.791203
N    -1.282261  -3.644346  0.380266
H    -1.067215  -1.490248  5.423643
H    -0.240628  -1.587382  3.877541
H    -3.210621  -2.304801  4.353006
H    -1.895187  -3.449746  4.482080
H    -2.745315  -2.036598  1.875982
H    -3.146316  -3.665266  2.376794
H    -0.767157  -4.340643  2.314997
H    -0.250327  -2.708199  1.899264
H    -0.455500  -3.894453  -0.156963
H    -2.093656  -4.199932  0.115863
N    0.365504  1.315711  4.299024
C    1.317883  2.195336  4.942157
H    0.548612  0.854027  3.312269
H    2.201023  2.304800  4.303637
H    1.667824  1.774721  5.903440
H    0.897967  3.208756  5.083234
Pb    -0.662330  2.687371  7.638322
