34
Energy: -608353.402965 eV PBE+vdW (tier 2 basis)
C    2.359666  1.535057  2.237989
C    1.235234  1.432257  3.227578
O    0.914053  2.585861  3.784247
H    2.712341  0.557474  1.896305
H    3.205947  2.064309  2.693388
H    2.039951  2.138255  1.376547
N    0.645718  0.285534  3.437894
C    -0.500125  0.198053  4.356746
C    -0.008132  0.163976  5.814710
O    0.235023  1.254135  6.445778
H    0.904744  -0.879491  2.269401
H    -1.101009  1.125230  4.299195
C    -1.442755  -0.955228  3.960115
C    -0.791815  -2.345971  3.747178
C    -0.983699  -2.950289  2.344451
C    -0.492881  -2.088011  1.186002
N    0.912721  -1.592927  1.427262
H    -1.946126  -0.630524  3.038797
H    -2.245570  -1.017730  4.707434
H    -1.208166  -3.070022  4.461710
H    0.289281  -2.300380  3.961480
H    -2.049203  -3.152394  2.162463
H    -0.485176  -3.930842  2.308811
H    -1.103341  -1.187023  1.045701
H    -0.506087  -2.649904  0.245099
H    1.552805  -2.369427  1.633208
H    1.276313  -1.113601  0.595940
N    0.168295  -0.980734  6.446603
C    0.648016  -1.096569  7.827816
H    -0.046563  -1.836771  5.944401
H    1.690409  -0.763470  7.900624
H    0.580488  -2.144905  8.128722
H    0.029215  -0.485010  8.493819
Pb    0.364429  3.381082  5.713583
