34
Energy: -608352.013557 eV PBE+vdW (tier 2 basis)
C    -0.939052  1.640215  0.681270
C    -0.683724  0.862681  1.923702
O    0.437780  0.993428  2.529267
H    -1.970135  2.001821  0.620551
H    -0.744236  1.009166  -0.202205
H    -0.237303  2.479884  0.641075
N    -1.588196  0.004150  2.441628
C    -2.352346  -0.996727  1.673772
C    -1.313087  -1.904146  0.969001
O    -0.086014  -1.924548  1.338411
H    -1.354490  -0.292281  3.389073
H    -2.819893  -1.628683  2.446085
C    -3.485767  -0.456549  0.780249
C    -4.439312  0.513831  1.492523
C    -5.213547  -0.047701  2.695152
C    -6.123875  -1.245821  2.391944
N    -7.035109  -0.964740  1.297431
H    -4.074721  -1.319620  0.430014
H    -3.073808  0.015828  -0.121654
H    -5.156937  0.855141  0.734168
H    -3.886955  1.408241  1.817592
H    -5.826586  0.769931  3.103534
H    -4.535538  -0.326233  3.518971
H    -6.646859  -1.522132  3.328526
H    -5.533563  -2.135541  2.114564
H    -7.583143  -1.767410  0.994775
H    -7.657636  -0.175560  1.468669
N    -1.715566  -2.696052  -0.005024
C    -0.857753  -3.656317  -0.709108
H    -2.690940  -2.635397  -0.286850
H    -0.385630  -4.337473  0.007779
H    -0.080878  -3.129956  -1.276537
H    -1.480874  -4.230257  -1.399296
Pb    1.609089  -0.969398  2.565513
