34
Energy: -608352.752304 eV PBE+vdW (tier 2 basis)
C    0.038609  1.252211  0.311660
C    -0.121975  0.135512  1.278935
O    0.869190  -0.223416  2.011558
H    1.013702  1.133983  -0.181657
H    0.082100  2.213827  0.846528
H    -0.753102  1.284740  -0.441973
N    -1.295023  -0.507891  1.421016
C    -2.587275  0.179156  1.546093
C    -2.507179  1.065636  2.810299
O    -1.626893  0.797715  3.740250
H    -1.238858  -1.380400  1.950586
H    -2.731970  0.830257  0.675657
C    -3.700684  -0.893445  1.606473
C    -5.152486  -0.427131  1.786913
C    -5.859647  0.196277  0.571711
C    -5.356637  1.542486  0.048381
N    -5.248340  2.563718  1.128492
H    -3.454260  -1.574819  2.438541
H    -3.611213  -1.483935  0.681711
H    -5.238016  0.226445  2.668298
H    -5.723539  -1.325984  2.058542
H    -6.923601  0.304197  0.834264
H    -5.842244  -0.512612  -0.269652
H    -6.034145  1.886397  -0.746455
H    -4.365343  1.452361  -0.421514
H    -5.081061  3.484538  0.713329
H    -6.150056  2.643887  1.609215
N    -3.338461  2.056527  2.930504
C    -3.371993  2.929697  4.103243
H    -4.137689  2.253624  2.132374
H    -3.541227  2.351215  5.019894
H    -4.190042  3.644542  3.973795
H    -2.431279  3.485851  4.205751
Pb    0.378624  -0.029590  4.231266
