34
Energy: -608352.75383 eV PBE+vdW (tier 2 basis)
C    0.273198  -0.413702  0.174705
C    0.075725  -0.338304  1.650410
O    1.072674  -0.064012  2.399787
H    0.605814  0.573561  -0.179230
H    -0.633662  -0.698719  -0.368525
H    1.079894  -1.121723  -0.055090
N    -1.151538  -0.523269  2.146464
C    -1.592219  -0.276939  3.530783
C    -1.252241  -1.512607  4.390220
O    -0.052667  -1.689962  4.798822
H    -1.887866  -0.718541  1.471359
H    -0.968508  0.539604  3.930362
C    -3.062880  0.169930  3.571929
C    -3.342196  1.605842  3.088478
C    -3.199081  1.872240  1.585635
C    -3.721927  3.264354  1.189260
N    -3.534720  3.507093  -0.227672
H    -3.390493  0.103595  4.620112
H    -3.687079  -0.539801  2.998834
H    -2.708772  2.305192  3.657989
H    -4.374768  1.835470  3.391140
H    -3.758269  1.110239  1.014102
H    -2.150221  1.816880  1.257459
H    -3.168201  4.034733  1.744279
H    -4.781041  3.351483  1.502610
H    -4.200280  3.029477  -0.832259
H    -3.482902  4.490494  -0.481337
N    -2.200016  -2.378160  4.687303
C    -2.033601  -3.603528  5.472955
H    -3.140343  -2.164646  4.359800
H    -2.716856  -3.576915  6.329988
H    -1.002353  -3.673818  5.823630
H    -2.275101  -4.472685  4.848972
Pb    1.925561  -0.667285  4.390181
