34
Energy: -608352.565977 eV PBE+vdW (tier 2 basis)
C    -1.710222  -2.853229  1.188512
C    -1.437618  -1.679008  2.065310
O    -0.583543  -0.807825  1.695101
H    -0.768091  -3.371455  0.966761
H    -2.106365  -2.487965  0.229702
H    -2.424082  -3.560073  1.623779
N    -2.116915  -1.552877  3.212228
C    -2.084435  -0.376116  4.090749
C    -0.759004  -0.342001  4.883550
O    0.182141  0.419246  4.453723
H    -2.816529  -2.263076  3.416076
H    -2.021149  0.509434  3.438220
C    -3.373813  -0.234433  4.923353
C    -4.540923  0.438290  4.181467
C    -5.133446  -0.344517  3.004863
C    -6.400612  0.318907  2.438504
N    -6.915011  -0.421260  1.302739
H    -3.131244  0.369353  5.810036
H    -3.687924  -1.218942  5.302919
H    -4.226869  1.440985  3.847794
H    -5.327774  0.612752  4.930540
H    -5.385587  -1.370350  3.327069
H    -4.416056  -0.437798  2.174139
H    -6.161762  1.337839  2.102343
H    -7.143766  0.423799  3.253557
H    -7.404040  -1.281345  1.543195
H    -7.484133  0.131173  0.666211
N    -0.535672  -1.044212  5.979039
C    -1.395776  -1.988599  6.699007
H    0.388259  -0.882766  6.384391
H    -0.746746  -2.661842  7.266998
H    -1.987822  -2.590753  6.004297
H    -2.057132  -1.463690  7.398992
Pb    0.807136  0.859380  2.326133
