34
Energy: -608351.429475 eV PBE+vdW (tier 2 basis)
C    -0.692992  1.425866  -0.571828
C    -0.377630  1.309766  0.877772
O    0.834380  1.657550  1.272141
H    -0.251903  2.344303  -0.976539
H    -1.770355  1.425728  -0.762760
H    -0.244864  0.578282  -1.112371
N    -1.203322  0.880480  1.785177
C    -2.616806  0.487832  1.703152
C    -3.012385  0.520252  3.212634
O    -2.139658  0.855471  4.034443
H    -0.991042  0.938612  2.826637
H    -3.177598  1.294311  1.203776
C    -2.876794  -0.835311  0.956035
C    -2.298015  -2.122696  1.570031
C    -3.148071  -2.863098  2.619423
C    -4.555084  -3.268143  2.138472
N    -5.574177  -2.227196  2.353606
H    -2.493278  -0.716519  -0.067195
H    -3.966784  -0.920869  0.835120
H    -1.301662  -1.925142  1.997807
H    -2.118889  -2.821149  0.739314
H    -3.230476  -2.295581  3.557897
H    -2.604671  -3.780831  2.883428
H    -4.847558  -4.197114  2.657285
H    -4.532271  -3.507510  1.066333
H    -6.347867  -2.299567  1.692420
H    -5.968987  -2.278049  3.294155
N    -4.278310  0.234111  3.514454
C    -4.770369  0.246889  4.889129
H    -4.844360  -0.271917  2.820915
H    -4.553986  -0.701854  5.402044
H    -5.851759  0.415071  4.876118
H    -4.282842  1.054649  5.442751
Pb    2.681777  2.444510  1.915802
