34
Energy: -608352.755181 eV PBE+vdW (tier 2 basis)
C    0.208235  0.665622  0.225107
C    0.004070  0.604801  1.701234
O    0.836906  1.188525  2.470621
H    0.215132  1.721541  -0.081626
H    -0.561228  0.131991  -0.342332
H    1.196892  0.257803  -0.024435
N    -1.065082  -0.042033  2.179893
C    -1.537781  -0.053233  3.575529
C    -0.761940  -1.125461  4.365609
O    0.427382  -0.880922  4.765382
H    -1.677564  -0.477761  1.493192
H    -1.244167  0.910609  4.022615
C    -3.069294  -0.159657  3.617342
C    -3.777183  1.081917  3.046322
C    -5.305235  0.950283  2.976013
C    -6.017020  0.954215  4.336267
N    -7.446761  0.843054  4.162132
H    -3.365322  -0.307139  4.666114
H    -3.402932  -1.055317  3.061588
H    -3.405167  1.286058  2.030650
H    -3.503603  1.960997  3.652750
H    -5.587177  0.037952  2.427926
H    -5.687347  1.791773  2.378791
H    -5.722439  1.870525  4.892167
H    -5.696196  0.101533  4.954738
H    -7.977896  0.625309  5.000764
H    -7.885952  1.593296  3.632917
N    -1.332926  -2.287435  4.614804
C    -0.722492  -3.410039  5.331070
H    -2.290843  -2.410411  4.292597
H    -1.361485  -3.687830  6.177387
H    0.264329  -3.116042  5.693420
H    -0.629671  -4.268692  4.654818
Pb    1.898861  0.816365  4.424164
