34
Energy: -608352.018382 eV PBE+vdW (tier 2 basis)
C    -0.680203  1.119816  -1.013018
C    -0.524318  0.489466  0.324552
O    0.571147  -0.094576  0.633335
H    -0.095491  2.051563  -1.063887
H    -1.722309  1.324201  -1.275351
H    -0.237493  0.444000  -1.758049
N    -1.521198  0.515888  1.233133
C    -2.293696  1.713890  1.565929
C    -1.316451  2.689453  2.261509
O    -0.171776  2.286960  2.684485
H    -1.381953  -0.112476  2.026208
H    -2.639890  2.180553  0.631450
C    -3.514659  1.364014  2.448086
C    -4.773402  0.958830  1.665455
C    -4.724120  -0.355793  0.872400
C    -4.606079  -1.626174  1.725803
N    -5.682162  -1.721635  2.693002
H    -3.760031  2.235585  3.068828
H    -3.215397  0.581845  3.165224
H    -5.042689  1.780980  0.983360
H    -5.591226  0.893277  2.396594
H    -3.910018  -0.355728  0.130858
H    -5.649345  -0.419384  0.279389
H    -3.655462  -1.644543  2.285393
H    -4.564835  -2.496777  1.041489
H    -6.613785  -1.759962  2.281298
H    -5.575525  -2.468048  3.376088
N    -1.647281  3.955728  2.438042
C    -2.877383  4.653713  2.054230
H    -0.949190  4.511643  2.935105
H    -2.608135  5.642198  1.666779
H    -3.531294  4.781034  2.926692
H    -3.415822  4.106904  1.275632
Pb    1.546642  0.773551  2.523044
