34
Energy: -608353.694519 eV PBE+vdW (tier 2 basis)
C    -3.339133  0.402933  -1.159594
C    -2.837707  0.757011  0.203430
O    -1.829587  0.143767  0.666959
H    -2.521108  0.510521  -1.883889
H    -4.194210  1.005572  -1.482918
H    -3.627144  -0.657834  -1.160411
N    -3.492922  1.714858  0.884337
C    -3.298969  2.132064  2.289045
C    -2.036198  3.005100  2.415976
O    -0.867310  2.500543  2.435394
H    -4.280937  2.135086  0.399455
H    -4.162589  2.771810  2.518564
C    -3.327024  0.935622  3.250139
C    -3.128021  1.229923  4.743702
C    -2.641465  -0.046914  5.464790
C    -1.141345  -0.126762  5.763785
N    -0.224683  0.432461  4.699426
H    -2.586329  0.189455  2.931289
H    -4.290030  0.426143  3.098989
H    -4.075084  1.572285  5.179613
H    -2.421471  2.061641  4.900137
H    -2.952058  -0.925527  4.880072
H    -3.149419  -0.150918  6.432362
H    -0.851711  -1.171764  5.923108
H    -0.916578  0.415238  6.694357
H    -0.237301  1.454847  4.786791
H    0.727380  0.164840  4.975516
N    -2.211162  4.313797  2.506163
C    -1.147391  5.315916  2.599138
H    -3.167709  4.660349  2.513227
H    -1.200834  5.822530  3.570583
H    -1.279349  6.057358  1.802525
H    -0.177914  4.826054  2.489228
Pb    -0.048687  0.375997  2.129715
