34
Energy: -608351.316238 eV PBE+vdW (tier 2 basis)
C    0.136895  0.237246  0.194099
C    -0.067666  0.056647  1.658199
O    0.984087  -0.178128  2.402328
H    0.572468  -0.680137  -0.226116
H    0.858063  1.048384  0.025008
H    -0.788685  0.464749  -0.340862
N    -1.230834  0.116104  2.248201
C    -2.579022  0.361502  1.709906
C    -3.310834  0.877442  2.984485
O    -2.896975  0.454679  4.073598
H    -1.328267  -0.003298  3.282831
H    -2.530589  1.123781  0.922454
C    -3.155657  -0.969907  1.160304
C    -4.568476  -0.933318  0.549195
C    -5.712264  -1.182493  1.540375
C    -7.079989  -1.213949  0.843464
N    -8.153106  -1.448789  1.770001
H    -3.114561  -1.713695  1.970601
H    -2.449126  -1.313794  0.390578
H    -4.601758  -1.718187  -0.220832
H    -4.726297  0.009295  0.002288
H    -5.741860  -0.421779  2.332565
H    -5.543397  -2.146751  2.046546
H    -7.057041  -1.991150  0.047518
H    -7.278825  -0.263643  0.324703
H    -9.096923  -1.224203  1.468857
H    -8.102891  -2.279171  2.354698
N    -4.329650  1.745216  2.880232
C    -4.907955  2.390744  1.707995
H    -4.735633  1.986075  3.783582
H    -5.084101  3.448966  1.931718
H    -5.864797  1.929894  1.427311
H    -4.228497  2.337935  0.852596
Pb    2.770871  -0.424850  3.542766
