34
Energy: -608352.780276 eV PBE+vdW (tier 2 basis)
C    -0.663492  2.106418  1.901837
C    -0.876322  0.641298  2.088670
O    0.080649  -0.152132  1.802953
H    -1.534462  2.712659  2.171130
H    -0.406388  2.291401  0.849097
H    0.202099  2.424556  2.498661
N    -2.064345  0.221732  2.539858
C    -2.602743  -1.153831  2.661689
C    -1.990794  -1.879893  3.867961
O    -0.792793  -2.325622  3.835796
H    -2.733780  0.963164  2.728864
H    -3.669210  -1.002734  2.876113
C    -2.536339  -2.001334  1.379411
C    -3.121315  -1.341941  0.128925
C    -4.615704  -0.969493  0.212908
C    -5.543227  -2.085777  0.715402
N    -5.182985  -3.386727  0.154907
H    -3.065602  -2.949280  1.570413
H    -1.491584  -2.308631  1.142709
H    -2.981169  -2.061727  -0.688064
H    -2.541284  -0.449234  -0.148941
H    -4.922017  -0.663745  -0.798400
H    -4.773115  -0.074409  0.836856
H    -6.585324  -1.782104  0.506296
H    -5.481776  -2.177359  1.813706
H    -5.297570  -3.408665  -0.859713
H    -5.766722  -4.132323  0.533280
N    -2.743302  -2.056733  4.937723
C    -2.340202  -2.749209  6.164951
H    -3.688845  -1.680935  4.914394
H    -3.088715  -3.512440  6.406462
H    -2.281590  -2.028986  6.990473
H    -1.365949  -3.218243  6.014275
Pb    0.790089  -2.230053  2.234370
