34
Energy: -608352.195826 eV PBE+vdW (tier 2 basis)
C    1.139566  1.409636  1.623310
C    0.358199  0.457889  2.455457
O    0.883273  -0.049640  3.508333
H    2.151322  0.995495  1.504500
H    1.265331  2.365692  2.154298
H    0.700244  1.586038  0.637671
N    -0.903120  0.110358  2.131689
C    -1.938400  1.066312  1.731307
C    -2.175247  1.991465  2.945863
O    -1.790069  1.662139  4.126124
H    -1.261670  -0.701435  2.638439
H    -1.571580  1.669381  0.887447
C    -3.200393  0.290018  1.288604
C    -4.307155  1.136215  0.647635
C    -5.432795  0.299303  0.009495
C    -5.064683  -0.411444  -1.298843
N    -4.119849  -1.510963  -1.105562
H    -3.606221  -0.262598  2.153053
H    -2.867663  -0.461780  0.553168
H    -3.871624  1.788614  -0.129955
H    -4.771164  1.795002  1.398893
H    -6.275737  0.970911  -0.203865
H    -5.814550  -0.434029  0.738685
H    -4.611806  0.305539  -1.999304
H    -6.002983  -0.754788  -1.773591
H    -4.547546  -2.319011  -0.652288
H    -3.695573  -1.822066  -1.978492
N    -2.815420  3.129752  2.760558
C    -3.162011  4.078893  3.825004
H    -3.115789  3.352239  1.814264
H    -2.252900  4.483040  4.285925
H    -3.769386  3.584868  4.591920
H    -3.733112  4.897885  3.380997
Pb    -0.334824  0.420189  5.386139
