34
Energy: -608351.148837 eV PBE+vdW (tier 2 basis)
C    0.132987  1.264311  0.427575
C    -0.122094  0.814496  1.822713
O    0.885752  0.813612  2.663323
H    0.580195  2.270196  0.467300
H    -0.755046  1.289545  -0.200341
H    0.845290  0.572655  -0.043075
N    -1.288642  0.490020  2.354674
C    -2.554176  0.085713  1.715530
C    -2.253157  -1.238366  0.941632
O    -1.194314  -1.317537  0.318775
H    -1.223143  0.267596  3.348522
H    -3.230714  -0.090307  2.560277
C    -3.184910  1.155232  0.791748
C    -4.688321  0.978762  0.525062
C    -5.608289  1.254976  1.718840
C    -7.101661  1.095988  1.359390
N    -7.486644  -0.284404  1.149922
H    -2.673518  1.147810  -0.178846
H    -3.005521  2.140588  1.248651
H    -4.889118  -0.018603  0.107462
H    -4.943602  1.683666  -0.280359
H    -5.456706  2.284116  2.077979
H    -5.386759  0.593594  2.572628
H    -7.324279  1.663312  0.446422
H    -7.699117  1.545848  2.173681
H    -7.727126  -0.813130  1.984866
H    -8.138532  -0.464467  0.391406
N    -3.172597  -2.223657  0.967664
C    -4.403630  -2.343312  1.742684
H    -2.925272  -3.010143  0.369663
H    -4.629052  -3.408252  1.859325
H    -5.259614  -1.859525  1.249806
H    -4.283545  -1.923479  2.748409
Pb    3.045277  0.964140  2.703475
