34
Energy: -608352.70848 eV PBE+vdW (tier 2 basis)
C    -1.144058  -0.212205  0.073400
C    -0.815469  -0.363115  1.521003
O    0.249009  -0.985680  1.842257
H    -0.292373  0.243078  -0.448671
H    -2.046581  0.379665  -0.110720
H    -1.280668  -1.215994  -0.355264
N    -1.663475  0.147866  2.422432
C    -1.701996  -0.028092  3.891770
C    -0.634802  0.837393  4.572602
O    0.605088  0.521397  4.524529
H    -2.475362  0.612784  2.025252
H    -2.683599  0.367674  4.177218
C    -1.666541  -1.488946  4.385359
C    -2.698868  -2.395532  3.714247
C    -2.818655  -3.767318  4.383836
C    -3.693033  -4.729244  3.563307
N    -3.084632  -5.014631  2.266532
H    -1.823553  -1.454838  5.475363
H    -0.662545  -1.944132  4.260664
H    -2.443940  -2.557707  2.654913
H    -3.681961  -1.894500  3.727198
H    -3.239689  -3.668549  5.395323
H    -1.818506  -4.217547  4.504755
H    -4.678272  -4.273924  3.388440
H    -3.871347  -5.639562  4.161800
H    -2.364021  -5.733554  2.320360
H    -3.765069  -5.300572  1.565341
N    -0.982935  1.917934  5.247302
C    -2.322647  2.483878  5.460703
H    -0.201716  2.409124  5.685593
H    -2.200672  3.437874  5.980798
H    -2.934854  1.825657  6.089236
H    -2.826323  2.680745  4.507319
Pb    1.747924  -1.128468  3.499468
