34
Energy: -608353.728582 eV PBE+vdW (tier 2 basis)
C    -0.525654  1.692372  0.236562
C    -1.520631  0.751723  0.826573
O    -2.310483  1.158388  1.734870
H    -1.057866  2.563418  -0.169977
H    0.082045  1.238210  -0.553029
H    0.131831  2.066889  1.032989
N    -1.570914  -0.515261  0.371181
C    -2.617174  -1.432863  0.812940
C    -2.227215  -2.139123  2.125952
O    -2.748756  -1.701675  3.210115
H    -0.942279  -0.779068  -0.383277
H    -3.417610  -0.763753  1.134629
C    -3.259686  -2.299969  -0.278447
C    -4.658868  -2.769293  0.168335
C    -5.811128  -1.756751  -0.007831
C    -5.739325  -0.384356  0.672096
N    -5.653173  -0.442198  2.183600
H    -2.636134  -3.162275  -0.541401
H    -3.341549  -1.686244  -1.188704
H    -4.612785  -3.139515  1.207940
H    -4.929371  -3.654318  -0.422070
H    -6.745576  -2.249602  0.301795
H    -5.936068  -1.552957  -1.082575
H    -6.643967  0.179035  0.411777
H    -4.897964  0.216174  0.297621
H    -5.769601  -1.414466  2.490571
H    -6.461241  0.052574  2.573988
N    -1.384618  -3.154747  2.192192
C    -0.637422  -3.834742  1.132151
H    -1.239412  -3.507917  3.140060
H    -1.152743  -4.752133  0.820047
H    0.348083  -4.103082  1.527376
H    -0.490812  -3.182923  0.267911
Pb    -3.641108  0.407290  3.494586
