34
Energy: -608352.379928 eV PBE+vdW (tier 2 basis)
C    0.641378  3.733968  2.730848
C    0.235057  2.738928  3.767487
O    0.216068  3.081119  5.000868
H    -0.071862  4.571063  2.764353
H    0.661916  3.326573  1.714801
H    1.626270  4.151468  2.977823
N    -0.115794  1.514701  3.369797
C    -0.799412  0.435458  4.102848
C    -0.132753  0.049814  5.420398
O    1.065499  0.402155  5.708720
H    -0.071411  1.358574  2.365147
H    -1.815187  0.793649  4.342460
C    -0.926193  -0.785301  3.152116
C    0.384820  -1.501986  2.807007
C    0.145474  -2.673094  1.845924
C    1.435649  -3.421063  1.479263
N    1.159016  -4.541379  0.612499
H    -1.427633  -0.424823  2.238974
H    -1.632972  -1.497151  3.597043
H    0.860327  -1.875831  3.729102
H    1.107870  -0.799247  2.360185
H    -0.333025  -2.302609  0.924486
H    -0.557861  -3.392278  2.292095
H    1.916750  -3.809421  2.388898
H    2.154824  -2.704829  1.027356
H    0.792341  -4.320669  -0.310152
H    1.873886  -5.261915  0.570765
N    -0.803143  -0.702797  6.281970
C    -2.167340  -1.236166  6.216236
H    -0.255769  -0.978537  7.098132
H    -2.814131  -0.593092  5.612205
H    -2.568496  -1.270629  7.234372
H    -2.168557  -2.253129  5.803812
Pb    1.672949  2.414001  6.582665
