34
Energy: -608353.259379 eV PBE+vdW (tier 2 basis)
C    1.843932  2.059125  2.207597
C    0.847756  1.782870  3.285641
O    0.531672  2.783216  4.046954
H    2.149350  1.157387  1.672437
H    2.730216  2.533505  2.648183
H    1.415955  2.783672  1.500102
N    0.322496  0.576150  3.399433
C    -0.764609  0.221260  4.328477
C    -0.265385  0.119873  5.787619
O    -0.172334  1.172972  6.518339
H    0.457663  -0.113913  2.519817
H    -1.485467  1.058159  4.352412
C    -1.524437  -1.012751  3.808877
C    -0.734504  -2.340408  3.624571
C    -0.755121  -2.925967  2.198770
C    0.390032  -2.450639  1.310766
N    0.416591  -0.966647  1.159503
H    -1.975188  -0.714996  2.851970
H    -2.377647  -1.172428  4.482056
H    -1.154435  -3.092568  4.307385
H    0.327959  -2.220911  3.902019
H    -1.727979  -2.721271  1.723973
H    -0.682351  -4.020246  2.257108
H    0.327401  -2.942716  0.329235
H    1.351147  -2.745379  1.756389
H    1.207305  -0.718837  0.558528
H    -0.411634  -0.669089  0.633674
N    0.028482  -1.045679  6.321145
C    0.484875  -1.236999  7.702012
H    -0.070550  -1.869572  5.731155
H    -0.197076  -0.733150  8.395766
H    1.495431  -0.829986  7.830383
H    0.496828  -2.308991  7.913437
Pb    -0.127373  3.357951  6.051261
