34
Energy: -608352.800414 eV PBE+vdW (tier 2 basis)
C    -0.015046  3.159413  1.168228
C    -0.094962  2.015204  2.123851
O    0.917972  1.253676  2.244457
H    -0.924422  3.768212  1.136284
H    0.187310  2.761454  0.163588
H    0.840914  3.793496  1.435799
N    -1.235507  1.836522  2.804210
C    -1.650150  0.735496  3.705753
C    -0.910779  0.817302  5.051365
O    0.302924  0.441242  5.167811
H    -1.956910  2.526695  2.611866
H    -2.710825  0.940974  3.901157
C    -1.586880  -0.670641  3.082369
C    -2.342373  -1.739178  3.876257
C    -3.869118  -1.588617  3.858124
C    -4.572113  -2.872147  4.350498
N    -4.284047  -4.000951  3.486330
H    -0.530531  -1.004173  2.958528
H    -1.977579  -0.600123  2.056533
H    -1.975744  -1.781037  4.915974
H    -2.109077  -2.718574  3.431955
H    -4.209818  -1.373485  2.831976
H    -4.212499  -0.750686  4.486456
H    -5.652789  -2.653667  4.427990
H    -4.226894  -3.115727  5.365300
H    -4.333193  -4.902395  3.954095
H    -4.850554  -4.029708  2.640557
N    -1.577232  1.268664  6.098460
C    -1.040605  1.409454  7.454838
H    -2.542940  1.554265  5.953465
H    -1.776893  1.025413  8.168930
H    -0.848350  2.468119  7.671011
H    -0.110753  0.842764  7.538219
Pb    1.828742  -0.246173  3.642701
