34
Energy: -608351.346219 eV PBE+vdW (tier 2 basis)
C    -0.642073  0.379631  -0.165917
C    -0.077480  -0.151466  1.105406
O    0.829919  -1.097030  1.028051
H    0.168714  0.796573  -0.779434
H    -1.399235  1.151101  -0.004123
H    -1.090957  -0.445527  -0.735897
N    -0.428948  0.259560  2.291690
C    -1.371910  1.303841  2.712914
C    -0.818679  1.636898  4.133009
O    -0.218026  0.722005  4.719191
H    0.001943  -0.126132  3.168161
H    -1.312289  2.157166  2.025675
C    -2.814864  0.731908  2.775069
C    -3.894253  1.761228  3.123705
C    -5.332250  1.211881  3.090819
C    -5.724160  0.325364  4.281077
N    -5.120927  -0.990800  4.249585
H    -2.826338  -0.098312  3.496796
H    -3.038748  0.293676  1.789110
H    -3.841768  2.601710  2.413515
H    -3.705237  2.184961  4.121354
H    -5.518246  0.672403  2.147639
H    -6.022734  2.066535  3.083970
H    -6.831717  0.249709  4.290747
H    -5.445190  0.807850  5.228900
H    -5.129217  -1.497281  5.132199
H    -5.421082  -1.586835  3.480142
N    -1.008687  2.847555  4.674759
C    -1.560375  4.069509  4.098236
H    -0.630507  2.920120  5.618809
H    -0.842622  4.888697  4.226234
H    -2.501164  4.346842  4.590329
H    -1.751297  3.948410  3.028952
Pb    2.487420  -2.415626  0.825095
