34
Energy: -608351.117222 eV PBE+vdW (tier 2 basis)
C    1.619800  1.289798  1.151889
C    2.048466  0.221027  2.093278
O    3.256654  -0.270183  1.967824
H    0.622757  1.678170  1.348461
H    1.603287  0.872271  0.134855
H    2.358524  2.105301  1.190120
N    1.346689  -0.277493  3.096328
C    -0.073645  -0.126131  3.485755
C    -0.923865  -0.801497  2.366497
O    -0.719162  -0.475224  1.199075
H    1.855689  -0.990347  3.620127
H    -0.142166  -0.690208  4.424124
C    -0.491348  1.331283  3.784815
C    -1.774043  1.482783  4.623030
C    -3.088616  1.461039  3.830090
C    -4.317092  1.759125  4.706805
N    -4.318091  3.102163  5.224637
H    -0.609315  1.894921  2.850188
H    0.344233  1.788417  4.334423
H    -1.710452  2.449084  5.143715
H    -1.794599  0.724541  5.422989
H    -3.257098  0.491625  3.341067
H    -3.041220  2.202135  3.015526
H    -4.367486  1.065112  5.558062
H    -5.225725  1.568726  4.097346
H    -4.844574  3.282088  6.074520
H    -4.368818  3.864796  4.553495
N    -1.843522  -1.718631  2.734261
C    -2.162972  -2.237469  4.062474
H    -2.375958  -2.086248  1.948365
H    -1.268846  -2.599446  4.585874
H    -2.833876  -3.092472  3.937853
H    -2.676045  -1.495532  4.688584
Pb    4.998720  -0.227997  0.670032
