34
Energy: -608353.907291 eV PBE+vdW (tier 2 basis)
C    -0.159370  0.557644  0.543999
C    -0.673030  -0.096473  1.786140
O    -0.602836  -1.359797  1.889543
H    -0.258080  1.648085  0.549128
H    -0.707785  0.152372  -0.317879
H    0.895920  0.287923  0.404447
N    -1.201506  0.692315  2.737919
C    -1.921351  0.295154  3.966236
C    -0.942695  -0.260623  5.013945
O    -0.540366  -1.470178  4.984788
H    -1.202861  1.686001  2.525216
H    -2.329878  1.230558  4.366730
C    -3.092673  -0.657479  3.677267
C    -3.793804  -1.211211  4.930403
C    -4.471862  -2.569407  4.700535
C    -3.563782  -3.799635  4.680887
N    -2.711398  -3.947789  3.436954
H    -2.731715  -1.472032  3.043006
H    -3.810424  -0.107128  3.053105
H    -4.548090  -0.489355  5.271306
H    -3.085321  -1.318863  5.766646
H    -5.091585  -2.545326  3.788271
H    -5.183116  -2.742366  5.520953
H    -4.189182  -4.698942  4.761322
H    -2.889835  -3.798067  5.549425
H    -2.573333  -4.951925  3.273427
H    -3.250318  -3.630354  2.623094
N    -0.521635  0.523836  5.993711
C    -0.850570  1.931327  6.256754
H    0.120043  0.071685  6.646426
H    -0.291603  2.242991  7.143250
H    -1.919544  2.058146  6.466844
H    -0.546673  2.573925  5.422083
Pb    -0.332124  -3.078870  3.379650
