34
Energy: -608352.663363 eV PBE+vdW (tier 2 basis)
C    -0.713515  -0.402145  -0.169957
C    -0.567971  -0.502856  1.311796
O    0.587813  -0.741287  1.792248
H    -1.733718  -0.174172  -0.495352
H    -0.397431  -1.355450  -0.617352
H    -0.027582  0.367849  -0.548132
N    -1.661218  -0.345776  2.070011
C    -1.840134  -0.518841  3.530486
C    -1.177959  0.638479  4.293927
O    0.086348  0.640520  4.504590
H    -2.514424  -0.156364  1.550431
H    -2.922551  -0.439871  3.680274
C    -1.437763  -1.895855  4.077751
C    -1.877696  -2.145259  5.524114
C    -3.402410  -2.139336  5.763946
C    -4.228106  -2.966526  4.767242
N    -3.577082  -4.237759  4.450292
H    -0.337666  -2.065800  4.010283
H    -1.865681  -2.676998  3.429529
H    -1.402713  -1.426757  6.211190
H    -1.482379  -3.132138  5.796944
H    -3.802524  -1.112513  5.783152
H    -3.563450  -2.521466  6.782671
H    -4.348808  -2.418437  3.816959
H    -5.249481  -3.074282  5.174858
H    -3.511023  -4.842626  5.270722
H    -4.101850  -4.757925  3.747301
N    -1.890000  1.644178  4.766398
C    -3.332076  1.898824  4.695755
H    -1.339036  2.335652  5.280350
H    -3.484165  2.981227  4.631902
H    -3.832046  1.523902  5.597972
H    -3.775146  1.440508  3.807607
Pb    1.731930  -0.675119  3.716656
