34
Energy: -608353.799781 eV PBE+vdW (tier 2 basis)
C    0.351398  1.093849  2.750530
C    -0.389395  -0.199224  2.694930
O    0.018242  -1.185024  3.384673
H    -0.109004  1.881923  2.145633
H    1.383790  0.931024  2.411845
H    0.410313  1.425538  3.796261
N    -1.488703  -0.285610  1.923502
C    -2.345469  -1.467896  1.893566
C    -1.841290  -2.516462  0.893159
O    -1.089172  -3.446278  1.340191
H    -1.772746  0.544323  1.408108
H    -2.156157  -1.955529  2.853736
C    -3.846132  -1.161884  1.896227
C    -4.343503  -0.745154  3.302339
C    -3.664388  -1.466747  4.485530
C    -3.635511  -3.007003  4.416732
N    -2.313755  -3.560866  4.877106
H    -4.366872  -2.074289  1.571658
H    -4.110396  -0.388999  1.158329
H    -5.429341  -0.905815  3.333992
H    -4.201078  0.334043  3.449132
H    -4.171537  -1.155173  5.408056
H    -2.632441  -1.094115  4.599176
H    -3.800494  -3.385441  3.399279
H    -4.436055  -3.434815  5.035538
H    -2.081710  -3.142766  5.786184
H    -2.432828  -4.561718  5.074340
N    -2.186288  -2.450112  -0.378656
C    -1.762798  -3.381245  -1.429103
H    -2.820637  -1.703022  -0.653657
H    -1.287314  -2.819271  -2.241299
H    -2.637657  -3.912240  -1.823341
H    -1.054292  -4.098293  -1.009561
Pb    -0.141135  -3.491908  3.462716
