34
Energy: -608352.893814 eV PBE+vdW (tier 2 basis)
C    -0.786960  1.879135  0.230214
C    -0.950855  0.704725  1.135130
O    0.078190  -0.009632  1.394719
H    -1.715676  2.434839  0.065117
H    -0.401188  1.525372  -0.736654
H    -0.025711  2.553444  0.645409
N    -2.162914  0.434885  1.625339
C    -2.635889  -0.734361  2.396540
C    -2.199740  -0.611078  3.856455
O    -0.973189  -0.815932  4.196900
H    -2.894779  1.080709  1.339041
H    -3.739756  -0.695459  2.341697
C    -2.310753  -2.112321  1.798682
C    -2.602886  -2.267208  0.298782
C    -4.009670  -1.874802  -0.193705
C    -5.195447  -2.496720  0.554753
N    -5.585226  -1.690741  1.743781
H    -2.897697  -2.833843  2.387010
H    -1.253710  -2.422234  1.963178
H    -2.428744  -3.325923  0.056483
H    -1.855188  -1.707550  -0.283993
H    -4.060954  -2.175901  -1.249353
H    -4.132949  -0.778446  -0.206635
H    -4.938107  -3.509333  0.897906
H    -6.037040  -2.616150  -0.143825
H    -6.172524  -2.265662  2.352416
H    -6.205028  -0.937988  1.432652
N    -3.056451  -0.302553  4.808474
C    -4.493030  -0.020246  4.730786
H    -2.636574  -0.240469  5.739224
H    -4.663942  1.062778  4.782772
H    -4.979356  -0.493527  5.590800
H    -4.921672  -0.433778  3.812360
Pb    0.827940  -1.362652  2.999717
