34
Energy: -608352.665889 eV PBE+vdW (tier 2 basis)
C    -0.197479  0.060676  -0.119948
C    -0.118363  0.121037  1.368134
O    0.847326  0.751017  1.914141
H    0.727934  -0.376768  -0.517718
H    -0.254191  1.088171  -0.507518
H    -1.058270  -0.508439  -0.485865
N    -1.077935  -0.467475  2.090996
C    -1.283927  -0.351850  3.544303
C    -0.370774  -1.350769  4.282418
O    0.868614  -1.070912  4.436142
H    -1.811372  -0.945424  1.571374
H    -0.899321  0.637896  3.838096
C    -2.791204  -0.353491  3.876600
C    -3.657939  -1.549824  3.428915
C    -5.146712  -1.191599  3.284825
C    -5.845734  -0.821638  4.601611
N    -7.241585  -0.532774  4.366793
H    -3.192316  0.558260  3.407669
H    -2.885281  -0.190769  4.959610
H    -3.585928  -2.391401  4.141686
H    -3.319903  -1.955434  2.460303
H    -5.663982  -2.054107  2.838719
H    -5.263327  -0.360310  2.572838
H    -5.394521  0.078409  5.045294
H    -5.691233  -1.643930  5.334037
H    -7.803491  -1.315939  4.040296
H    -7.715239  -0.031264  5.113026
N    -0.867216  -2.476252  4.752813
C    -0.117286  -3.512805  5.465746
H    -1.861781  -2.638209  4.599075
H    -0.664006  -3.785775  6.375152
H    0.871754  -3.132309  5.728390
H    -0.014852  -4.400454  4.828673
Pb    2.235565  0.570392  3.676589
