34
Energy: -608353.766159 eV PBE+vdW (tier 2 basis)
C    0.331980  -0.167764  0.263339
C    0.094999  -0.259268  1.738181
O    0.932703  -0.896196  2.450783
H    -0.436036  0.396878  -0.275102
H    0.375514  -1.188422  -0.142758
H    1.314358  0.287146  0.080217
N    -1.008989  0.330136  2.222477
C    -1.689782  0.297363  3.539604
C    -0.928158  1.012285  4.655216
O    0.321007  0.879404  4.864421
H    -1.560634  0.796357  1.507314
H    -2.579680  0.911732  3.354779
C    -2.252762  -1.094764  3.940347
C    -1.290246  -2.196811  4.401011
C    -0.896830  -2.162214  5.886990
C    0.333102  -3.017507  6.184643
N    1.620358  -2.257947  5.990562
H    -2.811991  -1.440311  3.059268
H    -3.013929  -0.921323  4.717300
H    -0.401186  -2.212975  3.758641
H    -1.787646  -3.159068  4.212424
H    -1.735625  -2.537073  6.489819
H    -0.714508  -1.138531  6.250818
H    0.365183  -3.892566  5.523198
H    0.312899  -3.392475  7.216811
H    1.826082  -1.766425  6.868559
H    2.386437  -2.934420  5.892176
N    -1.618383  1.800345  5.470553
C    -3.039153  2.167966  5.423526
H    -1.059329  2.221182  6.212742
H    -3.284244  2.687299  4.488446
H    -3.232565  2.855720  6.251166
H    -3.685691  1.291694  5.550080
Pb    2.123398  -0.409631  4.319736
