34
Energy: -608352.814056 eV PBE+vdW (tier 2 basis)
C    0.833136  0.254859  0.401610
C    0.384752  0.253921  1.823888
O    1.148778  0.752891  2.717543
H    1.783932  -0.288698  0.318014
H    1.035382  1.292669  0.100267
H    0.100983  -0.183193  -0.284560
N    -0.816448  -0.249022  2.123878
C    -1.510219  -0.173591  3.421364
C    -1.011611  -1.308225  4.336595
O    0.126814  -1.206154  4.914170
H    -1.360561  -0.617811  1.346053
H    -1.186182  0.760366  3.907915
C    -3.029847  -0.112599  3.201434
C    -3.524948  1.139522  2.460369
C    -3.294970  2.465186  3.194662
C    -4.093455  3.623098  2.565104
N    -5.523103  3.391637  2.659064
H    -3.512205  -0.154705  4.189966
H    -3.360446  -1.007976  2.644651
H    -4.606984  1.019127  2.306694
H    -3.087418  1.190751  1.449598
H    -2.230299  2.752310  3.195302
H    -3.594346  2.363942  4.251783
H    -3.831411  3.717682  1.501692
H    -3.782457  4.566863  3.050286
H    -6.075486  3.854581  1.942078
H    -5.923205  3.573218  3.577442
N    -1.762870  -2.375068  4.516319
C    -1.427300  -3.537975  5.341422
H    -2.669315  -2.383655  4.051854
H    -1.339891  -4.425952  4.703281
H    -2.226635  -3.700924  6.073709
H    -0.482371  -3.358116  5.857378
Pb    1.824437  0.284369  4.810362
