34
Energy: -608353.232495 eV PBE+vdW (tier 2 basis)
C    -0.311611  1.645461  0.242034
C    -0.219107  0.923842  1.547753
O    0.884593  0.373713  1.872290
H    0.045587  2.679649  0.370617
H    -1.326670  1.678298  -0.169017
H    0.370175  1.170981  -0.473267
N    -1.236989  0.805579  2.449760
C    -2.169566  1.922945  2.618355
C    -1.502941  2.939046  3.575671
O    -0.508368  2.587910  4.294845
H    -2.173974  -0.706956  2.159007
H    -2.323152  2.442443  1.658778
C    -3.558294  1.460931  3.114039
C    -3.595886  0.544159  4.364087
C    -4.178578  -0.862759  4.138178
C    -3.257267  -1.921800  3.545420
N    -2.780172  -1.588257  2.143658
H    -4.055557  0.971069  2.262808
H    -4.170845  2.351125  3.301428
H    -4.213130  1.028671  5.130093
H    -2.599867  0.457247  4.829527
H    -5.101981  -0.794276  3.540167
H    -4.498590  -1.275156  5.106339
H    -3.763993  -2.892574  3.487568
H    -2.348256  -2.055201  4.147760
H    -2.227094  -2.359325  1.747823
H    -3.575954  -1.434084  1.511407
N    -1.937726  4.187186  3.663260
C    -3.026610  4.848556  2.942973
H    -1.429397  4.756642  4.341713
H    -3.941620  4.868276  3.549189
H    -3.230368  4.348954  1.991261
H    -2.725304  5.879946  2.731902
Pb    0.453217  0.487346  4.176246
