34
Energy: -608352.604893 eV PBE+vdW (tier 2 basis)
C    -0.221094  -0.578699  -0.209310
C    -0.252546  -0.403829  1.271618
O    0.801605  -0.029592  1.878637
H    0.559718  -1.305113  -0.472103
H    0.066775  0.376762  -0.670257
H    -1.178573  -0.906171  -0.627440
N    -1.399088  -0.630974  1.928564
C    -1.624272  -0.365034  3.355379
C    -0.937528  -1.444036  4.220862
O    0.209938  -1.170179  4.725062
H    -2.206868  -0.901181  1.371851
H    -1.068165  0.554122  3.598589
C    -3.107453  -0.084028  3.649076
C    -3.553508  1.309278  3.181412
C    -5.039875  1.558047  3.460798
C    -5.504920  2.952316  3.014100
N    -6.916788  3.132155  3.259007
H    -3.261669  -0.174459  4.734911
H    -3.742240  -0.853860  3.185646
H    -3.359643  1.427111  2.102110
H    -2.943517  2.074032  3.689847
H    -5.236316  1.438841  4.538905
H    -5.657137  0.806137  2.946137
H    -5.331121  3.078009  1.935427
H    -4.885855  3.721384  3.522577
H    -7.370026  3.865073  2.720844
H    -7.203382  3.155189  4.234733
N    -1.460251  -2.629901  4.478989
C    -2.726555  -3.230832  4.048781
H    -0.874796  -3.206813  5.085631
H    -2.619420  -4.317123  4.122509
H    -2.947885  -2.981450  3.007071
H    -3.553686  -2.915060  4.695966
Pb    1.934666  0.013578  3.845039
