34
Energy: -40374.3732628 eV PBE+vdW (tier 2 basis)
C    -2.414271  -1.277268  0.803961
C    -1.336871  -0.882920  1.755995
O    -0.145722  -1.321039  1.598745
H    -3.396338  -0.879679  1.079013
H    -2.467525  -2.371724  0.737475
H    -2.147290  -0.910037  -0.197713
N    -1.628342  -0.059045  2.762256
C    -0.662874  0.525448  3.703157
C    -0.236584  -0.545501  4.727307
O    0.756433  -1.301164  4.431225
H    -2.601167  0.232294  2.896348
H    0.251452  0.750741  3.133582
C    -1.201424  1.874775  4.256753
C    -2.566217  1.841020  4.901788
C    -2.710972  1.823926  6.303517
C    -3.741121  1.862503  4.128559
C    -3.962341  1.769951  6.906290
C    -5.002393  1.807914  4.716881
C    -5.122889  1.743932  6.114733
O    -6.301702  1.690593  6.764854
H    -1.201340  2.569833  3.404306
H    -0.450158  2.258577  4.960740
H    -1.828583  1.921534  6.941590
H    -3.684518  2.007174  3.045509
H    -4.066696  1.785637  7.990190
H    -5.895864  1.852634  4.092577
H    -7.049858  1.736198  6.145149
N    -0.905426  -0.677624  5.849214
C    -0.618896  -1.648161  6.904450
H    -1.691113  -0.027165  5.996591
H    -1.302087  -2.504102  6.826630
H    -0.769663  -1.164158  7.875011
H    0.414814  -1.992767  6.822195
Ca    1.564545  -2.034328  2.610120
