34
Energy: -40374.0018143 eV PBE+vdW (tier 2 basis)
C    0.338075  -1.587752  0.320298
C    0.298715  -1.053166  1.711905
O    1.380909  -0.616993  2.260827
H    1.011772  -2.456224  0.294694
H    0.759687  -0.833752  -0.357352
H    -0.648535  -1.891368  -0.042653
N    -0.840733  -1.041464  2.369242
C    -1.094350  -0.689347  3.760946
C    -2.497500  -1.341320  4.011829
O    -3.164570  -1.653483  3.024061
H    -1.723651  -1.412400  1.956035
H    -0.328026  -1.149053  4.402883
C    -1.178345  0.843346  4.007085
C    0.124713  1.583613  4.205593
C    0.531358  2.609595  3.328536
C    0.940741  1.351494  5.338061
C    1.679448  3.384575  3.566785
C    2.088457  2.110988  5.596493
C    2.449656  3.175050  4.734205
O    3.527042  3.894036  5.077482
H    -1.788336  1.009387  4.906854
H    -1.742255  1.289663  3.177814
H    -0.069043  2.830095  2.444410
H    0.660716  0.581050  6.058890
H    1.935135  4.192251  2.877833
H    2.677744  1.945166  6.499242
H    3.639154  4.689589  4.524869
N    -2.915083  -1.506780  5.278948
C    -2.195073  -1.256136  6.520945
H    -3.854336  -1.894099  5.348764
H    -2.247088  -0.201542  6.830585
H    -1.145450  -1.567900  6.444522
H    -2.651023  -1.858227  7.312863
Ca    2.577075  0.758109  3.227506
