34
Energy: -40373.7105183 eV PBE+vdW (tier 2 basis)
C    0.257212  -2.194527  1.225962
C    0.175265  -1.253670  2.380221
O    1.240088  -0.735213  2.868189
H    0.872683  -3.058437  1.514554
H    0.766517  -1.704939  0.385219
H    -0.722801  -2.550592  0.892131
N    -1.008196  -0.964534  2.908462
C    -1.238388  -0.107714  4.080959
C    -2.642465  -0.448967  4.693119
O    -3.487346  0.430234  4.779851
H    -1.828024  -1.383564  2.472015
H    -0.462098  -0.363365  4.819927
C    -1.188878  1.399903  3.745783
C    0.136374  2.086443  3.936957
C    0.762371  2.793350  2.883554
C    0.781231  2.123266  5.194927
C    1.959645  3.499093  3.065539
C    1.982497  2.820382  5.398992
C    2.569897  3.554929  4.340916
O    3.687529  4.286160  4.449762
H    -1.950469  1.870150  4.391031
H    -1.549798  1.554131  2.721346
H    0.293606  2.810161  1.897995
H    0.327663  1.621391  6.051701
H    2.403225  4.066784  2.246510
H    2.425609  2.847373  6.396605
H    3.973780  4.399035  5.374936
N    -2.850986  -1.729971  5.087546
C    -1.911445  -2.840635  5.196401
H    -3.793666  -1.883652  5.441060
H    -2.213027  -3.473186  6.037870
H    -0.895122  -2.485726  5.406663
H    -1.894208  -3.466904  4.292603
Ca    2.493726  0.819808  3.508695
