34
Energy: -40374.2340084 eV PBE+vdW (tier 2 basis)
C    -3.234020  -0.965047  1.551513
C    -2.245210  0.150982  1.544307
O    -1.204535  0.082212  2.277590
H    -3.733671  -0.966414  2.532302
H    -2.714681  -1.925731  1.450884
H    -3.997745  -0.874608  0.772454
N    -2.484918  1.209493  0.764998
C    -1.838127  2.538404  0.764021
C    -0.414103  2.520313  0.201411
O    0.537938  1.958278  0.838512
H    -3.363481  1.172257  0.255109
H    -2.460617  3.130976  0.081263
C    -1.898132  3.259255  2.147576
C    -3.294153  3.304854  2.704557
C    -4.211572  4.269233  2.261848
C    -3.723608  2.365628  3.655969
C    -5.516531  4.293089  2.742106
C    -5.021855  2.376722  4.147571
C    -5.933189  3.341964  3.688229
O    -7.177933  3.300396  4.207732
H    -1.492676  4.270359  1.992130
H    -1.227403  2.762925  2.867227
H    -3.903197  5.034367  1.546202
H    -3.020806  1.628480  4.051640
H    -6.209226  5.062078  2.397503
H    -5.348288  1.665839  4.905039
H    -7.725085  4.025481  3.860577
N    -0.191664  3.180062  -0.922669
C    1.110325  3.361204  -1.566567
H    -0.995131  3.593942  -1.389938
H    1.226137  4.413790  -1.847570
H    1.169980  2.740428  -2.469541
H    1.902258  3.075784  -0.870980
Ca    0.803919  0.649005  2.484996
