34
Energy: -40373.9791068 eV PBE+vdW (tier 2 basis)
C    0.279496  1.997060  0.751887
C    0.008313  1.191539  1.975144
O    0.933025  0.973247  2.827485
H    0.605083  3.002266  1.056268
H    -0.589600  2.087357  0.092485
H    1.113568  1.548288  0.195739
N    -1.218656  0.700781  2.186397
C    -1.621903  0.037753  3.439616
C    -0.972708  -1.359497  3.552880
O    0.062954  -1.464416  4.302011
H    -1.945598  0.929846  1.511487
H    -1.151165  0.605364  4.255798
C    -3.137932  0.106282  3.710547
C    -3.442099  -0.401253  5.102154
C    -3.892797  -1.711319  5.324138
C    -3.271197  0.436788  6.214085
C    -4.152662  -2.179626  6.605499
C    -3.530173  -0.014747  7.504598
C    -3.971068  -1.332267  7.709322
O    -4.251662  -1.845673  8.927492
H    -3.711706  -0.446846  2.956580
H    -3.428161  1.164167  3.615775
H    -4.088151  -2.375479  4.480749
H    -2.970473  1.478019  6.074430
H    -4.525795  -3.188631  6.773144
H    -3.419791  0.663288  8.352196
H    -4.161744  -1.168099  9.618691
N    -1.391826  -2.423118  2.893128
C    -2.467363  -2.574613  1.911177
H    -0.871344  -3.273064  3.115975
H    -2.642976  -1.642145  1.370385
H    -3.395269  -2.904529  2.394082
H    -2.158300  -3.337089  1.188562
Ca    1.746931  -0.178477  4.416427
