34
Energy: -40375.260522 eV PBE+vdW (tier 2 basis)
C    1.132172  -0.341585  0.579230
C    0.717420  -0.071978  1.992015
O    1.581336  0.221588  2.858613
H    0.306704  -0.632516  -0.078304
H    1.893820  -1.132341  0.575900
H    1.610642  0.561222  0.174810
N    -0.598987  -0.159068  2.275984
C    -1.345800  0.076626  3.534599
C    -1.130080  1.503968  4.075981
O    -0.042826  1.843847  4.620255
H    -1.187543  -0.401884  1.484317
H    -2.394107  0.006297  3.216595
C    -1.199496  -1.032344  4.622899
C    0.073989  -1.109190  5.435889
C    0.194399  -0.430108  6.668097
C    1.176281  -1.876054  5.014076
C    1.374620  -0.460357  7.415457
C    2.368718  -1.922618  5.746243
C    2.474887  -1.230147  6.972767
O    3.563057  -1.240119  7.756793
H    -1.368687  -1.990599  4.112319
H    -2.048905  -0.898981  5.308187
H    -0.648375  0.145840  7.052230
H    1.116616  -2.444875  4.086114
H    1.444532  0.052280  8.374867
H    3.196958  -2.537774  5.390698
H    4.230342  -1.882826  7.454659
N    -2.153181  2.343982  3.965809
C    -2.154722  3.730663  4.433590
H    -2.996385  2.012950  3.504671
H    -2.101737  4.416026  3.578217
H    -1.291651  3.891243  5.083459
H    -3.078918  3.922178  4.989730
Ca    1.885909  0.832657  4.919234
