34
Energy: -40374.0683188 eV PBE+vdW (tier 2 basis)
C    -0.607187  2.666544  4.413932
C    -0.292742  1.220259  4.248622
O    0.922322  0.820772  4.209060
H    -1.682587  2.868107  4.438816
H    -0.149291  3.236733  3.594008
H    -0.148998  3.025217  5.346347
N    -1.290433  0.341011  4.148461
C    -1.100273  -1.113947  4.184739
C    -0.354279  -1.607482  2.934039
O    0.888382  -1.905777  3.063892
H    -2.241559  0.652613  4.384399
H    -0.408459  -1.331840  5.013642
C    -2.443624  -1.828766  4.525015
C    -3.167964  -1.105442  5.630757
C    -2.766675  -1.230199  6.972277
C    -4.240395  -0.247422  5.334666
C    -3.408282  -0.528215  7.981064
C    -4.895653  0.464803  6.338805
C    -4.480365  0.329059  7.671802
O    -5.059880  0.971957  8.706843
H    -2.193494  -2.860319  4.807747
H    -3.089415  -1.890685  3.643159
H    -1.959421  -1.915135  7.240049
H    -4.613815  -0.171235  4.310131
H    -3.116426  -0.644381  9.023719
H    -5.745560  1.101611  6.089745
H    -5.823922  1.495376  8.410408
N    -0.918828  -1.740746  1.746098
C    -2.266526  -1.394895  1.283046
H    -0.295797  -2.135959  1.040044
H    -2.188955  -1.070808  0.239883
H    -2.682282  -0.571529  1.868516
H    -2.931103  -2.266505  1.329797
Ca    2.402489  -0.644778  3.865469
