34
Energy: -40373.7003723 eV PBE+vdW (tier 2 basis)
C    -0.392721  -0.208093  -0.116076
C    -0.452718  0.595501  1.138066
O    -0.235909  1.854187  1.110412
H    -1.269313  -0.008349  -0.750870
H    -0.315267  -1.284187  0.063180
H    0.484653  0.129924  -0.684653
N    -0.737155  0.011313  2.322068
C    -1.859481  -0.913434  2.488235
C    -3.163187  -0.063867  2.421864
O    -3.114860  1.174387  2.073132
H    -0.557544  0.607111  3.132815
H    -1.875764  -1.592262  1.623173
C    -1.700580  -1.758329  3.778355
C    -2.740979  -2.841872  3.946169
C    -2.846359  -3.899415  3.021118
C    -3.601690  -2.848246  5.056615
C    -3.779315  -4.911509  3.187219
C    -4.538923  -3.862586  5.241042
C    -4.634269  -4.903953  4.304993
O    -5.508067  -5.925377  4.405988
H    -1.714777  -1.089902  4.652831
H    -0.691076  -2.193875  3.728658
H    -2.168636  -3.954809  2.166257
H    -3.525234  -2.059280  5.807125
H    -3.850161  -5.735255  2.478704
H    -5.182665  -3.854607  6.121610
H    -6.020529  -5.868508  5.230651
N    -4.296073  -0.654158  2.717562
C    -5.612954  -0.015890  2.700366
H    -4.215648  -1.618825  3.076363
H    -6.371363  -0.798299  2.785571
H    -5.758251  0.526653  1.760204
H    -5.718535  0.679589  3.542912
Ca    -2.051188  2.934733  1.516440
