34
Energy: -40373.7024442 eV PBE+vdW (tier 2 basis)
C    -1.943197  -1.804221  0.708922
C    -0.902188  -1.060089  1.473951
O    0.337184  -1.306909  1.287031
H    -1.977388  -1.463319  -0.337045
H    -2.942097  -1.722183  1.146662
H    -1.643371  -2.860765  0.681062
N    -1.248120  -0.113718  2.373013
C    -2.226502  0.932509  2.070276
C    -1.551059  1.907190  1.060132
O    -0.414657  1.611718  0.532445
H    -0.479104  0.189143  2.974215
H    -3.077096  0.468798  1.549997
C    -2.746481  1.601027  3.370337
C    -3.876339  2.581717  3.158552
C    -3.700280  3.954255  3.418988
C    -5.143467  2.148033  2.731193
C    -4.737405  4.863311  3.246088
C    -6.190167  3.045414  2.553874
C    -5.994522  4.414431  2.810254
O    -6.959270  5.344914  2.666804
H    -1.908380  2.101782  3.878751
H    -3.066594  0.775534  4.023434
H    -2.739097  4.316155  3.789559
H    -5.334217  1.086639  2.558258
H    -4.602969  5.920884  3.467519
H    -7.168734  2.683561  2.235359
H    -7.804295  4.937774  2.409873
N    -2.177694  3.019988  0.763556
C    -1.687364  4.044680  -0.160016
H    -3.032237  3.213184  1.308403
H    -1.591743  3.631740  -1.171152
H    -0.715020  4.430618  0.169279
H    -2.412044  4.862511  -0.173951
Ca    1.290913  0.354692  0.308378
