34
Energy: -40374.0314431 eV PBE+vdW (tier 2 basis)
C    -0.918032  0.895951  0.120942
C    -0.803780  0.412623  1.536834
O    0.133922  0.653493  2.279902
H    -1.722666  0.414106  -0.446110
H    0.038724  0.735019  -0.389235
H    -1.092873  1.981016  0.133638
N    -1.870956  -0.391046  2.005211
C    -1.898305  -0.672993  3.421617
C    -1.740290  -2.157662  3.732593
O    -1.742186  -2.553247  4.954915
H    -2.749899  -0.346516  1.494720
H    -0.952039  -0.210034  3.777818
C    -3.101487  -0.008105  4.144303
C    -3.023017  0.039905  5.652153
C    -1.932874  0.650479  6.318669
C    -4.050244  -0.490091  6.459258
C    -1.863427  0.715996  7.714135
C    -4.002842  -0.430116  7.862728
C    -2.920269  0.208548  8.510139
O    -2.801559  0.353088  9.836062
H    -4.042170  -0.488248  3.840030
H    -3.141928  1.026498  3.772109
H    -1.121066  1.094472  5.738689
H    -4.915625  -0.959797  5.988565
H    -1.029113  1.215105  8.208532
H    -4.834369  -0.829368  8.446960
H    -3.614555  0.107252  10.314929
N    -1.547979  -2.983847  2.730420
C    -1.291939  -4.418270  2.812135
H    -1.529208  -2.526409  1.814838
H    -0.278035  -4.632329  2.451919
H    -2.012817  -4.953143  2.183048
H    -1.391733  -4.750325  3.847782
Ca    -1.850364  -1.985005  6.967752
