34
Energy: -40373.5684987 eV PBE+vdW (tier 2 basis)
C    -2.438691  -1.695702  -1.857907
C    -2.053746  -0.579197  -0.948285
O    -1.493342  0.475750  -1.443917
H    -1.618315  -1.934640  -2.544434
H    -3.280821  -1.348579  -2.476724
H    -2.754434  -2.598598  -1.328253
N    -2.294842  -0.609330  0.346021
C    -2.502062  -1.731029  1.260630
C    -2.821441  -1.011027  2.600480
O    -2.423008  0.155626  2.736187
H    -2.110950  0.236511  0.924990
H    -3.335501  -2.364143  0.936473
C    -1.186388  -2.606489  1.412958
C    0.038533  -1.809832  1.030742
C    0.513742  -0.763996  1.843382
C    0.617352  -1.985047  -0.232018
C    1.403575  0.190476  1.349835
C    1.530854  -1.055443  -0.744384
C    1.863867  0.056299  0.037203
O    2.506819  1.114624  -0.649403
H    -1.271100  -3.490533  0.769605
H    -1.124448  -2.965761  2.448254
H    0.128294  -0.637911  2.854102
H    0.336926  -2.841614  -0.845230
H    1.710040  1.033113  1.971425
H    2.017057  -1.213187  -1.710633
H    3.188883  1.558190  -0.111175
N    -3.456957  -1.702086  3.555948
C    -4.063029  -3.030607  3.455443
H    -3.611923  -1.175556  4.413290
H    -4.427732  -3.311519  4.447335
H    -3.335321  -3.791619  3.147021
H    -4.918908  -3.036761  2.766910
Ca    0.361162  1.410084  -1.625707
