34
Energy: -40373.7138136 eV PBE+vdW (tier 2 basis)
C    1.282788  -3.123543  3.325577
C    0.746335  -1.780123  3.688870
O    1.526282  -0.877940  4.156144
H    0.519984  -3.794061  2.916705
H    1.721422  -3.584987  4.221775
H    2.093201  -3.012725  2.592961
N    -0.548399  -1.527725  3.537008
C    -1.229928  -0.279492  3.911285
C    -2.763326  -0.569019  4.075192
O    -3.564278  0.032987  3.374814
H    -1.124065  -2.269406  3.141144
H    -0.823194  0.024830  4.888963
C    -1.039664  0.848140  2.872511
C    0.096030  1.803485  3.119855
C    1.081197  2.049843  2.139434
C    0.188247  2.558718  4.315580
C    2.105250  2.995016  2.325905
C    1.202389  3.500172  4.525005
C    2.157325  3.762859  3.511824
O    3.065941  4.713955  3.767737
H    -1.995059  1.400446  2.859044
H    -0.953015  0.407476  1.871569
H    1.044436  1.504503  1.194740
H    -0.566062  2.434580  5.094898
H    2.825179  3.172881  1.524382
H    1.231298  4.096187  5.438066
H    3.597115  4.945866  2.983647
N    -3.122124  -1.501151  4.992873
C    -2.314372  -2.184359  5.997340
H    -4.127651  -1.660710  5.019053
H    -2.937842  -2.375521  6.877034
H    -1.473637  -1.561364  6.326263
H    -1.928673  -3.150541  5.640692
Ca    2.419870  1.016724  4.267110
