34
Energy: -40373.7568345 eV PBE+vdW (tier 2 basis)
C    0.576083  -0.715017  0.771778
C    0.439559  -0.402135  2.228876
O    1.498344  -0.127700  2.914420
H    1.213476  -1.602709  0.655439
H    1.073825  0.117214  0.255948
H    -0.386150  -0.907833  0.287631
N    -0.765976  -0.423740  2.757684
C    -1.223698  -0.330210  4.143231
C    -2.557263  -1.149906  4.097494
O    -3.061988  -1.338679  2.985815
H    -1.585626  -0.739418  2.188951
H    -0.478284  -0.783138  4.810336
C    -1.535526  1.132957  4.584884
C    -0.294045  1.977819  4.554935
C    -0.006515  2.795749  3.452384
C    0.667813  1.858321  5.569453
C    1.265625  3.343577  3.264384
C    1.943015  2.412021  5.417314
C    2.244640  3.099197  4.230010
O    3.618870  3.249921  3.966839
H    -1.958368  1.100164  5.597634
H    -2.310089  1.541317  3.922650
H    -0.768253  2.964029  2.690815
H    0.436727  1.308192  6.482366
H    1.494630  3.919530  2.366150
H    2.689561  2.353817  6.213923
H    3.820736  4.056446  3.455933
N    -3.105656  -1.576795  5.244839
C    -2.618128  -1.440867  6.611674
H    -3.998998  -2.048917  5.113463
H    -2.901328  -2.333803  7.179051
H    -3.048458  -0.562993  7.114504
H    -1.524741  -1.373546  6.634696
Ca    3.210186  0.849134  3.572498
