34
Energy: -40374.2684376 eV PBE+vdW (tier 2 basis)
C    -0.299497  -2.106717  1.981545
C    -1.111810  -1.047240  1.314893
O    -1.472401  -1.186603  0.098958
H    0.589814  -2.330500  1.378682
H    -0.899503  -3.028275  2.016390
H    0.006112  -1.844990  2.999677
N    -1.459703  0.033794  2.018221
C    -2.436456  1.082838  1.660755
C    -1.819021  2.105938  0.682688
O    -1.416941  1.693850  -0.463506
H    -1.125008  0.070198  2.979384
H    -3.240258  0.595325  1.084584
C    -3.018273  1.624487  2.989234
C    -3.976372  2.785939  2.866618
C    -3.713038  3.988762  3.541086
C    -5.150532  2.698392  2.098876
C    -4.579739  5.077866  3.445246
C    -6.019707  3.773785  1.992201
C    -5.740028  4.977637  2.664470
O    -6.634835  5.976619  2.516083
H    -2.182855  1.916697  3.646550
H    -3.509977  0.767792  3.477637
H    -2.837096  4.071272  4.189552
H    -5.414917  1.764923  1.597428
H    -4.364198  5.993927  3.996805
H    -6.938737  3.700963  1.412628
H    -6.392621  6.746723  3.058215
N    -1.753810  3.372549  1.014243
C    -1.244867  4.441914  0.155665
H    -2.230694  3.646023  1.884960
H    -1.487124  4.235234  -0.891243
H    -0.156338  4.530670  0.264758
H    -1.713082  5.380642  0.464432
Ca    -1.391487  -0.039432  -1.668713
