34
Energy: -40373.8209392 eV PBE+vdW (tier 2 basis)
C    0.492635  1.390584  0.463043
C    0.163592  0.088164  1.122641
O    0.762870  -0.985086  0.729094
H    -0.059228  2.233621  0.889948
H    0.254672  1.318785  -0.607454
H    1.569320  1.591148  0.547854
N    -0.734388  0.089889  2.085509
C    -1.395774  -0.995699  2.807693
C    -2.768203  -0.338349  3.190500
O    -2.838054  0.893261  3.150916
H    -1.259292  0.966116  2.312086
H    -1.531611  -1.858924  2.140688
C    -0.640361  -1.418281  4.104120
C    0.695549  -2.025454  3.779519
C    1.860382  -1.246485  3.783832
C    0.778277  -3.355324  3.333704
C    3.047687  -1.720358  3.214606
C    1.951980  -3.855321  2.763283
C    3.069349  -3.008487  2.674240
O    4.109211  -3.296303  1.764794
H    -1.271464  -2.136589  4.644822
H    -0.530011  -0.536695  4.749373
H    1.836882  -0.236565  4.193553
H    -0.094827  -4.006295  3.392410
H    3.946392  -1.103403  3.176769
H    2.002614  -4.886022  2.403593
H    4.521906  -4.167186  1.918735
N    -3.752153  -1.164137  3.567367
C    -5.071035  -0.697800  4.000215
H    -3.599664  -2.165973  3.517202
H    -5.063601  0.395079  4.010303
H    -5.289711  -1.070905  5.007528
H    -5.843897  -1.049326  3.306354
Ca    2.321956  -2.317682  0.382162
