34
Energy: -40373.3206954 eV PBE+vdW (tier 2 basis)
C    0.480086  0.520759  0.419229
C    0.174733  0.224671  1.851511
O    1.121999  0.213202  2.716018
H    -0.414141  0.568334  -0.210857
H    1.139349  -0.267858  0.028422
H    1.024074  1.470863  0.340273
N    -1.083897  -0.031287  2.198807
C    -1.552515  -0.536278  3.498192
C    -2.407147  -1.829490  3.307369
O    -1.899860  -2.873543  3.693872
H    -1.761187  -0.014628  1.439158
H    -0.665426  -0.936594  3.999331
C    -2.159359  0.567239  4.415933
C    -1.022613  1.395684  4.947643
C    -0.641437  2.596705  4.332287
C    -0.197904  0.868180  5.955686
C    0.616188  3.164270  4.560892
C    1.054834  1.429187  6.221458
C    1.476254  2.534839  5.463252
O    2.866610  2.751978  5.463061
H    -2.693591  0.059358  5.230934
H    -2.887322  1.183673  3.876999
H    -1.304762  3.069696  3.607792
H    -0.515758  -0.010305  6.519237
H    0.930901  4.054289  4.013505
H    1.693095  1.045666  7.022401
H    3.106068  3.690970  5.348006
N    -3.619544  -1.764226  2.699425
C    -4.459716  -0.612273  2.386785
H    -4.067634  -2.677488  2.642556
H    -4.991890  -0.228855  3.269227
H    -5.205094  -0.920211  1.646702
H    -3.889130  0.210929  1.936604
Ca    2.600004  0.705932  4.111332
