34
Energy: -40374.0066174 eV PBE+vdW (tier 2 basis)
C    0.611666  0.827849  1.046549
C    0.008163  0.544660  2.377461
O    0.400346  1.152043  3.420158
H    0.147660  0.262491  0.231877
H    1.685356  0.596095  1.082845
H    0.527837  1.903328  0.838751
N    -0.983788  -0.381939  2.466681
C    -1.568423  -0.593246  3.782047
C    -0.741840  -1.562821  4.650870
O    -0.035406  -1.046616  5.575731
H    -1.309623  -0.851137  1.626348
H    -1.344781  0.377473  4.218906
C    -3.094630  -0.608197  4.058847
C    -3.172731  -0.038936  5.471521
C    -2.776125  1.299731  5.684444
C    -3.375617  -0.841165  6.597917
C    -2.505545  1.791881  6.967784
C    -3.145856  -0.361642  7.888877
C    -2.679673  0.946562  8.088510
O    -2.403510  1.480433  9.292806
H    -3.553284  -1.600894  3.992669
H    -3.592681  0.044824  3.327614
H    -2.743170  1.997255  4.838993
H    -3.707607  -1.873078  6.476242
H    -2.307421  2.852279  7.139614
H    -3.325898  -1.012185  8.745953
H    -2.640456  0.874132  10.016937
N    -0.743119  -2.869165  4.451396
C    -1.439473  -3.641006  3.423820
H    -0.134694  -3.393454  5.083100
H    -0.711237  -4.091430  2.737754
H    -2.123302  -3.005913  2.855568
H    -2.020554  -4.441345  3.896886
Ca    0.158418  1.125131  5.662525
