34
Energy: -40373.9131652 eV PBE+vdW (tier 2 basis)
C    -0.108196  0.526693  0.842111
C    -0.493493  0.324716  2.265569
O    -0.339173  1.244813  3.125625
H    -0.628914  1.412904  0.454290
H    -0.333940  -0.335392  0.206139
H    0.967707  0.744483  0.789187
N    -1.023465  -0.871343  2.640597
C    -1.415840  -1.003918  4.035205
C    -0.235826  -1.381195  4.952608
O    0.250362  -0.451038  5.673270
H    -1.162581  -1.599669  1.945853
H    -1.574822  0.049002  4.254652
C    -2.799884  -1.524610  4.503607
C    -3.042764  -0.712536  5.772172
C    -2.821396  -1.238148  7.052038
C    -3.258155  0.676362  5.662781
C    -2.786459  -0.422267  8.179022
C    -3.206191  1.522392  6.785487
C    -2.973553  0.965974  8.063892
O    -2.934663  1.683937  9.201810
H    -2.831062  -2.602420  4.697491
H    -3.545071  -1.297902  3.727810
H    -2.668792  -2.310863  7.178045
H    -3.548058  1.108715  4.698272
H    -2.633717  -0.845325  9.171158
H    -3.487748  2.574472  6.688523
H    -3.251234  2.594873  9.072087
N    0.266074  -2.602580  4.995230
C    -0.118909  -3.780778  4.220400
H    1.058371  -2.712049  5.631352
H    0.694907  -4.062725  3.540620
H    -1.022711  -3.586039  3.637873
H    -0.317034  -4.617848  4.900141
Ca    -0.471766  1.581309  5.356086
