34
Energy: -40374.2230633 eV PBE+vdW (tier 2 basis)
C    -2.862257  -1.328060  1.197243
C    -1.635196  -0.973086  1.967373
O    -0.488558  -1.382304  1.571130
H    -2.777540  -0.893133  0.190575
H    -3.782099  -0.965238  1.666493
H    -2.919783  -2.416651  1.068904
N    -1.759081  -0.220940  3.056785
C    -0.699325  0.417043  3.847383
C    -0.002338  -0.592592  4.786792
O    0.716268  -1.512622  4.264894
H    -2.699014  0.082471  3.343743
H    0.101244  0.715805  3.150894
C    -1.289511  1.705269  4.491841
C    -2.763105  1.667119  4.848232
C    -3.346363  0.689568  5.680499
C    -3.600576  2.682823  4.358177
C    -4.694014  0.728101  6.014599
C    -4.949598  2.741642  4.691079
C    -5.508682  1.764074  5.528298
O    -6.804104  1.745759  5.901352
H    -1.140587  2.512657  3.763384
H    -0.658452  1.995413  5.347693
H    -2.758384  -0.136262  6.087180
H    -3.185450  3.460025  3.714738
H    -5.135595  -0.027502  6.662259
H    -5.568536  3.551920  4.303379
H    -7.281672  2.513700  5.543362
N    -0.112214  -0.462899  6.091912
C    0.527573  -1.307466  7.100716
H    -0.691294  0.302629  6.432483
H    -0.242285  -1.819237  7.691286
H    1.130188  -0.679974  7.767959
H    1.165088  -2.044143  6.608483
Ca    1.243252  -2.271909  2.348880
