34
Energy: -40374.212644 eV PBE+vdW (tier 2 basis)
C    -0.139853  1.763437  0.370567
C    -0.392240  1.065085  1.663882
O    0.171331  1.480555  2.729658
H    -0.270821  2.844971  0.498547
H    -0.776315  1.409477  -0.446648
H    0.911991  1.594547  0.094963
N    -1.209959  0.008833  1.668602
C    -1.421097  -1.006939  2.720809
C    -2.202032  -0.480574  3.927736
O    -1.689896  0.379256  4.719715
H    -1.570709  -0.254858  0.755530
H    -2.040192  -1.767702  2.228167
C    -0.106429  -1.726970  3.156516
C    0.652665  -2.275418  1.979697
C    0.235998  -3.461456  1.350914
C    1.770475  -1.607015  1.463309
C    0.904640  -3.959782  0.242974
C    2.458096  -2.097706  0.356068
C    2.024859  -3.279500  -0.265443
O    2.632842  -3.827662  -1.338375
H    -0.402358  -2.525921  3.853304
H    0.537788  -1.039202  3.726668
H    -0.611512  -4.025136  1.747343
H    2.140057  -0.701309  1.950044
H    0.593508  -4.887916  -0.233746
H    3.343049  -1.577695  -0.013485
H    3.419305  -3.316618  -1.594289
N    -3.388628  -1.012128  4.166955
C    -4.244300  -0.717503  5.317472
H    -3.747208  -1.681489  3.489663
H    -4.602444  -1.659825  5.746650
H    -5.106471  -0.118885  4.997348
H    -3.670511  -0.165950  6.065070
Ca    -0.016628  1.675999  4.809813
