34
Energy: -40373.6526421 eV PBE+vdW (tier 2 basis)
C    -0.698774  -0.811953  -0.541547
C    -0.903433  0.217219  0.517189
O    -0.086358  1.216552  0.594638
H    -0.930616  -0.345309  -1.511662
H    -1.339784  -1.689884  -0.424270
H    0.352078  -1.121050  -0.581456
N    -1.913113  0.167255  1.361661
C    -2.722890  -0.957461  1.828844
C    -3.776071  -0.255440  2.733640
O    -3.474840  0.840502  3.227863
H    -2.077821  0.962613  2.012401
H    -3.206265  -1.477996  0.993033
C    -1.857237  -1.983328  2.673266
C    -0.617767  -1.321876  3.227935
C    -0.695557  -0.366442  4.257957
C    0.616971  -1.519645  2.598031
C    0.368213  0.494134  4.530483
C    1.709039  -0.685380  2.867700
C    1.546124  0.352277  3.792011
O    2.548574  1.352170  3.770427
H    -1.570792  -2.821731  2.026748
H    -2.490956  -2.394673  3.469858
H    -1.625522  -0.229762  4.807907
H    0.731307  -2.316300  1.862729
H    0.267838  1.273813  5.287042
H    2.685213  -0.865034  2.409733
H    2.764299  1.693488  4.658432
N    -4.916288  -0.920609  2.948300
C    -5.989209  -0.434319  3.816094
H    -5.073334  -1.790116  2.447452
H    -6.184350  -1.156848  4.617432
H    -6.905783  -0.286621  3.232877
H    -5.678871  0.519765  4.249537
Ca    1.529960  1.927645  1.702785
