34
Energy: -40373.7879759 eV PBE+vdW (tier 2 basis)
C    0.012418  0.009849  0.120020
C    -0.047428  -0.155374  1.609978
O    0.929918  -0.333196  2.336922
H    0.785140  -0.651022  -0.286836
H    0.317355  1.041750  -0.106702
H    -0.944774  -0.184559  -0.377413
N    -1.295389  -0.107623  2.211883
C    -1.291103  -0.049303  3.650852
C    -0.555840  -1.214955  4.321308
O    0.001143  -0.946044  5.451985
H    -2.125143  0.151204  1.687886
H    -0.685084  0.821132  3.964032
C    -2.710533  0.112718  4.255520
C    -2.677135  0.478461  5.724398
C    -2.318793  1.781505  6.142177
C    -2.998279  -0.451215  6.732779
C    -2.287719  2.144744  7.493742
C    -2.972395  -0.109876  8.095264
C    -2.657195  1.210483  8.491955
O    -2.654509  1.645382  9.759201
H    -3.303122  -0.799449  4.104743
H    -3.216811  0.919541  3.704938
H    -2.076992  2.541902  5.396903
H    -3.283655  -1.467773  6.458308
H    -2.050587  3.166339  7.793150
H    -3.258482  -0.853385  8.841852
H    -3.048126  1.002444  10.377594
N    -0.579598  -2.472593  3.919513
C    -1.127531  -3.074996  2.701101
H    -0.014144  -3.090938  4.501216
H    -0.413772  -2.982021  1.872549
H    -2.075580  -2.611161  2.422893
H    -1.297928  -4.136664  2.903919
Ca    -0.325327  0.186691  7.167370
