34
Energy: -40374.3758309 eV PBE+vdW (tier 2 basis)
C    0.492372  -1.480256  0.949139
C    0.277682  -0.900482  2.305629
O    1.271817  -0.482449  2.993309
H    0.929223  -0.704894  0.302986
H    -0.429998  -1.848862  0.489200
H    1.224793  -2.295962  1.006361
N    -0.962649  -0.811431  2.784952
C    -1.356996  -0.151648  4.037463
C    -0.985883  -1.057494  5.228301
O    0.191641  -0.950905  5.724502
H    -1.732322  -1.205218  2.235721
H    -0.721118  0.739474  4.150422
C    -2.828070  0.343115  3.948054
C    -3.866480  -0.692213  3.586753
C    -4.050621  -1.106081  2.251770
C    -4.712663  -1.251000  4.561140
C    -4.985456  -2.074487  1.911598
C    -5.662022  -2.218735  4.234954
C    -5.793110  -2.652559  2.906321
O    -6.680690  -3.582429  2.503092
H    -2.827477  1.154146  3.204922
H    -3.069612  0.814658  4.910634
H    -3.513822  -0.603483  1.441328
H    -4.677570  -0.880786  5.589081
H    -5.139012  -2.370933  0.875072
H    -6.324059  -2.611863  5.007774
H    -7.239487  -3.881203  3.240964
N    -1.861911  -1.923691  5.682637
C    -1.650575  -2.847796  6.795418
H    -2.779869  -1.936832  5.213903
H    -2.566877  -2.891935  7.393334
H    -0.823253  -2.497645  7.417407
H    -1.427874  -3.853146  6.414513
Ca    2.084088  -0.390009  4.938126
