34
Energy: -40373.7036395 eV PBE+vdW (tier 2 basis)
C    -1.838006  -1.674490  0.826170
C    -0.832809  -0.928162  1.635741
O    0.414202  -1.170054  1.501603
H    -1.843345  -1.316075  -0.214630
H    -2.851686  -1.610787  1.232049
H    -1.523945  -2.726378  0.791040
N    -1.219485  0.017713  2.518470
C    -2.191983  1.056610  2.178054
C    -1.492938  2.029934  1.179962
O    -0.326425  1.747502  0.713296
H    -0.478316  0.324153  3.151885
H    -3.025978  0.585153  1.638403
C    -2.748545  1.731801  3.459901
C    -3.866663  2.717901  3.214308
C    -3.691076  4.089053  3.481716
C    -5.122943  2.291475  2.748654
C    -4.717528  5.003646  3.280030
C    -6.159224  3.194915  2.541565
C    -5.963924  4.562233  2.806584
O    -6.918865  5.498272  2.636809
H    -1.923242  2.230554  3.990871
H    -3.091004  0.909564  4.105809
H    -2.738476  4.445152  3.878994
H    -5.313986  1.231376  2.568195
H    -4.584190  6.060269  3.506663
H    -7.129822  2.838837  2.193515
H    -7.758411  5.096386  2.354827
N    -2.143039  3.117991  0.843430
C    -1.683700  4.168216  -0.062234
H    -3.026462  3.278391  1.353293
H    -1.736240  5.132800  0.456064
H    -2.338235  4.204621  -0.941903
H    -0.656243  3.972368  -0.375420
Ca    1.396530  0.504061  0.572285
