34
Energy: -40373.8495175 eV PBE+vdW (tier 2 basis)
C    -0.053259  2.096541  0.317046
C    -0.099583  0.766138  0.989405
O    0.661450  -0.184349  0.595005
H    -0.742383  2.824578  0.757168
H    -0.299926  1.966953  -0.746353
H    0.968403  2.497003  0.361561
N    -0.946046  0.566710  1.995952
C    -1.124575  -0.697675  2.720637
C    -2.537332  -0.769682  3.403308
O    -2.643631  -1.315925  4.491206
H    -1.500693  1.362380  2.309901
H    -1.109100  -1.499791  1.964321
C    -0.035174  -0.953469  3.786439
C    1.138794  -1.786781  3.351785
C    2.467500  -1.310672  3.444820
C    0.971267  -3.114243  2.893077
C    3.570464  -2.105231  3.102745
C    2.061255  -3.926165  2.542408
C    3.384695  -3.443019  2.680670
O    4.487709  -4.155996  2.413799
H    -0.567227  -1.468948  4.606891
H    0.308464  0.004947  4.195589
H    2.649490  -0.298707  3.811073
H    -0.030824  -3.543531  2.833223
H    4.587498  -1.727915  3.217102
H    1.884279  -4.955990  2.225414
H    4.297431  -5.101202  2.268943
N    -3.561383  -0.216194  2.713781
C    -4.937585  -0.273510  3.215674
H    -3.430102  0.038056  1.740408
H    -4.929141  -0.109145  4.297304
H    -5.394334  -1.251179  3.013341
H    -5.524568  0.512017  2.730663
Ca    2.071168  -1.728001  0.808693
