34
Energy: -40374.0805333 eV PBE+vdW (tier 2 basis)
C    0.348296  -1.228847  1.129368
C    -0.386005  0.068322  0.967492
O    0.148114  1.082023  0.491806
H    1.147804  -1.082227  1.869228
H    0.836884  -1.482478  0.180964
H    -0.283634  -2.063000  1.452636
N    -1.702780  0.088078  1.362402
C    -2.535937  1.270585  1.548743
C    -2.820820  2.132713  0.310621
O    -3.948868  2.762503  0.296330
H    -2.092520  -0.782200  1.709230
H    -3.524297  0.883068  1.833052
C    -2.019887  2.176547  2.720923
C    -2.946826  3.304732  3.106495
C    -4.091646  3.078936  3.901305
C    -2.694171  4.639426  2.715149
C    -4.939958  4.123956  4.302440
C    -3.527217  5.697119  3.101523
C    -4.641681  5.459366  3.941426
O    -5.358718  6.527726  4.315954
H    -1.033352  2.573394  2.449964
H    -1.875371  1.516174  3.586612
H    -4.322800  2.067685  4.241728
H    -1.814536  4.863375  2.109464
H    -5.791793  3.907740  4.950374
H    -3.291407  6.724917  2.822760
H    -6.020960  6.314713  4.999124
N    -1.925616  2.251133  -0.631352
C    -2.076181  3.024044  -1.858851
H    -0.991858  1.812481  -0.384232
H    -1.487030  3.948716  -1.796506
H    -3.128423  3.263835  -2.032331
H    -1.693451  2.429457  -2.695687
Ca    -5.072353  4.032990  1.502847
