34
Energy: -40374.0891539 eV PBE+vdW (tier 2 basis)
C    -0.421510  1.145650  -0.498381
C    -0.416714  0.015261  0.474660
O    0.341275  -1.006254  0.263642
H    -0.764730  0.770145  -1.473158
H    0.600379  1.521044  -0.640416
H    -1.071109  1.968638  -0.185258
N    -1.195424  0.069984  1.533252
C    -1.467204  -0.951634  2.536884
C    -2.814273  -0.433973  3.164517
O    -3.131776  0.736669  2.946803
H    -1.845467  0.870094  1.701518
H    -1.623169  -1.924130  2.043629
C    -0.374091  -1.055660  3.635658
C    0.879663  -1.833762  3.302659
C    2.140291  -1.206942  3.229985
C    0.858736  -3.241145  3.158840
C    3.327798  -1.936004  3.046890
C    2.028816  -3.989395  2.978234
C    3.291338  -3.347667  2.967760
O    4.370149  -4.133919  2.850594
H    -0.832421  -1.531531  4.515455
H    -0.108966  -0.037804  3.950519
H    2.208817  -0.123493  3.339935
H    -0.088901  -3.779231  3.222875
H    4.284647  -1.410056  3.033587
H    1.993126  -5.077932  2.918636
H    5.204737  -3.649364  2.990118
N    -3.506177  -1.301096  3.916122
C    -4.762006  -0.954146  4.586243
H    -3.197505  -2.266051  3.968705
H    -4.713996  -1.247923  5.640745
H    -5.606375  -1.461951  4.104256
H    -4.903981  0.127152  4.513920
Ca    1.805023  -2.376576  0.743576
