34
Energy: -40373.7452465 eV PBE+vdW (tier 2 basis)
C    -0.728119  0.765695  0.223109
C    -0.619592  0.647721  1.714474
O    -0.090623  1.487022  2.434628
H    -1.227233  -0.086306  -0.252409
H    0.280758  0.871573  -0.196324
H    -1.270763  1.687554  -0.022616
N    -1.147827  -0.520852  2.285119
C    -1.182747  -0.563342  3.720833
C    -0.460270  -1.702226  4.417686
O    -0.259507  -1.554414  5.683520
H    -1.788593  -1.077492  1.729371
H    -0.562640  0.327363  3.966903
C    -2.606281  -0.320131  4.321960
C    -2.615567  0.262795  5.714049
C    -1.991881  1.505562  5.986416
C    -3.250766  -0.386726  6.791283
C    -1.991517  2.064278  7.268496
C    -3.263403  0.158999  8.086720
C    -2.662823  1.414831  8.334420
O    -2.657449  2.036970  9.520493
H    -3.207844  -1.238587  4.290811
H    -3.089346  0.398247  3.644133
H    -1.500220  2.053255  5.178333
H    -3.753044  -1.341038  6.624464
H    -1.531906  3.035891  7.453869
H    -3.789693  -0.365321  8.886878
H    -3.244537  1.609444  10.171016
N    0.002195  -2.798523  3.846316
C    -0.083805  -3.284270  2.461232
H    0.504106  -3.404645  4.495784
H    0.443990  -2.614286  1.776552
H    -1.127448  -3.399394  2.149310
H    0.389850  -4.269382  2.434360
Ca    -0.602455  -0.364264  7.379814
