34
Energy: -40373.8518534 eV PBE+vdW (tier 2 basis)
C    0.550708  1.419582  0.505587
C    0.186866  0.104403  1.119947
O    0.766819  -0.968379  0.697355
H    0.015359  2.260785  0.956445
H    0.318756  1.388720  -0.568201
H    1.631113  1.591442  0.603863
N    -0.721807  0.094451  2.072869
C    -1.410636  -1.000160  2.753559
C    -2.778381  -0.333386  3.134800
O    -2.827626  0.900002  3.133414
H    -1.232846  0.973127  2.320287
H    -1.546996  -1.842671  2.060913
C    -0.682006  -1.470331  4.050151
C    0.674514  -2.031451  3.731422
C    1.825718  -1.237997  3.844124
C    0.798148  -3.316825  3.182653
C    3.038327  -1.628318  3.268831
C    2.004461  -3.742052  2.617101
C    3.097496  -2.859886  2.612986
O    4.105594  -3.172506  1.682146
H    -1.313042  -2.226857  4.536322
H    -0.608052  -0.619616  4.740295
H    1.767246  -0.267636  4.337630
H    -0.057516  -3.992936  3.170124
H    3.906739  -0.968274  3.303147
H    2.122568  -4.752722  2.217107
H    4.991274  -2.881851  1.970808
N    -3.780771  -1.154424  3.470935
C    -5.098565  -0.680552  3.898859
H    -3.642438  -2.156632  3.393817
H    -5.865999  -0.995391  3.181689
H    -5.073327  0.411104  3.946141
H    -5.339299  -1.083730  4.889399
Ca    2.246403  -2.364831  0.275937
