34
Energy: -40373.762295 eV PBE+vdW (tier 2 basis)
C    -0.641482  1.515487  -0.313171
C    -0.470563  0.379091  0.635786
O    0.417217  -0.517632  0.417641
H    0.314241  2.043307  -0.430840
H    -1.409074  2.228211  0.005032
H    -0.912786  1.116788  -1.301215
N    -1.251747  0.287044  1.708067
C    -1.282733  -0.866531  2.618649
C    -2.653407  -1.055602  3.317731
O    -3.079487  -2.199559  3.392481
H    -1.999178  0.973600  1.797802
H    -1.217948  -1.764822  1.990187
C    -0.122872  -0.883526  3.660580
C    1.040157  -1.775872  3.294122
C    2.369187  -1.300357  3.256733
C    0.838609  -3.148269  3.023803
C    3.449122  -2.143313  2.959587
C    1.906071  -4.009012  2.725012
C    3.235871  -3.523515  2.728670
O    4.320425  -4.274954  2.498831
H    -0.533776  -1.253149  4.612100
H    0.225772  0.139693  3.848959
H    2.572924  -0.250231  3.473762
H    -0.171052  -3.564814  3.066352
H    4.471981  -1.764616  2.966268
H    1.709426  -5.069154  2.552400
H    4.119300  -5.228967  2.481278
N    -3.275163  0.048428  3.801003
C    -4.556337  -0.048180  4.508762
H    -2.747768  0.907420  3.926540
H    -4.409935  -0.308464  5.565292
H    -5.159682  -0.828809  4.036492
H    -5.076552  0.911642  4.436466
Ca    1.824237  -2.039364  0.713839
