34
Energy: -40373.6495947 eV PBE+vdW (tier 2 basis)
C    0.805751  -2.854081  1.876446
C    0.530613  -1.710296  2.791329
O    1.484347  -0.946953  3.177348
H    1.500222  -3.547007  2.372983
H    1.307839  -2.490072  0.970398
H    -0.098286  -3.402341  1.592326
N    -0.708955  -1.487139  3.219962
C    -1.044477  -0.466906  4.220097
C    -2.218456  -0.782298  5.185713
O    -2.033296  -0.432821  6.346928
H    -1.437626  -2.117990  2.894698
H    -0.204426  -0.470140  4.924925
C    -1.185659  0.970806  3.626599
C    0.016720  1.848732  3.885765
C    0.682581  2.535425  2.851880
C    0.500597  2.033517  5.204531
C    1.787423  3.367865  3.104799
C    1.598514  2.857135  5.476024
C    2.235514  3.570871  4.430706
O    3.249314  4.374749  4.777335
H    -2.059396  1.452732  4.089424
H    -1.392869  0.914070  2.550828
H    0.336155  2.430550  1.822172
H    -0.005430  1.537083  6.037746
H    2.259198  3.902283  2.277740
H    1.937422  3.015347  6.500689
H    3.551238  4.937598  4.040606
N    -3.366313  -1.343528  4.742114
C    -3.790209  -1.650275  3.381221
H    -4.044367  -1.496392  5.486656
H    -3.508985  -2.670146  3.069513
H    -3.408581  -0.914712  2.661400
H    -4.882621  -1.594155  3.332215
Ca    2.498505  0.763490  3.851884
