34
Energy: -40374.1257689 eV PBE+vdW (tier 2 basis)
C    -0.621725  -2.054824  0.336474
C    -0.409486  -1.318977  1.616738
O    0.611983  -1.578073  2.334173
H    -1.433249  -1.643922  -0.272683
H    -0.866117  -3.098554  0.586172
H    0.307001  -2.069918  -0.246431
N    -1.312157  -0.401420  1.977306
C    -1.530228  0.247541  3.284803
C    -0.474083  1.284903  3.649381
O    0.753199  0.952433  3.793949
H    -2.098300  -0.312490  1.339144
H    -2.486847  0.765163  3.160224
C    -1.730759  -0.769878  4.458498
C    -2.781423  -1.794989  4.136281
C    -4.146473  -1.464296  4.193463
C    -2.428481  -3.092968  3.743282
C    -5.124567  -2.391315  3.867266
C    -3.398133  -4.038802  3.419801
C    -4.757002  -3.691028  3.476536
O    -5.761202  -4.543744  3.184644
H    -2.004133  -0.176014  5.344033
H    -0.778330  -1.266628  4.696925
H    -4.457931  -0.471288  4.525536
H    -1.377736  -3.390847  3.720770
H    -6.182586  -2.141923  3.929808
H    -3.103727  -5.052764  3.145246
H    -5.418614  -5.427502  2.968054
N    -0.840021  2.527023  3.919952
C    -2.173981  3.136082  3.833688
H    -0.082305  3.127778  4.246542
H    -2.061335  4.210690  4.001039
H    -2.843058  2.735242  4.605141
H    -2.610488  2.991349  2.838872
Ca    2.051116  -0.700352  3.585857
