34
Energy: -40374.0319947 eV PBE+vdW (tier 2 basis)
C    0.410112  -1.151586  1.383894
C    -0.822069  -0.306347  1.247499
O    -1.942594  -0.741319  1.034794
H    0.427388  -1.890020  0.573865
H    0.346931  -1.714643  2.325699
H    1.342867  -0.576275  1.376570
N    -0.631016  1.091313  1.363502
C    -1.822104  1.901971  1.466421
C    -1.979431  2.874019  0.302196
O    -2.996690  3.657776  0.263305
H    0.222852  1.410788  1.815253
H    -2.633434  1.155442  1.321278
C    -1.980310  2.566842  2.861235
C    -3.347025  3.130834  3.171915
C    -4.507435  2.325959  3.126729
C    -3.517540  4.480280  3.554404
C    -5.777281  2.837582  3.432588
C    -4.776562  5.010889  3.865947
C    -5.924835  4.184219  3.844215
O    -7.087142  4.748343  4.196241
H    -1.220042  3.348225  3.000188
H    -1.759955  1.779414  3.597189
H    -4.427451  1.271651  2.853771
H    -2.646474  5.134888  3.617681
H    -6.644028  2.173959  3.407971
H    -4.882132  6.047325  4.188822
H    -7.808219  4.098100  4.285465
N    -1.088651  2.836373  -0.661772
C    -1.096813  3.615753  -1.895608
H    -0.355054  2.136597  -0.520482
H    -0.144509  4.149382  -1.995611
H    -1.918719  4.334494  -1.870045
H    -1.219955  2.944123  -2.754221
Ca    -4.779678  4.243647  1.193104
