34
Energy: -40373.8172759 eV PBE+vdW (tier 2 basis)
C    -0.240582  1.210463  1.361649
C    -0.518619  0.685251  2.728182
O    -0.392790  1.420765  3.751310
H    -0.856672  2.103740  1.191184
H    -0.432832  0.480313  0.568804
H    0.808204  1.534083  1.307635
N    -0.916047  -0.607415  2.859831
C    -1.233556  -1.102474  4.192072
C    0.038655  -1.528763  4.957974
O    0.530507  -0.670451  5.756382
H    -1.009788  -1.182703  2.027278
H    -1.455588  -0.154031  4.682548
C    -2.569058  -1.893957  4.453867
C    -3.109426  -1.081698  5.622792
C    -2.492685  -1.235570  6.871579
C    -3.751238  0.138105  5.338727
C    -2.231664  -0.114931  7.667367
C    -3.501508  1.268860  6.116624
C    -2.625389  1.145625  7.205542
O    -1.924563  2.243889  7.730375
H    -2.399210  -2.947787  4.700392
H    -3.217347  -1.844802  3.569491
H    -2.080750  -2.201066  7.167544
H    -4.333931  0.247961  4.423150
H    -1.671868  -0.201004  8.599461
H    -3.913540  2.238366  5.832183
H    -2.490649  3.029867  7.844876
N    0.617650  -2.705749  4.782961
C    0.246025  -3.786343  3.871681
H    1.462500  -2.848461  5.339386
H    -0.006403  -4.689595  4.440797
H    1.090287  -4.011143  3.208777
H    -0.613980  -3.502090  3.260345
Ca    -0.215143  1.419747  5.987232
