34
Energy: -40374.1453445 eV PBE+vdW (tier 2 basis)
C    0.117017  3.387995  2.249075
C    -0.014816  2.044185  2.882782
O    0.179609  0.993947  2.187316
H    0.101183  4.212538  2.969051
H    -0.727605  3.515458  1.554613
H    1.036613  3.433898  1.653666
N    -0.345181  1.983279  4.176826
C    -0.825256  0.840543  4.978884
C    0.252632  -0.192000  5.292777
O    0.819005  -0.855851  4.357098
H    -0.509077  2.887561  4.610920
H    -1.142047  1.300301  5.920613
C    -2.095303  0.145710  4.381325
C    -3.183900  1.133245  4.068719
C    -3.369616  1.611466  2.761325
C    -4.021498  1.625083  5.080920
C    -4.350181  2.549054  2.467195
C    -5.007227  2.566062  4.804214
C    -5.176778  3.038708  3.491972
O    -6.111883  3.945338  3.139583
H    -2.424464  -0.596191  5.124497
H    -1.826567  -0.418608  3.475291
H    -2.760871  1.216911  1.944532
H    -3.925571  1.253447  6.103426
H    -4.513818  2.899040  1.449136
H    -5.660056  2.921828  5.602440
H    -6.659267  4.196996  3.902947
N    0.540232  -0.481189  6.551376
C    0.023274  0.132837  7.781478
H    1.203042  -1.248801  6.666205
H    -1.032163  -0.122137  7.938162
H    0.153314  1.220827  7.764569
H    0.600955  -0.264156  8.620620
Ca    0.931272  -0.964325  2.249444
