34
Energy: -40374.0684202 eV PBE+vdW (tier 2 basis)
C    0.137414  -1.601361  0.431370
C    -0.074065  -1.013496  1.783383
O    0.884549  -0.421725  2.391416
H    0.485811  -0.812324  -0.249625
H    -0.767279  -2.060496  0.020815
H    0.936176  -2.354261  0.481237
N    -1.274984  -1.104444  2.354859
C    -1.645959  -0.403356  3.589648
C    -0.860580  -0.950754  4.792507
O    0.112344  -0.241254  5.240198
H    -2.072328  -1.402069  1.775933
H    -1.300365  0.637774  3.490963
C    -3.198527  -0.347783  3.744591
C    -3.863802  -0.052097  2.426051
C    -4.352153  -1.105302  1.628309
C    -3.972421  1.256921  1.934541
C    -4.921748  -0.866030  0.382604
C    -4.547304  1.512282  0.694321
C    -5.022132  0.450285  -0.095127
O    -5.593129  0.617946  -1.305963
H    -3.415517  0.426411  4.492439
H    -3.583756  -1.290571  4.146230
H    -4.343150  -2.129838  2.010751
H    -3.632614  2.099111  2.540412
H    -5.325798  -1.678005  -0.219920
H    -4.647210  2.540071  0.342182
H    -5.670870  1.561377  -1.528373
N    -1.132178  -2.101806  5.383655
C    -2.099011  -3.149746  5.040869
H    -0.552322  -2.286181  6.203812
H    -2.317787  -3.146077  3.970646
H    -3.025019  -3.029830  5.616856
H    -1.651130  -4.115618  5.297743
Ca    1.760953  0.462531  4.095537
