34
Energy: -40374.2631222 eV PBE+vdW (tier 2 basis)
C    -0.359621  -1.648119  -0.122140
C    -0.309269  -1.199953  1.300406
O    0.809493  -1.128169  1.909995
H    0.164444  -2.606087  -0.231345
H    0.188951  -0.914950  -0.732243
H    -1.377789  -1.742034  -0.513343
N    -1.450180  -0.866658  1.909888
C    -1.630306  -0.179624  3.205399
C    -1.477934  -1.169614  4.381553
O    -0.360072  -1.783895  4.521176
H    -2.298910  -0.961054  1.354840
H    -0.788896  0.523768  3.319987
C    -2.952431  0.620232  3.104730
C    -3.391424  1.341716  4.356917
C    -4.626569  1.026184  4.952477
C    -2.607177  2.342260  4.949553
C    -5.057931  1.666760  6.109384
C    -3.027511  2.994135  6.104237
C    -4.256708  2.657160  6.697630
O    -4.732437  3.244944  7.815076
H    -3.754615  -0.066714  2.788627
H    -2.812998  1.333740  2.276951
H    -5.288239  0.295132  4.480146
H    -1.664136  2.649641  4.492683
H    -6.024020  1.435096  6.554996
H    -2.411234  3.783002  6.538039
H    -4.138851  3.952568  8.118797
N    -2.465051  -1.338846  5.227575
C    -2.434763  -2.208329  6.402216
H    -3.261498  -0.689929  5.142416
H    -1.727470  -3.025968  6.245082
H    -3.439540  -2.613121  6.559754
H    -2.141967  -1.631633  7.289780
Ca    1.595658  -1.840638  3.732759
