34
Energy: -40373.7265889 eV PBE+vdW (tier 2 basis)
C    0.463302  -0.689853  0.699871
C    0.363961  -0.369357  2.158287
O    1.434053  -0.051543  2.806565
H    1.131327  -1.552620  0.568903
H    0.909641  0.156562  0.160381
H    -0.506320  -0.924727  0.250245
N    -0.822144  -0.427230  2.726514
C    -1.237794  -0.340207  4.126081
C    -2.547738  -1.198698  4.126315
O    -3.081048  -1.410385  3.032517
H    -1.648883  -0.773302  2.186545
H    -0.459383  -0.770293  4.770445
C    -1.576015  1.114697  4.572166
C    -0.348306  1.981010  4.562006
C    -0.040030  2.780563  3.453384
C    0.582312  1.899441  5.611534
C    1.224607  3.363104  3.313158
C    1.851606  2.473145  5.498895
C    2.171798  3.170033  4.321871
O    3.520036  3.401850  3.976375
H    -2.008886  1.071627  5.580101
H    -2.350132  1.514151  3.903847
H    -0.776111  2.917709  2.661086
H    0.334619  1.346780  6.518600
H    1.485070  3.952550  2.433092
H    2.576024  2.390115  6.312858
H    4.007842  3.905610  4.655172
N    -3.046402  -1.634405  5.293133
C    -2.517393  -1.478166  6.642149
H    -3.928568  -2.134356  5.193189
H    -1.425736  -1.384215  6.628402
H    -2.759437  -2.374345  7.223300
H    -2.952397  -0.608271  7.154947
Ca    3.108524  1.054028  3.355066
