34
Energy: -40373.5542319 eV PBE+vdW (tier 2 basis)
C    0.776252  0.715077  1.166386
C    -0.152997  -0.048908  2.046295
O    0.302159  -0.743042  3.022017
H    1.236619  1.552721  1.711425
H    0.300843  1.090083  0.255863
H    1.599961  0.039950  0.892530
N    -1.486334  -0.006074  1.855156
C    -2.222132  1.214173  1.570460
C    -1.934769  2.220372  2.704185
O    -1.428581  1.823260  3.812287
H    -2.047702  -0.777306  2.232500
H    -1.914396  1.636518  0.603311
C    -3.756162  0.878393  1.520167
C    -4.023180  -0.393755  0.769571
C    -3.876180  -0.460401  -0.628349
C    -4.411044  -1.556328  1.455278
C    -4.105516  -1.639991  -1.315757
C    -4.646523  -2.750259  0.777630
C    -4.493115  -2.799146  -0.616465
O    -4.706206  -3.906227  -1.354743
H    -4.266417  1.739163  1.065644
H    -4.132970  0.795752  2.550924
H    -3.601632  0.431444  -1.195293
H    -4.589590  -1.519821  2.533111
H    -4.010933  -1.690291  -2.399342
H    -4.973870  -3.635029  1.325083
H    -5.008347  -4.645793  -0.800122
N    -2.285984  3.479118  2.528198
C    -2.175870  4.532416  3.544114
H    -2.673805  3.739055  1.624052
H    -2.631655  5.442455  3.146316
H    -1.122606  4.730703  3.776204
H    -2.702260  4.234218  4.457652
Ca    -0.378907  0.228764  4.811888
