34
Energy: -40373.8851783 eV PBE+vdW (tier 2 basis)
C    0.189898  1.694459  1.582384
C    -0.207532  0.959751  2.814652
O    0.215660  1.314414  3.955831
H    -0.292772  1.313716  0.676464
H    1.280834  1.631127  1.464411
H    -0.052716  2.758370  1.707265
N    -1.041984  -0.109420  2.699901
C    -1.429449  -0.788692  3.925224
C    -0.406417  -1.846395  4.374809
O    0.384086  -1.494110  5.309792
H    -1.382645  -0.382623  1.782243
H    -1.222065  0.024343  4.612587
C    -2.931270  -1.026330  4.301299
C    -3.092062  -0.200158  5.572137
C    -3.596307  1.107711  5.519044
C    -2.416654  -0.595016  6.744581
C    -3.396750  2.013685  6.561142
C    -2.164663  0.313576  7.783825
C    -2.657304  1.636494  7.695558
O    -2.393091  2.451529  8.735478
H    -3.144000  -2.090363  4.462812
H    -3.593860  -0.671160  3.502272
H    -4.145556  1.440197  4.637149
H    -2.087666  -1.629303  6.866001
H    -3.822978  3.015995  6.495472
H    -1.720908  -0.016997  8.725466
H    -2.862545  3.300866  8.654406
N    -0.338563  -3.049058  3.833190
C    -1.139896  -3.597446  2.740601
H    0.392572  -3.651527  4.216308
H    -0.502659  -3.785772  1.867578
H    -1.938245  -2.904619  2.460783
H    -1.595268  -4.543185  3.057248
Ca    0.261774  0.571940  6.085089
