34
Energy: -40373.7197563 eV PBE+vdW (tier 2 basis)
C    -0.335381  -1.493105  1.271093
C    -0.103927  -0.033544  1.355266
O    0.671157  0.592793  0.604258
H    -1.408699  -1.688464  1.112769
H    -0.095650  -1.965983  2.238257
H    0.259285  -1.946442  0.473879
N    -0.726758  0.720192  2.389629
C    -1.987948  1.468789  2.048454
C    -1.695716  2.869496  1.518959
O    -0.549333  3.397674  1.698952
H    -1.018216  0.093204  3.166401
H    -2.545561  0.900452  1.286935
C    -2.857089  1.524549  3.351350
C    -3.005638  0.162092  3.972094
C    -2.230416  -0.208157  5.088743
C    -3.886727  -0.790130  3.431671
C    -2.321314  -1.480446  5.642930
C    -3.992436  -2.062986  3.978896
C    -3.205873  -2.420245  5.090404
O    -3.254997  -3.631166  5.678874
H    -3.833559  1.947493  3.076768
H    -2.389701  2.226486  4.057216
H    -1.581475  0.528688  5.567929
H    -4.527714  -0.528463  2.587163
H    -1.744024  -1.755315  6.524284
H    -4.702670  -2.777870  3.560714
H    -3.936647  -4.193920  5.272815
N    -2.678501  3.519604  0.922821
C    -2.614025  4.896063  0.424110
H    -3.563554  3.030991  0.802806
H    -3.431650  5.478089  0.864516
H    -2.717825  4.898317  -0.667682
H    -1.656274  5.337430  0.706748
Ca    1.253445  2.316407  1.929231
