37
Energy: -248499.954444 eV PBE+vdW (tier 2 basis)
C    1.104720  0.334735  1.103570
C    0.298634  0.105346  2.339794
O    0.847334  -0.066872  3.461977
H    1.750822  1.209416  1.256854
H    0.493330  0.490547  0.208666
H    1.767250  -0.526156  0.941847
N    -1.056430  0.090933  2.233035
C    -1.847316  -0.071568  3.442619
C    -2.021497  -1.551992  3.841435
O    -1.332112  -2.002657  4.798305
H    -1.484638  0.249380  1.325599
H    -1.162449  0.309420  4.201201
C    -3.107739  0.792890  3.675332
C    -3.293208  0.738166  5.169523
C    -4.243936  0.044377  5.888580
C    -2.286010  1.135019  6.120249
N    -3.874060  -0.032273  7.212869
C    -2.666264  0.595559  7.389904
C    -1.097488  1.895399  6.033473
C    -1.851606  0.713711  8.522323
C    -0.294549  2.035337  7.170985
C    -0.655403  1.424595  8.395035
H    -3.995449  0.428914  3.141703
H    -2.909764  1.815154  3.320387
H    -5.167386  -0.414699  5.549999
H    -4.435994  -0.447592  7.948009
H    -0.830132  2.416552  5.112325
H    -2.149503  0.294317  9.483186
H    0.592450  2.668860  7.131704
H    -0.022434  1.563805  9.270501
N    -2.871651  -2.313460  3.164222
C    -3.083412  -3.737567  3.435959
H    -3.391338  -1.894732  2.399026
H    -3.957276  -4.074096  2.872216
H    -3.257346  -3.891885  4.506368
H    -2.208099  -4.323801  3.129682
Ba    0.551270  -0.740912  5.933712
