37
Energy: -248499.477195 eV PBE+vdW (tier 2 basis)
C    -1.690482  3.895587  4.042812
C    -1.387336  2.645651  3.283160
O    -0.652370  1.741964  3.795257
H    -2.312138  4.599220  3.480391
H    -2.207282  3.622579  4.973458
H    -0.752943  4.390279  4.328093
N    -1.910279  2.501859  2.062658
C    -1.935104  1.261806  1.277094
C    -0.559296  0.949042  0.659466
O    0.290697  0.285764  1.333570
H    -2.653005  3.159529  1.795822
H    -2.135538  0.429439  1.970146
C    -3.119398  1.354092  0.274147
C    -4.366301  1.809032  0.957908
C    -5.012813  3.020327  0.763643
C    -5.094503  1.106582  1.981449
N    -6.091428  3.099698  1.606437
C    -6.175667  1.947739  2.365826
C    -4.961842  -0.154252  2.592328
C    -7.105455  1.574156  3.339891
C    -5.884236  -0.528777  3.560818
C    -6.940340  0.328373  3.932539
H    -3.241337  0.365118  -0.191960
H    -2.887659  2.064150  -0.536779
H    -4.810490  3.809346  0.045189
H    -6.768487  3.853232  1.612023
H    -4.182046  -0.852916  2.282031
H    -7.934591  2.224422  3.616420
H    -5.810568  -1.509582  4.028704
H    -7.651727  -0.000650  4.688334
N    -0.301131  1.361195  -0.569835
C    0.947699  1.133642  -1.296022
H    -1.036486  1.869872  -1.053954
H    1.462538  0.268863  -0.870299
H    1.595612  2.017352  -1.230051
H    0.715558  0.939838  -2.348078
Ba    0.896173  -0.083571  3.667363
