37
Energy: -248499.489958 eV PBE+vdW (tier 2 basis)
C    -0.514388  -1.177826  -0.163345
C    -0.725107  -0.106379  0.858216
O    -0.387218  1.093172  0.615389
H    -1.121019  -0.936101  -1.047966
H    -0.788111  -2.177192  0.190416
H    0.533934  -1.182348  -0.487168
N    -1.290394  -0.444216  2.024509
C    -1.769348  0.473465  3.068871
C    -0.609301  0.880392  4.002078
O    0.367127  1.536479  3.507524
H    -1.537084  -1.423927  2.147283
H    -2.057214  1.407340  2.562197
C    -3.030285  -0.156467  3.710226
C    -3.569165  0.573729  4.900750
C    -3.849635  0.008750  6.135605
C    -3.895986  1.972158  4.999057
N    -4.316213  0.979305  6.985652
C    -4.359438  2.192164  6.327687
C    -3.876812  3.058380  4.102043
C    -4.772686  3.448204  6.780940
C    -4.290516  4.306807  4.548299
C    -4.726108  4.500220  5.875431
H    -2.809952  -1.199545  3.990879
H    -3.784374  -0.206345  2.907448
H    -3.792579  -1.028318  6.453619
H    -4.646291  0.813873  7.929127
H    -3.604797  2.921663  3.053331
H    -5.131971  3.596331  7.798664
H    -4.309179  5.150050  3.858911
H    -5.052094  5.490202  6.190278
N    -0.663989  0.558223  5.276203
C    0.343154  0.917363  6.270550
H    -1.575290  0.212254  5.613282
H    0.117423  1.900103  6.706560
H    1.332237  0.944216  5.805782
H    0.333186  0.165183  7.065313
Ba    0.985484  2.845641  1.568357
