37
Energy: -248499.670077 eV PBE+vdW (tier 2 basis)
C    -1.923898  1.551301  5.542100
C    -1.383384  0.982391  4.270552
O    -0.178742  0.571491  4.200039
H    -1.819068  0.800263  6.337198
H    -1.323310  2.420305  5.841796
H    -2.974952  1.847951  5.460890
N    -2.197053  0.907734  3.216650
C    -1.872307  0.270948  1.935017
C    -0.973691  1.213277  1.109799
O    0.291626  1.099446  1.212936
H    -3.154332  1.267281  3.316146
H    -1.242269  -0.604491  2.153116
C    -3.165417  -0.233929  1.237328
C    -4.261258  0.777488  1.080634
C    -4.637033  1.426086  -0.088616
C    -5.157427  1.244885  2.111512
N    -5.675713  2.283200  0.174073
C    -6.019856  2.203586  1.507533
C    -5.362423  0.912886  3.469086
C    -7.021988  2.867966  2.220493
C    -6.360797  1.570253  4.177640
C    -7.171018  2.546594  3.563325
H    -3.525838  -1.087206  1.832034
H    -2.873880  -0.647000  0.261752
H    -4.283351  1.280670  -1.105647
H    -6.168130  2.829221  -0.523231
H    -4.808175  0.101303  3.946101
H    -7.673313  3.597422  1.740446
H    -6.546252  1.306079  5.217842
H    -7.947629  3.038172  4.146854
N    -1.549469  2.123463  0.350353
C    -0.848766  3.100997  -0.477360
H    -2.581494  2.118098  0.342812
H    -1.402780  3.235662  -1.412082
H    0.159343  2.742342  -0.701092
H    -0.787750  4.067988  0.039295
Ba    1.872797  0.428878  2.944679
