37
Energy: -248499.532256 eV PBE+vdW (tier 2 basis)
C    0.516839  0.671127  0.568265
C    -0.168937  0.151773  1.794388
O    0.302297  0.429072  2.953510
H    1.539582  0.270773  0.538021
H    0.002662  0.394418  -0.357353
H    0.596894  1.765185  0.620485
N    -1.254145  -0.582428  1.637246
C    -2.005239  -1.363812  2.613298
C    -2.565485  -2.530443  1.729373
O    -2.623676  -2.355005  0.510415
H    -1.567993  -0.867634  0.686698
H    -1.325006  -1.742528  3.389246
C    -3.193698  -0.590893  3.261639
C    -2.876866  0.243982  4.466188
C    -3.075248  -0.139996  5.778316
C    -2.403224  1.600620  4.524450
N    -2.721905  0.875704  6.641941
C    -2.314526  1.966281  5.914293
C    -2.055239  2.564282  3.551565
C    -1.853750  3.225241  6.332204
C    -1.590350  3.814380  3.965812
C    -1.481082  4.139493  5.342092
H    -3.948052  -1.334527  3.552637
H    -3.668859  0.019751  2.480730
H    -3.474591  -1.070660  6.170023
H    -2.877349  0.860581  7.644900
H    -2.158908  2.340210  2.490155
H    -1.814777  3.496974  7.387511
H    -1.342673  4.571408  3.222143
H    -1.146329  5.134712  5.632239
N    -2.976650  -3.632544  2.375570
C    -3.567404  -4.786294  1.696826
H    -2.825011  -3.698199  3.376287
H    -3.665748  -4.545541  0.635085
H    -4.557626  -5.004704  2.113728
H    -2.923330  -5.666739  1.809641
Ba    0.609401  1.796981  4.869434
