37
Energy: -248499.362104 eV PBE+vdW (tier 2 basis)
C    -0.858310  -0.532213  -0.131812
C    -1.001160  0.212674  1.156837
O    -0.545532  -0.283799  2.233649
H    0.183189  -0.848890  -0.265881
H    -1.469311  -1.444041  -0.067672
H    -1.179916  0.042903  -1.006000
N    -1.604903  1.407314  1.125920
C    -2.139768  2.197918  2.248419
C    -1.057509  2.921204  3.051771
O    -0.226872  2.285078  3.771721
H    -1.972717  1.676405  0.217494
H    -2.755834  2.960615  1.755352
C    -3.109924  1.385941  3.165729
C    -4.140685  0.674049  2.361619
C    -4.259790  -0.692559  2.184748
C    -5.159268  1.290023  1.551429
N    -5.292586  -0.953358  1.319821
C    -5.868348  0.235709  0.911415
C    -5.559594  2.619184  1.316057
C    -6.944043  0.469608  0.051111
C    -6.625770  2.855837  0.458139
C    -7.307116  1.792754  -0.168680
H    -3.563561  2.113008  3.858496
H    -2.549700  0.670657  3.785867
H    -3.700759  -1.505483  2.637525
H    -5.638161  -1.876315  1.086763
H    -5.078116  3.457363  1.824545
H    -7.483708  -0.349062  -0.423673
H    -6.955955  3.877287  0.275229
H    -8.143259  2.013547  -0.830147
N    -1.073046  4.247270  3.021927
C    -0.181049  5.120968  3.783209
H    -1.746930  4.696223  2.407305
H    -0.742286  6.001339  4.112450
H    0.661062  5.445720  3.158378
H    0.198865  4.581617  4.654399
Ba    0.572854  0.061874  4.329059
