37
Energy: -248499.433312 eV PBE+vdW (tier 2 basis)
C    -1.876068  1.549957  0.816716
C    -1.264422  0.982927  2.055010
O    -0.243706  1.528051  2.574162
H    -1.218424  1.285658  -0.026577
H    -2.878143  1.160213  0.609258
H    -1.911077  2.643008  0.884508
N    -1.814532  -0.121165  2.576283
C    -1.295989  -1.011928  3.634175
C    -1.211531  -0.332515  5.009814
O    -0.239188  0.420212  5.317970
H    -2.591898  -0.505155  2.046934
H    -2.056494  -1.800395  3.705197
C    0.031022  -1.729794  3.256194
C    -0.040272  -2.428293  1.939296
C    -0.520119  -3.708257  1.717966
C    0.350154  -1.904100  0.656206
N    -0.462806  -3.992077  0.379771
C    0.067813  -2.917280  -0.304467
C    0.948416  -0.710024  0.211657
C    0.334617  -2.759052  -1.666964
C    1.219541  -0.548672  -1.141737
C    0.907518  -1.560163  -2.072467
H    0.253009  -2.434162  4.072084
H    0.864100  -1.006792  3.244960
H    -0.880514  -4.449224  2.424750
H    -0.724505  -4.877932  -0.036572
H    1.215290  0.083074  0.913026
H    0.113224  -3.547992  -2.384888
H    1.692995  0.366645  -1.495354
H    1.133280  -1.404264  -3.125964
N    -2.162989  -0.625939  5.887147
C    -2.217074  -0.129243  7.262187
H    -2.922702  -1.226542  5.579083
H    -2.697657  -0.884753  7.891124
H    -2.797081  0.801438  7.313612
H    -1.201306  0.053801  7.623051
Ba    1.426518  1.852729  4.258845
