37
Energy: -248499.610938 eV PBE+vdW (tier 2 basis)
C    -0.137713  2.797425  2.011635
C    -0.223325  1.510075  2.770879
O    0.847456  0.959503  3.214037
H    0.477155  2.644025  1.114276
H    -1.118194  3.176790  1.707474
H    0.364879  3.555775  2.626112
N    -1.413603  0.968901  2.951012
C    -1.754377  -0.318910  3.537557
C    -3.066149  -0.706434  2.780289
O    -3.694081  0.195758  2.222205
H    -2.254436  1.358684  2.483264
H    -0.943808  -1.035989  3.342383
C    -2.054603  -0.218051  5.061203
C    -0.938056  0.332323  5.888778
C    -0.889108  1.585658  6.460818
C    0.288632  -0.317437  6.254858
N    0.303299  1.764234  7.132375
C    1.050386  0.618025  7.041075
C    0.825781  -1.604164  6.030616
C    2.312121  0.298913  7.566918
C    2.079856  -1.926634  6.561686
C    2.818530  -0.982281  7.316375
H    -2.330809  -1.221708  5.417335
H    -2.948874  0.407290  5.188896
H    -1.634913  2.374598  6.451508
H    0.521672  2.565102  7.716275
H    0.257474  -2.356044  5.482309
H    2.865461  1.004760  8.187283
H    2.480058  -2.931733  6.429781
H    3.776500  -1.271450  7.747192
N    -3.438829  -1.995071  2.832893
C    -4.673428  -2.497169  2.229383
H    -2.829508  -2.664417  3.290096
H    -5.298373  -2.979156  2.990444
H    -4.444569  -3.219343  1.436491
H    -5.213556  -1.649359  1.799974
Ba    2.749056  0.158512  4.386319
