37
Energy: -248500.285462 eV PBE+vdW (tier 2 basis)
C    0.090438  1.200394  2.010527
C    -0.690046  0.057058  2.589119
O    -0.665378  -0.171125  3.824266
H    -0.019844  1.310035  0.926672
H    1.153323  1.055426  2.246954
H    -0.221979  2.132998  2.497766
N    -1.397812  -0.697645  1.724193
C    -2.185809  -1.925319  1.940082
C    -3.441039  -1.671427  2.796815
O    -3.391815  -1.249009  3.978761
H    -1.331004  -0.408643  0.753236
H    -2.540239  -2.158479  0.929039
C    -1.347541  -3.188461  2.393201
C    -1.595932  -3.722871  3.767563
C    -2.644876  -4.536985  4.147990
C    -0.850425  -3.448681  4.966831
N    -2.628411  -4.729869  5.510429
C    -1.554654  -4.067592  6.053392
C    0.351046  -2.757601  5.246015
C    -1.154312  -3.914598  7.388892
C    0.753834  -2.612656  6.573814
C    -0.004317  -3.163388  7.635839
H    -0.286927  -2.940874  2.259631
H    -1.563093  -3.977750  1.661684
H    -3.414096  -5.002321  3.539662
H    -3.256909  -5.343994  6.017211
H    0.954439  -2.339732  4.441784
H    -1.700877  -4.386040  8.205581
H    1.684997  -2.094286  6.800395
H    0.343884  -3.041543  8.660500
N    -4.606179  -1.959941  2.215208
C    -5.901231  -1.809858  2.877546
H    -4.605883  -2.247760  1.241837
H    -6.655924  -2.347152  2.296902
H    -6.184113  -0.751387  2.943188
H    -5.853078  -2.227752  3.888634
Ba    -1.832083  -0.787675  5.915031
