37
Energy: -248500.287193 eV PBE+vdW (tier 2 basis)
C    -1.387969  -0.805265  -0.626871
C    -1.327538  -1.092452  0.847534
O    -0.894630  -2.199074  1.248422
H    -1.959224  -1.602898  -1.118652
H    -0.369996  -0.841610  -1.037542
H    -1.834926  0.162351  -0.877993
N    -1.745885  -0.094690  1.660673
C    -1.906742  0.026549  3.120750
C    -0.613803  -0.179816  3.922762
O    0.157796  -1.157660  3.743805
H    -2.049926  0.733047  1.158022
H    -2.174523  1.081641  3.250608
C    -3.125731  -0.763133  3.711453
C    -3.177015  -2.228311  3.432615
C    -3.880907  -2.825286  2.407451
C    -2.470486  -3.285795  4.101925
N    -3.611103  -4.172997  2.366691
C    -2.742352  -4.495926  3.379220
C    -1.648566  -3.354233  5.249280
C    -2.146718  -5.720083  3.719066
C    -1.065508  -4.573766  5.595820
C    -1.294263  -5.740272  4.824976
H    -4.027101  -0.285834  3.303890
H    -3.145745  -0.567621  4.794624
H    -4.564550  -2.380796  1.691043
H    -4.053915  -4.834750  1.738350
H    -1.474428  -2.471481  5.863972
H    -2.361834  -6.632195  3.162404
H    -0.448488  -4.642389  6.491197
H    -0.836607  -6.680586  5.129226
N    -0.341972  0.713442  4.878552
C    -1.064953  1.936123  5.243770
H    0.511842  0.512129  5.396729
H    -1.080027  2.656242  4.415638
H    -0.535776  2.400223  6.080677
H    -2.088974  1.719994  5.571608
Ba    0.341545  -3.522821  2.935303
