37
Energy: -248499.242468 eV PBE+vdW (tier 2 basis)
C    1.769903  0.442388  0.875476
C    0.957105  0.288363  2.117622
O    1.465793  -0.204332  3.176795
H    1.193979  0.840342  0.033904
H    2.198318  -0.529186  0.596331
H    2.613173  1.116078  1.082098
N    -0.320334  0.682003  2.114589
C    -1.156139  0.635674  3.307484
C    -1.430923  -0.815475  3.738183
O    -0.960408  -1.165471  4.878786
H    -0.752876  1.061536  1.266156
H    -0.545857  1.017674  4.138550
C    -2.358289  1.629628  3.200512
C    -3.164240  1.611221  1.948094
C    -2.870647  2.286754  0.768662
C    -4.426060  0.953036  1.741916
N    -3.861479  2.050504  -0.149782
C    -4.833438  1.243126  0.411058
C    -5.255470  0.155014  2.551583
C    -6.024826  0.753166  -0.132479
C    -6.441160  -0.330690  2.016691
C    -6.818148  -0.037851  0.688623
H    -1.911738  2.624354  3.345187
H    -2.997935  1.457502  4.077231
H    -2.074044  2.992541  0.548273
H    -3.920991  2.484473  -1.063345
H    -4.990300  -0.065144  3.587137
H    -6.327555  0.989422  -1.151913
H    -7.104222  -0.935878  2.633319
H    -7.758442  -0.429800  0.304225
N    -2.054278  -1.720313  2.997463
C    -2.581775  -1.674436  1.634641
H    -2.149637  -2.620163  3.470021
H    -2.379419  -0.708353  1.171080
H    -3.668943  -1.816708  1.653520
H    -2.116097  -2.478901  1.052101
Ba    1.415396  -1.162099  5.424209
