37
Energy: -248499.140455 eV PBE+vdW (tier 2 basis)
C    -0.661134  -0.007711  -0.388280
C    -0.577133  0.112812  1.098764
O    0.480547  0.556745  1.651579
H    -1.636000  -0.363681  -0.737559
H    0.114595  -0.705212  -0.733819
H    -0.448034  0.965931  -0.848336
N    -1.629909  -0.260893  1.836026
C    -1.617634  -0.269092  3.295345
C    -2.030982  -1.596799  3.979299
O    -1.265688  -2.020609  4.842325
H    -2.446858  -0.604531  1.338449
H    -0.559023  -0.229102  3.558422
C    -2.313401  0.972322  3.962756
C    -1.336833  1.712730  4.821719
C    -1.034442  1.454970  6.144482
C    -0.416854  2.728806  4.393355
N    0.032460  2.228077  6.549006
C    0.450037  3.016361  5.507061
C    -0.233347  3.443229  3.187202
C    1.517226  3.921222  5.405895
C    0.825697  4.349619  3.089749
C    1.704772  4.570284  4.180413
H    -3.169408  0.641451  4.563843
H    -2.716323  1.628273  3.179787
H    -1.498694  0.755114  6.832353
H    0.393579  2.261188  7.497196
H    -0.910255  3.297385  2.345694
H    2.164561  4.137538  6.256108
H    0.962703  4.924170  2.173842
H    2.508423  5.298834  4.080642
N    -3.208947  -2.188346  3.669587
C    -4.233092  -1.768681  2.722437
H    -3.373821  -3.049470  4.186765
H    -5.201227  -2.161031  3.050680
H    -4.052765  -2.156903  1.706704
H    -4.334819  -0.675897  2.693659
Ba    2.083900  1.543475  3.174062
