37
Energy: -248499.317029 eV PBE+vdW (tier 2 basis)
C    -1.387611  -0.798341  -0.202294
C    -1.413768  -0.181573  1.156352
O    -0.660497  0.805576  1.439487
H    -1.652064  -0.032770  -0.944726
H    -0.367046  -1.131286  -0.433598
H    -2.073559  -1.645559  -0.299685
N    -2.245948  -0.679796  2.076514
C    -2.502369  -0.021108  3.356821
C    -1.277235  -0.066892  4.278854
O    -0.652449  1.026412  4.490403
H    -3.003433  -1.304682  1.769824
H    -2.646490  1.050850  3.151619
C    -3.842063  -0.546071  3.961663
C    -4.897669  -0.586628  2.907751
C    -5.460716  -1.725103  2.348651
C    -5.482498  0.541184  2.230792
N    -6.355707  -1.359277  1.376335
C    -6.397525  0.018833  1.275161
C    -5.348191  1.936593  2.353731
C    -7.160194  0.840925  0.441293
C    -6.104325  2.757068  1.526244
C    -6.995724  2.213895  0.578282
H    -4.111273  0.133250  4.783361
H    -3.712925  -1.540353  4.404118
H    -5.328720  -2.769184  2.616698
H    -6.954000  -2.000097  0.868558
H    -4.705381  2.375575  3.119882
H    -7.865565  0.427054  -0.278367
H    -6.031965  3.839604  1.622802
H    -7.581099  2.885682  -0.047480
N    -0.848232  -1.182186  4.855824
C    -1.337494  -2.557852  4.741037
H    -0.055433  -1.040294  5.481953
H    -2.041248  -2.793134  5.549376
H    -1.812314  -2.723213  3.771035
H    -0.478051  -3.231870  4.820377
Ba    0.309782  2.534766  2.828355
