37
Energy: -248499.015886 eV PBE+vdW (tier 2 basis)
C    -3.100387  -1.816816  -0.499377
C    -2.070577  -1.342784  0.476026
O    -0.832206  -1.438553  0.211152
H    -3.366822  -1.007164  -1.197295
H    -4.018539  -2.159887  -0.010843
H    -2.670510  -2.631910  -1.091411
N    -2.451457  -0.785408  1.645663
C    -3.565643  0.152245  1.756566
C    -3.166878  1.453158  1.001612
O    -2.020758  1.549308  0.437469
H    -1.684484  -0.618633  2.298351
H    -4.440756  -0.275181  1.248100
C    -3.932841  0.364356  3.254850
C    -5.118786  1.242431  3.508983
C    -6.449260  0.849351  3.510587
C    -5.103249  2.639485  3.878293
N    -7.241077  1.916876  3.836200
C    -6.458579  3.031181  4.068641
C    -4.086632  3.593947  4.075296
C    -6.820555  4.332190  4.431019
C    -4.443079  4.886194  4.438366
C    -5.795080  5.251564  4.609830
H    -3.052324  0.769576  3.779168
H    -4.103638  -0.641974  3.663238
H    -6.886116  -0.128299  3.332600
H    -8.249151  1.880677  3.934125
H    -3.033738  3.324889  3.970986
H    -7.862550  4.613374  4.579048
H    -3.668153  5.631411  4.613504
H    -6.037968  6.272035  4.901361
N    -4.062550  2.415359  0.974810
C    -3.888624  3.753411  0.420767
H    -4.883564  2.263615  1.576867
H    -4.735274  3.988095  -0.234397
H    -2.958520  3.802385  -0.149335
H    -3.863675  4.479223  1.244887
Ba    0.166569  0.755821  -0.307743
