37
Energy: -248499.469264 eV PBE+vdW (tier 2 basis)
C    0.319945  0.681560  0.284042
C    0.162253  0.369480  1.743017
O    1.117340  0.356740  2.533831
H    -0.592863  0.528391  -0.302177
H    1.130716  0.070438  -0.129297
H    0.629231  1.731620  0.187883
N    -1.106132  0.091945  2.190300
C    -1.433448  0.042537  3.614023
C    -1.013655  -1.306626  4.255111
O    -1.838167  -2.083251  4.853810
H    -1.870384  0.090729  1.522558
H    -0.796739  0.798848  4.105357
C    -2.911403  0.422990  3.807257
C    -3.368216  0.480063  5.234280
C    -2.838637  1.215969  6.275200
C    -4.443954  -0.285726  5.798256
N    -3.490433  0.911899  7.454098
C    -4.471995  -0.013994  7.209367
C    -5.385784  -1.195002  5.261097
C    -5.341627  -0.689267  8.080306
C    -6.257324  -1.859230  6.128550
C    -6.220545  -1.624097  7.525800
H    -3.543566  -0.288720  3.256306
H    -3.055922  1.399995  3.322689
H    -2.035797  1.946716  6.273262
H    -3.323715  1.375091  8.341652
H    -5.445575  -1.366899  4.185603
H    -5.355415  -0.477446  9.149706
H    -7.003976  -2.542843  5.724904
H    -6.923756  -2.144971  8.174200
N    0.268101  -1.584623  4.161899
C    0.894309  -2.802280  4.657301
H    0.831964  -0.862887  3.639540
H    0.942162  -2.801709  5.755325
H    1.915304  -2.848427  4.269075
H    0.343979  -3.688718  4.318475
Ba    -3.333074  -2.940134  6.516412
