37
Energy: -248500.219303 eV PBE+vdW (tier 2 basis)
C    -0.204159  0.695998  2.157654
C    -1.131800  -0.348485  2.702661
O    -1.532070  -0.285550  3.888934
H    -0.690848  1.677319  2.236893
H    0.093640  0.528971  1.117381
H    0.693939  0.734259  2.788275
N    -1.498278  -1.340272  1.863765
C    -2.394982  -2.497888  2.067779
C    -3.805515  -2.087346  2.537427
O    -4.058032  -1.774449  3.727703
H    -1.109227  -1.274633  0.928135
H    -2.511090  -2.894294  1.050350
C    -1.788531  -3.697430  2.859404
C    -1.670231  -3.684261  4.356784
C    -2.551316  -4.304879  5.226591
C    -0.579207  -3.187985  5.170362
N    -2.108382  -4.168072  6.531875
C    -0.876411  -3.518640  6.527742
C    0.615127  -2.489442  4.892666
C    -0.040333  -3.165477  7.596035
C    1.446822  -2.143669  5.946742
C    1.122404  -2.472989  7.281834
H    -0.794305  -3.878082  2.424752
H    -2.395208  -4.569438  2.575230
H    -3.462340  -4.854692  5.011213
H    -2.470401  -4.707848  7.312719
H    0.890761  -2.243796  3.867881
H    -0.272294  -3.446891  8.622897
H    2.380334  -1.619974  5.746349
H    1.808800  -2.195002  8.080201
N    -4.764513  -2.112822  1.612162
C    -6.160048  -1.769279  1.888701
H    -4.519878  -2.368485  0.661023
H    -6.750785  -1.967272  0.990716
H    -6.250295  -0.708712  2.154144
H    -6.543330  -2.377854  2.715766
Ba    -2.752018  -1.228642  5.811252
