37
Energy: -248499.258269 eV PBE+vdW (tier 2 basis)
C    -0.124917  0.550976  0.425638
C    -0.257390  0.204140  1.873952
O    0.768726  0.200886  2.628857
H    0.544620  -0.175606  -0.055333
H    -1.081852  0.554321  -0.106824
H    0.344607  1.538055  0.326081
N    -1.466777  -0.112152  2.347044
C    -1.724608  -0.533473  3.721892
C    -2.388193  -1.923601  3.911381
O    -1.829190  -2.670486  4.712482
H    -2.239705  -0.085933  1.687390
H    -0.736368  -0.735261  4.139166
C    -2.374233  0.580211  4.588684
C    -1.342254  1.572743  5.020396
C    -1.205452  2.891393  4.646555
C    -0.227750  1.284629  5.882121
N    -0.058812  3.429759  5.198080
C    0.568165  2.479573  5.962769
C    0.166674  0.146143  6.623334
C    1.752684  2.533524  6.714371
C    1.339079  0.207785  7.384775
C    2.129233  1.383693  7.419384
H    -2.826271  0.097358  5.467735
H    -3.191152  1.073775  4.046947
H    -1.852907  3.504631  4.027640
H    0.205113  4.407875  5.139948
H    -0.440879  -0.761233  6.621313
H    2.340612  3.448922  6.787763
H    1.632713  -0.649158  7.990962
H    3.022116  1.410615  8.043196
N    -3.533363  -2.243596  3.267917
C    -4.326037  -1.450204  2.338770
H    -3.863818  -3.182635  3.480993
H    -5.359125  -1.812030  2.359711
H    -4.362314  -0.394362  2.636359
H    -3.970991  -1.538957  1.299332
Ba    2.329929  0.237650  4.474075
