37
Energy: -248499.444872 eV PBE+vdW (tier 2 basis)
C    0.131496  -0.310651  0.027505
C    0.105852  -0.084025  1.507696
O    1.203878  0.098008  2.143699
H    0.714376  -1.217935  -0.182617
H    -0.868048  -0.426031  -0.402919
H    0.640526  0.526286  -0.469046
N    -1.064718  -0.076977  2.116292
C    -1.373005  -0.058069  3.541316
C    -2.740739  -0.815043  3.587186
O    -3.373966  -0.923353  2.534063
H    -1.935617  -0.321381  1.600190
H    -0.592417  -0.598330  4.093102
C    -1.556303  1.376601  4.126290
C    -0.317867  2.043797  4.643146
C    0.102797  2.047473  5.958805
C    0.625870  2.859689  3.928793
N    1.262101  2.782438  6.096393
C    1.611741  3.308038  4.877228
C    0.742145  3.280982  2.585243
C    2.702408  4.109949  4.503912
C    1.829341  4.074142  2.211639
C    2.805346  4.477280  3.158634
H    -2.279914  1.316665  4.949377
H    -2.039834  1.995385  3.357675
H    -0.358743  1.592248  6.829867
H    1.699132  3.010305  6.983730
H    -0.012512  3.000930  1.850562
H    3.428581  4.462730  5.236874
H    1.913477  4.424535  1.183201
H    3.623579  5.123106  2.842203
N    -3.181954  -1.290838  4.765926
C    -2.544863  -1.248822  6.074002
H    -4.103058  -1.721452  4.707807
H    -2.787231  -2.167467  6.619250
H    -2.891019  -0.393006  6.672771
H    -1.454142  -1.203444  5.977883
Ba    3.065115  1.318491  2.967341
