37
Energy: -248499.283865 eV PBE+vdW (tier 2 basis)
C    1.180082  -3.189713  -0.354007
C    0.547766  -2.798692  0.943991
O    0.376146  -3.666367  1.855510
H    1.432654  -2.335754  -0.990948
H    0.467780  -3.829054  -0.895949
H    2.079436  -3.788784  -0.169835
N    0.191291  -1.516416  1.101143
C    -0.740560  -0.925140  2.072781
C    -0.159238  -0.732895  3.466094
O    0.339474  -1.705337  4.120232
H    0.342289  -0.935778  0.280800
H    -0.953706  0.062802  1.652100
C    -2.119276  -1.672215  2.145411
C    -2.673772  -1.904190  0.785179
C    -2.849578  -3.125396  0.159149
C    -3.057976  -0.890585  -0.162838
N    -3.324793  -2.923735  -1.111648
C    -3.466481  -1.567826  -1.345419
C    -3.117360  0.515704  -0.131776
C    -3.920116  -0.890214  -2.479541
C    -3.562431  1.193796  -1.259442
C    -3.956857  0.497819  -2.419825
H    -2.782510  -1.037039  2.754627
H    -2.009315  -2.623116  2.686076
H    -2.698923  -4.130614  0.539816
H    -3.617508  -3.656376  -1.746736
H    -2.860101  1.076898  0.769165
H    -4.240287  -1.424208  -3.373537
H    -3.625425  2.280883  -1.247089
H    -4.308513  1.059818  -3.283472
N    -0.261880  0.458424  4.042978
C    -0.801166  1.705284  3.486645
H    0.072493  0.490794  5.005547
H    -0.279872  1.985874  2.563879
H    -0.637518  2.497842  4.221786
H    -1.879655  1.626099  3.301940
Ba    0.676756  -4.098547  4.199826
