37
Energy: -248499.706962 eV PBE+vdW (tier 2 basis)
C    -0.068066  -1.500401  0.197998
C    -0.975921  -0.758258  1.123505
O    -1.352237  0.417471  0.868973
H    0.132372  -2.528700  0.516472
H    -0.512257  -1.510654  -0.805842
H    0.883875  -0.957762  0.119279
N    -1.388418  -1.383958  2.254172
C    -2.303192  -0.718935  3.168403
C    -1.569321  0.137859  4.218890
O    -1.504393  1.377691  3.967860
H    -1.068446  -2.331972  2.430238
H    -2.707250  0.064874  2.531155
C    -3.596477  -1.506620  3.548165
C    -4.652422  -1.014793  2.596236
C    -5.169394  -1.639891  1.482106
C    -5.042648  0.368034  2.497071
N    -5.832588  -0.724340  0.692420
C    -5.749997  0.521505  1.263047
C    -4.875268  1.495057  3.331599
C    -6.191985  1.769753  0.811058
C    -5.339939  2.740083  2.891008
C    -5.963163  2.878280  1.628883
H    -3.866219  -1.295563  4.593137
H    -3.452778  -2.592052  3.471377
H    -5.106677  -2.680581  1.180295
H    -6.337165  -0.951311  -0.157474
H    -4.445234  1.395499  4.329520
H    -6.723916  1.876780  -0.134095
H    -5.281776  3.604726  3.554376
H    -6.330368  3.855043  1.316708
N    -1.026786  -0.377175  5.314712
C    -0.978243  -1.773952  5.737137
H    -0.561845  0.302219  5.918227
H    0.062685  -2.117972  5.779197
H    -1.425925  -1.879013  6.732662
H    -1.534299  -2.407148  5.041206
Ba    -2.377771  2.538663  1.828358
