37
Energy: -248499.479968 eV PBE+vdW (tier 2 basis)
C    0.533908  -1.315468  5.290717
C    0.077764  -0.794176  3.964912
O    0.830746  -0.879097  2.945939
H    -0.172528  -1.117834  6.103572
H    0.678416  -2.402058  5.203643
H    1.509814  -0.883465  5.544918
N    -1.143894  -0.252556  3.883927
C    -1.881267  0.124083  2.662565
C    -1.442560  1.529060  2.193777
O    -0.254185  1.666630  1.743178
H    -1.685834  -0.222588  4.745092
H    -1.547617  -0.553692  1.861394
C    -3.385235  -0.127366  2.930274
C    -4.315550  0.296478  1.838191
C    -4.518850  -0.309314  0.611991
C    -5.167510  1.456445  1.871988
N    -5.425718  0.421170  -0.114549
C    -5.842889  1.512512  0.619754
C    -5.431798  2.454333  2.834407
C    -6.747293  2.528957  0.303300
C    -6.323723  3.472762  2.514991
C    -6.969793  3.509853  1.263292
H    -3.670430  0.383553  3.865113
H    -3.482025  -1.204026  3.137791
H    -4.106261  -1.229585  0.210737
H    -5.787795  0.157249  -1.022962
H    -4.998935  2.410621  3.837442
H    -7.266902  2.551451  -0.654025
H    -6.552540  4.239443  3.253799
H    -7.672878  4.313635  1.051347
N    -2.266358  2.550061  2.260595
C    -1.933679  3.903604  1.819479
H    -3.255564  2.380687  2.483578
H    -1.087138  4.297205  2.393682
H    -2.811736  4.533651  1.984658
H    -1.679129  3.911144  0.752176
Ba    1.799970  0.512637  1.221319
