37
Energy: -248499.432041 eV PBE+vdW (tier 2 basis)
C    -1.321316  2.791476  1.250025
C    -1.540084  1.693082  2.239956
O    -1.584975  1.947183  3.489044
H    -1.245830  2.427611  0.220285
H    -0.409932  3.346015  1.507237
H    -2.158815  3.499831  1.321310
N    -1.696382  0.455201  1.775827
C    -2.087322  -0.731889  2.539067
C    -0.869433  -1.302786  3.301117
O    -0.508481  -0.738795  4.382591
H    -1.708225  0.308993  0.756667
H    -2.767351  -0.397995  3.337075
C    -2.865893  -1.725215  1.603265
C    -2.852878  -1.408313  0.139780
C    -3.993365  -1.195310  -0.616279
C    -1.733960  -1.329443  -0.775479
N    -3.652452  -0.999556  -1.924967
C    -2.282273  -1.068739  -2.067203
C    -0.331750  -1.440658  -0.660403
C    -1.491912  -0.931472  -3.210365
C    0.456909  -1.304382  -1.796303
C    -0.116613  -1.054636  -3.058014
H    -3.908389  -1.731173  1.943830
H    -2.512864  -2.751600  1.791636
H    -5.033776  -1.197185  -0.307033
H    -4.311338  -0.854232  -2.681039
H    0.154556  -1.625702  0.298281
H    -1.935902  -0.741150  -4.186865
H    1.538949  -1.397772  -1.715094
H    0.529478  -0.959242  -3.928977
N    -0.237296  -2.356177  2.816606
C    0.932011  -3.002778  3.407414
H    -0.599717  -2.757461  1.953871
H    1.172719  -2.517991  4.355525
H    1.785392  -2.921156  2.722753
H    0.714799  -4.063408  3.580330
Ba    -0.829291  1.310821  5.670527
