37
Energy: -248499.642187 eV PBE+vdW (tier 2 basis)
C    0.452009  0.681056  0.375528
C    0.124065  0.336646  1.792399
O    0.985347  0.505907  2.714691
H    0.661006  1.758482  0.315116
H    -0.353700  0.435323  -0.323647
H    1.368793  0.159938  0.071704
N    -1.092360  -0.137569  2.068735
C    -1.621449  -0.420640  3.404469
C    -1.042377  -1.756688  3.911939
O    0.039518  -1.725998  4.589242
H    -1.754422  -0.317767  1.304684
H    -1.216890  0.339359  4.088535
C    -3.170846  -0.263651  3.384199
C    -3.884836  -0.998565  2.291612
C    -4.072568  -0.550950  0.989805
C    -4.518624  -2.293432  2.371202
N    -4.747208  -1.502603  0.268000
C    -5.038296  -2.581262  1.075856
C    -4.758336  -3.213779  3.415993
C    -5.734353  -3.759346  0.789626
C    -5.452485  -4.382414  3.132503
C    -5.924877  -4.656468  1.832001
H    -3.361661  0.815946  3.301350
H    -3.551967  -0.562666  4.370500
H    -3.851673  0.418001  0.549851
H    -5.062926  -1.390152  -0.688267
H    -4.449372  -2.999289  4.440747
H    -6.128093  -3.960088  -0.206058
H    -5.662823  -5.090697  3.932691
H    -6.470972  -5.580217  1.647985
N    -1.648829  -2.884561  3.610946
C    -1.208876  -4.212598  4.031070
H    -2.527706  -2.833954  3.077636
H    -0.477663  -4.621583  3.321337
H    -2.085768  -4.866836  4.052620
H    -0.758791  -4.162920  5.027235
Ba    2.034663  -0.346274  4.719765
