37
Energy: -248499.348868 eV PBE+vdW (tier 2 basis)
C    -1.994739  1.292661  0.800116
C    -1.436537  0.764708  2.079821
O    -0.484172  1.362931  2.663720
H    -2.952529  0.839472  0.524119
H    -1.264107  1.075230  0.005172
H    -2.105493  2.381075  0.864169
N    -1.957840  -0.366396  2.575291
C    -1.445834  -1.189865  3.687045
C    -1.435440  -0.422961  5.019981
O    -0.405201  0.218620  5.391807
H    -2.661561  -0.815316  1.996262
H    -2.181136  -1.998086  3.778424
C    -0.085540  -1.877396  3.389272
C    -0.054229  -2.574321  2.070464
C    -0.476363  -3.866656  1.809151
C    0.414976  -2.031025  0.822807
N    -0.309519  -4.140475  0.477799
C    0.238759  -3.046606  -0.160425
C    1.006280  -0.816133  0.428734
C    0.605575  -2.871829  -1.497359
C    1.378062  -0.637759  -0.898332
C    1.171502  -1.653814  -1.853073
H    0.107239  -2.573609  4.219066
H    0.735529  -1.140415  3.424657
H    -0.865422  -4.622549  2.484113
H    -0.513470  -5.030945  0.039432
H    1.182633  -0.013300  1.149136
H    0.464766  -3.662479  -2.233487
H    1.845617  0.294898  -1.212115
H    1.473014  -1.484884  -2.885372
N    -2.503338  -0.479578  5.806459
C    -3.780825  -1.156912  5.560877
H    -2.400934  0.007407  6.696635
H    -4.206700  -0.859974  4.595838
H    -4.478841  -0.852927  6.345790
H    -3.669592  -2.247859  5.606750
Ba    1.273410  1.607068  4.290256
