37
Energy: -248499.766098 eV PBE+vdW (tier 2 basis)
C    -3.370189  -3.188987  1.815845
C    -2.755601  -1.892718  2.231991
O    -1.763354  -1.412261  1.618843
H    -2.618238  -3.985321  1.900105
H    -3.650192  -3.126545  0.756050
H    -4.249609  -3.463722  2.407494
N    -3.292009  -1.238668  3.289240
C    -2.767711  0.050737  3.715461
C    -1.620031  -0.096981  4.731817
O    -0.447139  -0.094468  4.259137
H    -4.093578  -1.650527  3.758857
H    -2.225762  0.379175  2.829031
C    -3.824716  1.182169  3.890139
C    -3.830086  1.929498  2.584453
C    -4.788250  1.943770  1.593527
C    -2.649596  2.519142  2.009590
N    -4.264505  2.487644  0.440653
C    -2.948768  2.823642  0.645287
C    -1.365317  2.827224  2.509809
C    -1.984817  3.330046  -0.231709
C    -0.403909  3.349856  1.634829
C    -0.704973  3.567776  0.271343
H    -3.529574  1.838471  4.722404
H    -4.817275  0.783427  4.137478
H    -5.816060  1.595981  1.618855
H    -4.786166  2.642220  -0.415045
H    -1.142848  2.740516  3.575777
H    -2.223508  3.554229  -1.271113
H    0.564281  3.672237  2.023813
H    0.054522  3.991797  -0.383982
N    -1.889590  -0.220783  6.025187
C    -0.890468  -0.387708  7.081871
H    -2.865129  -0.187538  6.309931
H    -1.056556  -1.337884  7.603301
H    -0.969807  0.435676  7.801434
H    0.103985  -0.387056  6.630069
Ba    0.156545  0.214934  1.765227
