37
Energy: -248500.387211 eV PBE+vdW (tier 2 basis)
C    -4.359693  -1.376048  0.521514
C    -3.372310  -0.731233  1.452284
O    -2.657823  -1.442201  2.199316
H    -3.815598  -2.024568  -0.178281
H    -5.025488  -2.024489  1.105213
H    -4.963959  -0.665729  -0.052434
N    -3.304772  0.618447  1.408452
C    -2.506603  1.595107  2.175365
C    -0.988438  1.339408  2.110456
O    -0.422498  0.365120  2.666239
H    -3.940340  1.044076  0.740825
H    -2.671526  2.534644  1.631447
C    -3.050222  1.877268  3.615892
C    -3.289946  0.699044  4.501033
C    -4.466942  -0.016338  4.589574
C    -2.359001  0.046016  5.380748
N    -4.303258  -1.101844  5.418472
C    -3.023052  -1.108344  5.915370
C    -1.034155  0.316225  5.793104
C    -2.370162  -2.026588  6.751938
C    -0.388548  -0.590014  6.634531
C    -1.041992  -1.761717  7.090338
H    -3.995197  2.421246  3.480051
H    -2.360918  2.592547  4.088882
H    -5.425789  0.172788  4.117389
H    -5.042274  -1.741077  5.690633
H    -0.520898  1.217999  5.461300
H    -2.884991  -2.901078  7.149779
H    0.625616  -0.382515  6.974455
H    -0.514686  -2.443312  7.756269
N    -0.279871  2.257736  1.452301
C    1.176187  2.215023  1.320066
H    -0.770932  3.022586  1.000905
H    1.479878  1.416379  0.631420
H    1.637050  2.038738  2.298114
H    1.518433  3.175939  0.927025
Ba    -0.750281  -1.887241  3.723013
