37
Energy: -248498.885116 eV PBE+vdW (tier 2 basis)
C    -1.989372  -0.093844  -0.746612
C    -0.974162  0.045024  0.340181
O    0.273876  0.003685  0.083794
H    -1.618334  -0.845934  -1.454351
H    -2.973289  -0.399042  -0.373139
H    -2.090253  0.845666  -1.311477
N    -1.366202  0.216792  1.618604
C    -2.447096  1.105677  2.013785
C    -1.890691  2.549311  2.007387
O    -0.725818  2.800858  1.551173
H    -0.631678  0.083519  2.314490
H    -3.226239  1.047263  1.238933
C    -3.083636  0.641409  3.354925
C    -3.516315  -0.778152  3.243297
C    -3.034286  -1.852295  3.970108
C    -4.460664  -1.305621  2.294435
N    -3.622358  -3.005471  3.522647
C    -4.498360  -2.714042  2.493406
C    -5.290740  -0.737517  1.308789
C    -5.313740  -3.556327  1.734902
C    -6.098125  -1.574029  0.545613
C    -6.105065  -2.967153  0.754470
H    -3.941244  1.298789  3.577974
H    -2.364537  0.776407  4.177264
H    -2.328993  -1.872822  4.794926
H    -3.480228  -3.923846  3.925496
H    -5.353851  0.344350  1.169327
H    -5.339112  -4.631827  1.906892
H    -6.757309  -1.147733  -0.209338
H    -6.757627  -3.593308  0.148240
N    -2.660172  3.512654  2.487367
C    -2.287002  4.928183  2.539303
H    -3.568792  3.249869  2.860020
H    -3.130995  5.492332  2.944086
H    -2.057655  5.299887  1.533872
H    -1.415562  5.072923  3.189037
Ba    1.402930  2.145080  0.484313
