37
Energy: -248499.321164 eV PBE+vdW (tier 2 basis)
C    -0.527772  0.453606  -0.046570
C    -0.271662  0.265969  1.416059
O    0.883757  -0.064752  1.820331
H    -0.347107  -0.503574  -0.556187
H    -1.544126  0.789820  -0.275963
H    0.191972  1.174014  -0.455710
N    -1.295734  0.457361  2.260344
C    -1.400900  0.164551  3.705636
C    -0.609298  1.148516  4.575475
O    0.663572  1.172746  4.531964
H    -2.171665  0.719332  1.816864
H    -2.463839  0.308255  3.926166
C    -1.074199  -1.299774  4.105721
C    -1.485987  -1.548028  5.519459
C    -0.666123  -1.773543  6.609178
C    -2.839905  -1.546816  6.013449
N    -1.430280  -1.900578  7.741806
C    -2.766698  -1.765755  7.417225
C    -4.105781  -1.401664  5.412433
C    -3.904197  -1.823149  8.227465
C    -5.237786  -1.455232  6.215445
C    -5.136550  -1.658649  7.607237
H    -0.005530  -1.518948  3.964625
H    -1.617080  -1.953836  3.405479
H    0.412184  -1.887971  6.660812
H    -1.075605  -2.133004  8.661457
H    -4.212478  -1.284955  4.332018
H    -3.832377  -1.999543  9.300132
H    -6.224347  -1.357171  5.764906
H    -6.044993  -1.702386  8.205768
N    -1.255056  1.954322  5.401852
C    -2.700157  2.066840  5.644552
H    -0.647089  2.543262  5.970623
H    -2.847101  2.820798  6.422297
H    -3.115517  1.113503  5.993106
H    -3.225933  2.403424  4.742857
Ba    2.627387  0.284010  3.439687
