37
Energy: -248499.564417 eV PBE+vdW (tier 2 basis)
C    0.561567  0.125912  0.314975
C    0.125021  -0.180311  1.718430
O    0.833280  -0.718444  2.567585
H    -0.268220  0.374226  -0.356398
H    1.115103  -0.731063  -0.084870
H    1.258641  0.975448  0.339665
N    -1.178946  0.166117  2.067348
C    -1.500454  0.071288  3.473780
C    -1.552050  -1.393823  3.932154
O    -1.181200  -1.694608  5.111856
H    -1.715531  0.788427  1.469651
H    -0.656196  0.493465  4.043593
C    -2.788057  0.845153  3.850434
C    -3.057038  0.759965  5.321828
C    -4.122580  0.138282  5.935013
C    -2.183044  1.188038  6.380072
N    -3.947019  0.122675  7.302974
C    -2.765466  0.742240  7.617328
C    -0.969117  1.912318  6.426613
C    -2.127916  0.932798  8.852761
C    -0.341804  2.116798  7.659942
C    -0.904863  1.612997  8.858172
H    -3.647434  0.454969  3.287688
H    -2.649470  1.892850  3.540340
H    -5.008497  -0.306215  5.492434
H    -4.633309  -0.213385  7.970592
H    -0.537453  2.338062  5.520270
H    -2.582236  0.597242  9.785423
H    0.574562  2.704790  7.708533
H    -0.405352  1.804858  9.807085
N    -2.031576  -2.287806  3.088633
C    -2.133389  -3.722817  3.333460
H    -2.217364  -1.943465  2.147246
H    -3.032719  -4.107775  2.842125
H    -2.200197  -3.905111  4.408952
H    -1.254289  -4.242355  2.929581
Ba    -0.011385  -0.910744  7.064731
