37
Energy: -248500.188714 eV PBE+vdW (tier 2 basis)
C    -0.592445  1.296205  0.243862
C    -0.296922  0.683093  1.581400
O    0.789465  0.085601  1.780145
H    -0.549116  0.508968  -0.520808
H    0.192957  2.023294  0.000129
H    -1.566792  1.792580  0.187551
N    -1.249364  0.804808  2.528940
C    -1.341575  0.262727  3.895637
C    -0.304008  0.876729  4.848529
O    0.929542  0.859695  4.600180
H    -2.078323  1.308028  2.228908
H    -2.324414  0.617625  4.220078
C    -1.408052  -1.315290  4.003840
C    -0.232363  -2.012799  4.611482
C    0.020587  -2.148204  5.962889
C    0.887845  -2.613234  3.936277
N    1.247880  -2.736999  6.162249
C    1.820315  -3.023548  4.946932
C    1.204570  -2.867033  2.582089
C    3.077006  -3.561832  4.633204
C    2.451136  -3.409943  2.270216
C    3.387326  -3.730862  3.283229
H    -1.614183  -1.700448  2.997129
H    -2.301957  -1.544938  4.598391
H    -0.593787  -1.867229  6.812454
H    1.625699  -3.000039  7.066147
H    0.492855  -2.639706  1.790384
H    3.777576  -3.865236  5.411075
H    2.700918  -3.621844  1.231105
H    4.347406  -4.163922  3.006224
N    -0.749071  1.405201  5.990875
C    -2.128489  1.562548  6.463334
H    -0.012219  1.784697  6.583603
H    -2.688821  2.273466  5.842766
H    -2.091448  1.961782  7.480780
H    -2.655076  0.601283  6.500139
Ba    2.714338  -0.336217  3.268638
