37
Energy: -248499.298535 eV PBE+vdW (tier 2 basis)
C    -0.580863  0.774714  -0.353568
C    -0.897118  0.358340  1.047147
O    -0.272805  0.869257  2.032136
H    -1.199031  0.270421  -1.103740
H    -0.714908  1.860054  -0.452367
H    0.476190  0.559863  -0.562315
N    -1.840806  -0.568254  1.248048
C    -2.237605  -1.050924  2.569617
C    -2.573461  -2.566931  2.651112
O    -3.211544  -2.949202  3.625115
H    -2.374993  -0.878569  0.438564
H    -1.341774  -0.939441  3.196869
C    -3.390926  -0.212129  3.206262
C    -2.971926  0.435833  4.487251
C    -2.860963  -0.177158  5.721561
C    -2.525391  1.786535  4.671495
N    -2.339723  0.705133  6.645444
C    -2.109958  1.917374  6.045233
C    -2.428971  2.913639  3.821746
C    -1.535269  3.098047  6.539332
C    -1.859949  4.089747  4.317020
C    -1.397491  4.174010  5.655251
H    -4.233143  -0.888360  3.393448
H    -3.725797  0.545519  2.486756
H    -3.121127  -1.194368  6.000327
H    -2.234802  0.507467  7.635726
H    -2.799823  2.870672  2.797576
H    -1.227464  3.190542  7.581218
H    -1.799665  4.971544  3.679386
H    -0.977667  5.111442  6.017693
N    -2.107276  -3.367251  1.666724
C    -2.306777  -4.816518  1.685780
H    -1.476414  -2.986641  0.970646
H    -3.223568  -5.034556  2.241008
H    -1.467855  -5.328054  2.176088
H    -2.404954  -5.182241  0.658678
Ba    0.381618  1.983442  4.092731
