21
Energy: -109016.5968491  eV PBE+vdW (tier 2 basis)
N    -0.512587  0.004539  0.228005
C    -0.050509  -0.213221  1.586416
C    1.476270  -0.442782  1.661786
O    2.117029  -0.880159  0.735368
H    -0.473908  0.991205  -0.024621
H    0.099811  -0.492763  -0.425586
H    -0.300256  0.655401  2.211963
C    -0.727132  -1.485701  2.183094
C    -2.236735  -1.285664  2.156915
S    -3.170274  -2.871730  2.347289
C    -2.839186  -3.775627  0.795955
H    -0.365602  -1.680751  3.200382
H    -0.429584  -2.334447  1.550226
H    -2.532091  -0.828576  1.200789
H    -2.580400  -0.660696  2.994315
H    -1.781403  -4.059568  0.797010
H    -3.070945  -3.156452  -0.076351
H    -3.440439  -4.692167  0.804029
O    1.961620  -0.126824  2.876380
H    2.926026  -0.300274  2.875998
Sr    -5.945257  -2.547845  2.744570
