21
Energy: -109019.2715145  eV PBE+vdW (tier 2 basis)
N    -0.596652  1.830609  1.358969
C    -0.448247  1.125920  2.684249
C    0.896094  1.488377  3.316757
O    1.114151  1.149599  4.524197
H    -1.022867  2.759201  1.453441
H    -1.226680  1.189008  0.702340
H    -1.246005  1.491153  3.346305
C    -0.585790  -0.404736  2.523375
C    -1.933353  -0.863439  1.951504
S    -2.017625  -0.509164  0.148131
C    -3.805897  -0.423577  -0.145172
H    -0.461381  -0.835330  3.526423
H    0.242288  -0.794557  1.909359
H    -2.772054  -0.362025  2.455858
H    -2.048586  -1.943700  2.101531
H    -4.252748  -1.402129  0.060932
H    -3.926919  -0.193319  -1.209663
H    -4.279520  0.356876  0.459680
O    1.780569  2.094489  2.615235
H    0.330555  1.958743  0.927229
Sr    3.279976  2.056769  4.481620
