21
Energy: -109018.8822623  eV PBE+vdW (tier 2 basis)
N    -0.023464  -0.328233  0.417405
C    0.385124  -0.496383  1.870370
C    1.889600  -0.353730  1.939564
O    2.518946  0.128945  0.922366
H    -0.910431  0.186722  0.331650
H    -0.137320  -1.234840  -0.056846
H    -0.073971  0.367926  2.422012
C    -0.231152  -1.734399  2.531448
C    -0.522506  -1.470409  4.025123
S    -1.455968  0.057289  4.330692
C    -3.154503  -0.443434  3.924145
H    0.414773  -2.616866  2.414555
H    -1.181757  -1.960687  2.023065
H    0.413612  -1.361582  4.586733
H    -1.060347  -2.325933  4.452443
H    -3.483008  -1.235916  4.605941
H    -3.269756  -0.764095  2.882636
H    -3.774882  0.444786  4.089391
O    2.500214  -0.644714  3.017967
H    0.732160  0.192213  -0.067968
Sr    4.555052  0.124886  2.183105
