21
Energy: -109016.6387686  eV PBE+vdW (tier 2 basis)
N    0.271238  -0.113913  -0.097791
C    -0.148626  0.145127  1.253659
C    0.971544  0.571839  2.237948
O    1.042682  0.188329  3.393288
H    1.053483  -0.759700  -0.187377
H    0.441017  0.720459  -0.653704
H    -0.847815  0.998988  1.217303
C    -0.888491  -1.097927  1.818670
C    -1.743525  -0.760730  3.042213
S    -2.035462  -2.257266  4.092739
C    -0.433476  -2.492228  4.937585
H    -0.133757  -1.857642  2.065288
H    -1.514756  -1.508109  1.018151
H    -2.742550  -0.404460  2.754828
H    -1.261727  -0.027136  3.698560
H    -0.518323  -3.381095  5.573294
H    -0.155819  -1.604343  5.513115
H    0.321311  -2.683435  4.167589
O    1.833682  1.417902  1.664839
H    2.510201  1.674488  2.324926
Sr    -4.104470  -2.119518  6.013484
