21
Energy: -109018.6333786  eV PBE+vdW (tier 2 basis)
N    0.145979  0.308782  0.032817
C    0.100025  0.161547  1.550973
C    1.547578  0.025187  2.020341
O    2.454705  -0.256660  1.154314
H    0.119315  1.290930  -0.273305
H    -0.639883  -0.183810  -0.413767
H    -0.339569  1.078283  1.965962
C    -0.760257  -1.069529  1.937051
C    -1.151375  -1.123081  3.422171
S    -1.976584  -2.674861  3.871784
C    -3.644460  -2.428364  3.201575
H    -0.236741  -1.995309  1.654244
H    -1.680971  -1.021127  1.332295
H    -1.783935  -0.263239  3.689764
H    -0.262946  -1.082166  4.064787
H    -3.664232  -2.401012  2.105822
H    -4.108851  -1.530156  3.625760
H    -4.217998  -3.303383  3.529485
O    1.817089  0.147843  3.254370
H    1.042726  -0.102414  -0.292726
Sr    4.090074  -0.372311  2.926576
