21
Energy: -109017.9966599  eV PBE+vdW (tier 2 basis)
N    0.014714  0.902905  0.496851
C    0.038116  0.097255  1.767724
C    1.479164  -0.018011  2.243131
O    2.404499  0.603302  1.669322
H    -0.113466  0.239101  -0.277681
H    -0.855430  1.445447  0.489260
H    -0.492845  0.686817  2.537378
C    -0.672462  -1.275488  1.641854
C    -2.184561  -1.162417  1.377129
S    -3.045988  -2.743778  1.580128
C    -2.743662  -3.549063  -0.015373
H    -0.549758  -1.839613  2.580340
H    -0.174378  -1.874897  0.862440
H    -2.404330  -0.754471  0.378296
H    -2.645186  -0.490166  2.117742
H    -3.293091  -4.496786  0.031661
H    -1.683739  -3.777047  -0.178024
H    -3.151270  -2.952541  -0.840642
O    1.796424  -0.746015  3.279639
H    1.037210  -1.227085  3.668499
Sr    2.267055  2.205143  0.062543
