21
Energy: -109018.0042160  eV PBE+vdW (tier 2 basis)
N    0.322847  0.097459  0.064851
C    -0.150838  0.031788  1.491047
C    1.047226  0.198082  2.415229
O    2.186462  0.466278  1.969806
H    -0.403186  0.574764  -0.479595
H    0.302694  -0.864383  -0.299155
H    -0.783347  0.917796  1.670874
C    -1.006465  -1.227415  1.793814
C    -0.244136  -2.553352  1.686491
S    -1.302586  -4.011892  1.894258
C    -1.611172  -4.001071  3.680534
H    -1.868438  -1.223285  1.110405
H    -1.448954  -1.123493  2.798005
H    0.597229  -2.594531  2.399648
H    0.182048  -2.696737  0.679344
H    -2.218560  -3.146540  4.001560
H    -0.672794  -4.058601  4.245421
H    -2.186468  -4.914573  3.873795
O    0.908263  0.117196  3.712722
H    -0.001580  -0.111136  3.992451
Sr    2.786817  0.986232  -0.165029
