21
Energy: -109019.2910091  eV PBE+vdW (tier 2 basis)
N    0.026504  -0.402587  -0.073150
C    -0.039099  -0.102469  1.401984
C    1.368531  0.066026  1.973650
O    1.493029  0.510148  3.160722
H    0.142427  0.442096  -0.644956
H    -0.937785  -0.897362  -0.335080
H    -0.565069  0.856419  1.519925
C    -0.826994  -1.208563  2.135110
C    -2.316690  -1.270983  1.767399
S    -2.703705  -1.657004  0.015272
C    -2.423768  -3.451007  -0.053044
H    -0.744642  -1.000161  3.211490
H    -0.340143  -2.182278  1.966328
H    -2.807268  -0.305831  1.957682
H    -2.823895  -2.013469  2.396833
H    -1.398676  -3.731627  0.213119
H    -2.622216  -3.747618  -1.089289
H    -3.142651  -3.952628  0.604112
O    2.384389  -0.255109  1.262700
H    0.820777  -1.024071  -0.277773
Sr    3.835193  0.410899  3.048489
