21
Energy: -109018.5903066  eV PBE+vdW (tier 2 basis)
N    0.108135  -0.112022  -0.167522
C    -0.083979  0.041338  1.340368
C    1.276119  0.421097  1.923462
O    1.404979  0.545098  3.180513
H    -0.664817  0.304846  -0.702703
H    0.166420  -1.106285  -0.429943
H    -0.753896  0.904419  1.483747
C    -0.746193  -1.223967  1.929916
C    -1.422792  -1.010740  3.294482
S    -2.495681  -2.402379  3.747878
C    -1.299330  -3.600756  4.396498
H    -0.006446  -2.037866  1.982870
H    -1.528678  -1.544434  1.222960
H    -2.094029  -0.140162  3.247753
H    -0.691006  -0.819066  4.089202
H    -0.606012  -3.965363  3.629002
H    -1.899341  -4.450474  4.743011
H    -0.753997  -3.188843  5.254356
O    2.259682  0.634747  1.121493
H    1.005800  0.339232  -0.429477
Sr    3.649531  1.230183  2.996886
