21
Energy: -109018.3147366  eV PBE+vdW (tier 2 basis)
N    0.321926  1.027322  1.258455
C    0.277890  0.037542  2.385049
C    1.721620  -0.369906  2.696223
O    2.660753  0.396356  2.395334
H    -0.638510  1.454256  1.252587
H    0.311669  0.479497  0.385993
H    -0.033078  0.603646  3.284418
C    -0.741717  -1.099360  2.172722
C    -2.201805  -0.669562  2.376587
S    -2.722187  0.628503  1.192471
C    -4.285487  1.167825  1.934765
H    -0.564831  -1.914507  2.895744
H    -0.595768  -1.544447  1.175169
H    -2.348241  -0.296193  3.400756
H    -2.849444  -1.545793  2.242292
H    -4.993684  0.332063  1.952505
H    -4.677269  1.951745  1.277085
H    -4.132926  1.573356  2.940685
O    2.011891  -1.472327  3.327048
H    1.227424  -2.031488  3.505270
Sr    2.495512  2.399582  1.259623
