21
Energy: -109018.3115173  eV PBE+vdW (tier 2 basis)
N    -0.169703  0.825995  0.833266
C    0.214615  -0.132356  1.918384
C    1.717551  -0.369852  1.853031
O    2.464613  0.469302  1.305146
H    -1.079348  1.213211  1.174634
H    -0.425236  0.277721  0.001778
H    0.069409  0.425462  2.864287
C    -0.665657  -1.397629  2.008762
C    -2.173603  -1.091263  1.953532
S    -2.573058  0.415315  2.912178
C    -4.344477  0.585213  2.560298
H    -0.448365  -1.898616  2.966589
H    -0.415261  -2.103799  1.201680
H    -2.728686  -1.945073  2.362162
H    -2.507770  -0.955723  0.914638
H    -4.533392  0.692600  1.486662
H    -4.669959  1.491533  3.082907
H    -4.886594  -0.275246  2.967404
O    2.272078  -1.411072  2.408456
H    1.623733  -2.032858  2.799225
Sr    1.795183  2.405944  0.256957
