21
Energy: -109018.7063609  eV PBE+vdW (tier 2 basis)
N    0.659410  -0.361367  0.300693
C    0.019105  -0.304436  1.662514
C    1.070044  0.071024  2.718880
O    2.293977  0.107385  2.395900
H    0.116109  0.234104  -0.332359
H    0.512989  -1.306078  -0.073656
H    -0.704123  0.526138  1.658808
C    -0.755906  -1.620889  1.953274
C    -1.320005  -1.826778  3.367098
S    -2.106599  -0.297647  4.004316
C    -2.453463  -0.755238  5.725984
H    -0.090580  -2.474382  1.742333
H    -1.575769  -1.661816  1.221940
H    -0.532850  -2.124620  4.073007
H    -2.069922  -2.626515  3.339761
H    -2.867172  0.142830  6.198237
H    -1.540082  -1.063547  6.245316
H    -3.205411  -1.551150  5.740149
O    0.701448  0.376989  3.899430
H    -0.399741  0.288070  4.038162
Sr    3.244304  0.185986  0.369261
