21
Energy: -109018.7545384  eV PBE+vdW (tier 2 basis)
N    0.218761  -0.724417  -0.262816
C    -0.064330  -0.204947  1.077140
C    1.042767  0.728312  1.564349
O    1.099266  1.049630  2.803840
H    0.887223  -0.117498  -0.742693
H    -0.626675  -0.747367  -0.833574
H    -0.950520  0.460915  1.086419
C    -0.373868  -1.358342  2.049383
C    0.598587  -2.531356  1.973835
S    0.486745  -3.448322  0.374610
C    1.102208  -5.096892  0.832715
H    -1.394353  -1.718336  1.856956
H    -0.369992  -0.986786  3.083754
H    0.332341  -3.291549  2.720130
H    1.649741  -2.257092  2.124637
H    2.035493  -5.032623  1.400722
H    1.249053  -5.648225  -0.103897
H    0.312051  -5.581170  1.417800
O    1.850752  1.253512  0.716857
H    1.584887  -2.980347  -0.260860
Sr    2.635092  2.750094  2.351521
