21
Energy: -109018.3441187  eV PBE+vdW (tier 2 basis)
N    -0.264401  0.809907  0.000928
C    0.163403  0.225282  1.314095
C    1.693868  0.245210  1.351088
O    2.311488  1.110281  0.695081
H    -0.212626  0.047311  -0.688915
H    -1.310474  0.929891  0.121609
H    -0.118377  0.965722  2.089572
C    -0.554479  -1.092831  1.653867
C    -1.997079  -0.878831  2.153059
S    -3.115014  0.098389  1.087322
C    -3.596902  -1.126679  -0.165688
H    -0.028819  -1.628847  2.464675
H    -0.526530  -1.764550  0.781838
H    -1.984671  -0.336105  3.109379
H    -2.468800  -1.850740  2.347370
H    -2.745380  -1.506702  -0.742339
H    -4.289958  -0.613849  -0.842348
H    -4.126550  -1.955720  0.317048
O    2.385043  -0.571917  2.093483
H    1.827606  -1.232767  2.555352
Sr    1.360062  2.653007  -0.743355
