21
Energy: -109017.8238155  eV PBE+vdW (tier 2 basis)
N    0.625442  1.069915  1.036895
C    0.098967  0.021446  1.873290
C    1.079488  -1.156498  2.137192
O    0.850604  -2.334557  1.761155
H    1.166705  0.751620  0.234123
H    1.164511  1.766467  1.547691
H    -0.155524  0.453569  2.853352
C    -1.129602  -0.659995  1.257097
C    -2.419983  -0.000854  0.805694
S    -3.217575  -1.385035  -0.129765
C    -4.983307  -1.313988  0.290464
H    -1.439286  -1.426188  1.996024
H    -0.719647  -1.132784  0.334488
H    -2.259234  0.848747  0.133126
H    -3.063456  0.301163  1.640095
H    -5.388401  -0.367551  -0.083197
H    -5.143678  -1.418063  1.367790
H    -5.459312  -2.142066  -0.247350
O    2.189730  -0.808316  2.729790
H    2.803089  -1.568071  2.836863
Sr    -1.045995  -3.473069  0.761805
