21
Energy: -109016.5907938  eV PBE+vdW (tier 2 basis)
N    -0.218105  -0.388567  0.108698
C    0.073765  -0.187580  1.527351
C    1.550269  -0.339674  1.971554
O    1.873634  -0.489095  3.127067
H    0.301151  -1.190533  -0.255621
H    0.081836  0.412471  -0.447479
H    -0.168076  0.861694  1.771143
C    -0.799682  -1.109129  2.390226
C    -2.231158  -0.639924  2.621028
S    -3.197915  -0.260170  1.076916
C    -3.217847  -1.814004  0.128214
H    -0.351700  -1.182667  3.394660
H    -0.788638  -2.127157  1.973776
H    -2.251048  0.318194  3.161490
H    -2.796929  -1.385328  3.192820
H    -3.478950  -2.668627  0.760925
H    -2.210194  -1.913137  -0.292175
H    -3.933923  -1.704522  -0.696243
O    2.397913  -0.253862  0.929892
H    3.311488  -0.319631  1.277300
Sr    -5.899472  0.378711  1.563951
