21
Energy: -109019.4830449  eV PBE+vdW (tier 2 basis)
N    -0.160616  -0.442329  0.052220
C    -0.595264  -0.002747  1.440072
C    0.479122  0.950848  1.963560
O    0.136730  1.844351  2.787872
H    -0.409888  0.251224  -0.667658
H    -0.572621  -1.344525  -0.225453
H    -1.559881  0.509922  1.351150
C    -0.690375  -1.240882  2.360009
C    -0.868029  -0.930978  3.856134
S    0.627371  -0.598926  4.868758
C    1.433356  -2.222985  4.969994
H    0.198034  -1.873843  2.210130
H    -1.562409  -1.831975  2.039401
H    -1.351245  -1.785584  4.346543
H    -1.516938  -0.061628  4.023672
H    2.292934  -2.104275  5.640141
H    1.777085  -2.581441  3.994308
H    0.736411  -2.935638  5.425270
O    1.689081  0.690411  1.650924
H    0.874852  -0.522487  0.068305
Sr    2.280256  1.686528  3.802549
