21
Energy: -109018.4124330  eV PBE+vdW (tier 2 basis)
N    0.391321  -0.135075  0.065149
C    -0.159524  -0.037692  1.407090
C    0.944337  0.181176  2.424831
O    0.955454  -0.326518  3.573719
H    1.025240  0.632563  -0.157625
H    -0.357148  -0.112724  -0.628645
H    -0.805839  0.858990  1.575912
C    -1.016726  -1.273852  1.719743
C    -0.260683  -2.608649  1.558186
S    -0.582424  -3.673675  3.017431
C    0.351934  -5.193310  2.660750
H    -1.883508  -1.257669  1.046579
H    -1.463001  -1.165936  2.723497
H    0.819757  -2.463587  1.433213
H    -0.614595  -3.171532  0.686946
H    1.415474  -4.989540  2.501075
H    -0.089901  -5.655317  1.770546
H    0.210012  -5.866413  3.513916
O    1.882036  0.997611  2.022739
H    2.550165  1.172848  2.719637
Sr    0.440832  -1.956727  5.114763
