21
Energy: -109017.9853812  eV PBE+vdW (tier 2 basis)
N    -0.237210  1.209077  1.141002
C    0.067327  0.237173  2.247752
C    1.586142  0.106450  2.371667
O    2.351979  0.878158  1.756445
H    -1.093229  1.712265  1.396211
H    -0.525112  0.652544  0.325027
H    -0.258031  0.706524  3.194012
C    -0.656779  -1.114723  2.095352
C    -2.182255  -1.018069  2.190423
S    -2.833291  -2.713908  2.078265
C    -4.614985  -2.396097  2.131655
H    -0.324764  -1.803724  2.891664
H    -0.358372  -1.589444  1.145343
H    -2.604505  -0.413801  1.369959
H    -2.479055  -0.555764  3.145855
H    -4.904443  -1.914983  3.072941
H    -5.087713  -3.383682  2.078818
H    -4.941273  -1.802316  1.269696
O    2.124862  -0.785986  3.153031
H    1.471513  -1.379947  3.578120
Sr    1.841915  2.672429  0.434982
