21
Energy: -109018.2667342  eV PBE+vdW (tier 2 basis)
N    0.273355  -0.133378  -0.321672
C    -0.246804  -0.012583  1.038805
C    0.941046  -0.346525  1.945135
O    1.451964  0.574613  2.665303
H    0.237029  -1.066033  -0.726639
H    -0.182589  0.514104  -0.962154
H    -0.429978  1.056333  1.203498
C    -1.584222  -0.724545  1.383586
C    -1.608296  -2.216221  1.720779
S    -0.852485  -3.288323  0.430177
C    -1.062541  -4.962759  1.088375
H    -2.272209  -0.518229  0.551375
H    -2.025058  -0.234940  2.266918
H    -2.646221  -2.570898  1.784500
H    -1.095711  -2.459219  2.659527
H    -0.755721  -5.014652  2.137287
H    -0.460592  -5.628145  0.458432
H    -2.123914  -5.209734  0.969852
O    1.498239  -1.516422  1.907740
H    0.440680  -3.034525  0.811962
Sr    3.435270  -0.553208  2.943398
