21
Energy: -109018.6869989  eV PBE+vdW (tier 2 basis)
N    0.060022  1.064926  1.591689
C    -0.291732  0.087413  2.704019
C    0.945379  -0.087692  3.573177
O    0.824685  -0.652901  4.705559
H    -0.467770  0.844225  0.734112
H    -0.142250  2.041706  1.842888
H    -1.102188  0.532305  3.297408
C    -0.753598  -1.263043  2.109210
C    -2.073542  -1.171736  1.322832
S    -2.677021  -2.795710  0.788872
C    -1.718957  -3.068053  -0.726119
H    -0.893198  -1.948060  2.955516
H    0.050788  -1.684324  1.485085
H    -2.002452  -0.520306  0.433061
H    -2.866021  -0.758596  1.964030
H    -2.075830  -4.025332  -1.124417
H    -0.642643  -3.159132  -0.536665
H    -1.923834  -2.287503  -1.469122
O    2.087953  0.292577  3.121555
H    1.078403  0.990596  1.412553
Sr    3.128943  -0.546352  5.129727
