21
Energy: -109017.5593328  eV PBE+vdW (tier 2 basis)
N    0.540725  0.837742  0.161220
C    0.239776  0.203878  1.401583
C    1.470481  -0.294544  2.169253
O    2.420299  -0.887226  1.791810
H    0.648558  0.192767  -0.620120
H    1.320460  1.491807  0.177337
H    -0.266129  0.965271  2.058556
C    -0.749295  -0.960672  1.170734
C    -1.300131  -1.673041  2.401953
S    -2.345798  -0.561333  3.440030
C    -3.158598  -1.731626  4.577248
H    -0.238955  -1.719912  0.557345
H    -1.569557  -0.555457  0.561663
H    -0.521484  -2.130660  3.026872
H    -1.978846  -2.473241  2.078374
H    -3.800664  -2.386214  3.976875
H    -3.789876  -1.141296  5.251141
H    -2.430421  -2.320591  5.143930
O    1.394076  0.088513  3.608802
H    2.231222  -0.257947  3.986886
Sr    -0.451394  1.195660  4.715126
