21
Energy: -109019.2917455  eV PBE+vdW (tier 2 basis)
N    -0.219516  0.095556  0.427204
C    0.007633  -0.171635  1.878226
C    0.805330  -1.465448  2.006570
O    0.892436  -2.301394  1.089711
H    -0.942796  0.816916  0.343138
H    0.621481  0.546264  0.048400
H    0.628194  0.614569  2.335255
C    -1.317891  -0.217324  2.694150
C    -2.580425  -0.763245  2.019321
S    -2.478504  -2.520109  1.480009
C    -4.212958  -2.871259  1.054486
H    -1.552474  0.817358  2.983912
H    -1.125464  -0.750536  3.634455
H    -2.903852  -0.147180  1.168940
H    -3.391984  -0.730139  2.758990
H    -4.244834  -3.902565  0.685238
H    -4.594945  -2.181960  0.294488
H    -4.810344  -2.805338  1.970718
O    1.381820  -1.603337  3.172435
H    1.873513  -2.451675  3.234896
Sr    -0.594419  -2.244520  -0.761544
