21
Energy: -109017.0942568  eV PBE+vdW (tier 2 basis)
N    -0.308708  0.452994  0.329794
C    -0.033812  0.201920  1.718147
C    1.380500  -0.378588  1.980679
O    2.427661  0.032013  1.621260
H    0.071904  1.338722  0.000758
H    -0.009652  -0.286075  -0.305480
H    -0.046659  1.165132  2.252786
C    -1.057527  -0.744190  2.356734
C    -2.559569  -0.520706  2.350107
S    -3.198452  -2.136907  2.982097
C    -4.583385  -1.729839  4.086579
H    -0.763356  -0.800881  3.424851
H    -0.894488  -1.714554  1.831528
H    -2.960534  -0.339945  1.346747
H    -2.871264  0.285596  3.024597
H    -5.367609  -1.256383  3.486055
H    -4.263335  -1.081397  4.907571
H    -4.958095  -2.684178  4.474262
O    1.371312  -1.684719  2.741355
H    2.329658  -1.894095  2.775152
Sr    -0.441840  -3.164221  3.721982
