21
Energy: -109018.3273466  eV PBE+vdW (tier 2 basis)
N    -0.049235  0.765769  0.697599
C    0.077092  -0.204410  1.832743
C    1.540788  -0.488835  2.078367
O    2.425524  0.289906  1.648528
H    -0.908336  1.301916  0.894352
H    -0.269074  0.237136  -0.155702
H    -0.293774  0.360402  2.722121
C    -0.853556  -1.422823  1.733905
C    -2.339531  -1.006106  1.650129
S    -2.806922  0.406707  2.694127
C    -2.821210  -0.321532  4.358806
H    -0.723499  -2.044384  2.635816
H    -0.590694  -2.058257  0.873199
H    -2.978243  -1.866928  1.886319
H    -2.607777  -0.700545  0.629004
H    -3.555543  -1.134164  4.397993
H    -3.145858  0.480063  5.031949
H    -1.836315  -0.676954  4.682365
O    1.936719  -1.504415  2.800075
H    1.201974  -2.091715  3.070588
Sr    2.141052  2.152497  0.368632
