21
Energy: -109016.6683934  eV PBE+vdW (tier 2 basis)
N    -2.248592  0.020554  1.243261
C    -0.948070  -0.288621  1.770997
C    0.056576  -1.004303  0.845151
O    1.260682  -1.032784  1.072485
H    -2.778063  -0.793474  0.934184
H    -2.233450  0.712247  0.496987
H    -0.457611  0.666370  2.026580
C    -1.131755  -1.105328  3.077915
C    0.105977  -1.428657  3.909005
S    0.941453  0.113341  4.556364
C    2.424979  0.322457  3.500096
H    -1.593609  -2.077487  2.834634
H    -1.869385  -0.560487  3.682841
H    0.871250  -1.987382  3.356334
H    -0.182101  -1.997094  4.802829
H    2.139608  0.012386  2.473585
H    3.285088  -0.324726  3.775970
H    2.712245  1.380851  3.512156
O    -0.516793  -1.600476  -0.198219
H    0.175377  -2.032792  -0.741054
Sr    2.880675  -0.371577  6.504074
