21
Energy: -109018.4238226  eV PBE+vdW (tier 2 basis)
N    1.169346  -0.061620  -0.023649
C    0.118522  -0.040086  0.946538
C    0.479957  0.437422  2.355155
O    -0.340073  1.061656  3.082353
H    1.872090  -0.784314  0.121261
H    1.619197  0.835343  -0.190549
H    -0.649874  0.678499  0.604491
C    -0.541458  -1.445656  1.011702
C    -1.710776  -1.665770  1.968612
S    -3.125687  -0.516090  1.650202
C    -4.569532  -1.493458  2.184803
H    0.233211  -2.183077  1.276095
H    -0.846603  -1.663432  -0.020636
H    -1.420980  -1.608622  3.026487
H    -2.122367  -2.669715  1.801179
H    -5.451610  -0.854419  2.062388
H    -4.476649  -1.826860  3.223206
H    -4.661554  -2.352359  1.510602
O    1.690484  0.164817  2.758544
H    1.865081  0.503272  3.663350
Sr    -2.515292  1.711980  3.411677
