21
Energy: -109019.2678343  eV PBE+vdW (tier 2 basis)
N    -0.290455  -2.392733  0.359064
C    -0.137246  -1.070490  1.033967
C    1.300209  -0.597907  0.847597
O    2.234103  -1.351110  0.521721
H    -0.461139  -2.225145  -0.639286
H    -1.161179  -2.822949  0.686211
H    -0.765764  -0.306344  0.550786
C    -0.558158  -1.097038  2.533083
C    -0.373527  -2.389331  3.334549
S    1.281750  -3.160225  3.484320
C    2.306020  -1.878095  4.264513
H    -1.634246  -0.870355  2.571951
H    -0.071647  -0.254583  3.041827
H    -1.003977  -3.210223  2.963144
H    -0.712647  -2.207585  4.364007
H    3.279138  -2.339234  4.469080
H    2.438276  -0.996277  3.630079
H    1.843291  -1.603334  5.219391
O    1.449935  0.686187  1.062301
H    2.380376  0.968639  0.922840
Sr    1.979452  -3.708776  0.686624
