21
Energy: -109018.4141666  eV PBE+vdW (tier 2 basis)
N    0.682505  -0.464843  0.220448
C    0.312832  -0.460552  1.623378
C    1.166840  -1.502404  2.336860
O    0.788889  -2.685291  2.568670
H    0.592752  -1.359168  -0.257779
H    1.578877  -0.029567  0.011684
H    0.582011  0.522249  2.037719
C    -1.191060  -0.702076  1.786954
C    -1.692764  -0.631642  3.242398
S    -2.722434  -2.103007  3.617988
C    -3.250927  -1.835817  5.338208
H    -1.453923  -1.668222  1.317000
H    -1.703395  0.046236  1.170824
H    -2.337866  0.240696  3.401867
H    -0.875218  -0.577083  3.974549
H    -3.875465  -0.935460  5.360437
H    -2.397897  -1.730230  6.016062
H    -3.866197  -2.697013  5.622865
O    2.383744  -1.102189  2.613929
H    2.950619  -1.832097  2.942813
Sr    -0.791410  -4.229926  3.156717
