21
Energy: -109018.3497598  eV PBE+vdW (tier 2 basis)
N    0.481880  0.050665  -0.134563
C    -0.089080  -0.127966  1.182505
C    1.029064  -0.223506  2.214001
O    2.203896  0.175870  1.907159
H    1.269227  0.697241  -0.129123
H    -0.205417  0.385338  -0.808450
H    -0.696389  0.740019  1.544481
C    -1.006857  -1.384159  1.175638
C    -2.359821  -1.264561  1.869915
S    -2.289478  -1.404416  3.702033
C    -4.005641  -1.107851  4.202882
H    -0.465291  -2.275208  1.520064
H    -1.240336  -1.582040  0.119378
H    -3.006738  -2.111325  1.598941
H    -2.886656  -0.330589  1.632821
H    -4.007599  -1.020123  5.295671
H    -4.571929  -1.998783  3.907263
H    -4.405491  -0.206340  3.728771
O    0.791087  -0.687792  3.394997
H    -1.757403  -0.188279  3.991045
Sr    3.114737  -0.501647  3.909986
