21
Energy: -109019.0753647  eV PBE+vdW (tier 2 basis)
N    -0.217942  -1.606760  0.382614
C    0.106820  -0.803401  1.611897
C    1.577354  -0.939905  1.993320
O    2.355928  -1.662682  1.278759
H    -1.232285  -1.284072  0.150122
H    -0.196043  -2.620017  0.550832
H    -0.053484  0.243705  1.312007
C    -0.852687  -1.143298  2.774826
C    -2.320341  -1.442476  2.383327
S    -3.013728  -0.601478  0.919114
C    -3.047602  1.144595  1.419564
H    -0.806866  -0.293438  3.466348
H    -0.468507  -2.011623  3.331337
H    -2.967891  -1.244628  3.246895
H    -2.452809  -2.508096  2.146723
H    -2.058194  1.545099  1.665364
H    -3.728946  1.260324  2.269982
H    -3.454711  1.693580  0.562800
O    1.996311  -0.312473  3.019874
H    0.419000  -1.407594  -0.398318
Sr    4.191623  -1.089363  2.701612
