21
Energy: -109016.4721398  eV PBE+vdW (tier 2 basis)
N    -0.541170  0.988037  0.516756
C    -0.349149  0.542573  1.864196
C    1.142683  0.527927  2.242376
O    2.043552  0.529584  1.443231
H    0.279424  0.849780  -0.073533
H    -0.905576  1.931219  0.423484
H    -0.883900  1.201741  2.562481
C    -0.941072  -0.917799  2.001167
C    -1.127283  -1.365793  3.443999
S    -1.656759  -3.140130  3.544993
C    -3.285754  -3.192362  2.727745
H    -0.286892  -1.609780  1.451531
H    -1.902926  -0.880916  1.475942
H    -1.876909  -0.767798  3.978830
H    -0.185210  -1.337477  4.009647
H    -3.134547  -2.974409  1.665118
H    -3.973671  -2.472001  3.181655
H    -3.675559  -4.212866  2.818191
O    1.319820  0.481526  3.594855
H    2.285857  0.526178  3.752418
Sr    -1.663268  -4.454880  6.045797
