21
Energy: -109018.1436372  eV PBE+vdW (tier 2 basis)
N    -0.000005  0.104308  0.104389
C    -0.553272  0.102692  1.494237
C    0.611760  0.280322  2.460928
O    1.754240  -0.111021  2.152048
H    0.182390  1.074917  -0.176839
H    -0.743428  -0.205871  -0.531676
H    -1.277091  0.921926  1.632082
C    -1.287749  -1.239798  1.785734
C    -0.485488  -2.521298  1.514231
S    -1.425462  -4.064663  1.739252
C    -1.533667  -4.175669  3.545802
H    -2.204530  -1.256418  1.177764
H    -1.623928  -1.233226  2.831875
H    0.426831  -2.577815  2.144680
H    -0.213937  -2.589512  0.439513
H    -2.039966  -5.131412  3.730827
H    -2.145701  -3.377054  3.979093
H    -0.540240  -4.215773  4.008373
O    0.430555  0.782290  3.653912
H    -0.476379  1.113495  3.814774
Sr    2.213257  -1.305312  0.212474
