21
Energy: -109018.0001346  eV PBE+vdW (tier 2 basis)
N    0.698651  0.192751  0.183953
C    0.254368  0.127495  1.621541
C    1.465891  0.398675  2.506882
O    2.525158  0.863356  2.026824
H    -0.105792  0.500740  -0.373217
H    0.847302  -0.775452  -0.129635
H    -0.421449  0.986881  1.787229
C    -0.530437  -1.169406  1.952657
C    -1.347669  -1.143545  3.261578
S    -2.649714  -2.407031  3.319517
C    -1.703488  -3.911159  3.679332
H    0.154923  -2.031318  1.940318
H    -1.250026  -1.320115  1.134448
H    -1.886770  -0.189451  3.365560
H    -0.729891  -1.286133  4.171146
H    -1.156625  -3.817791  4.625586
H    -1.032039  -4.194784  2.860884
H    -2.457275  -4.699506  3.793058
O    1.412452  0.193299  3.789793
H    0.549706  -0.199008  4.072853
Sr    2.963431  1.497733  -0.120101
