21
Energy: -109019.1824526  eV PBE+vdW (tier 2 basis)
N    -1.192604  0.127816  0.576734
C    -1.610983  -0.392745  1.932693
C    -0.463922  -0.153750  2.921209
O    -0.562347  -0.624456  4.098651
H    -1.945664  0.647602  0.112243
H    -0.370366  0.742379  0.682646
H    -2.437023  0.238402  2.296839
C    -2.102717  -1.850998  1.874625
C    -1.124534  -2.859594  1.260901
S    -1.081061  -2.649963  -0.565399
C    0.467094  -3.476955  -1.016188
H    -3.062213  -1.877892  1.336767
H    -2.331724  -2.144230  2.908091
H    -1.452554  -3.880972  1.489383
H    -0.105757  -2.739895  1.661213
H    1.334054  -3.009684  -0.536677
H    0.554120  -3.383426  -2.104601
H    0.401195  -4.539079  -0.755793
O    0.539055  0.562183  2.565256
H    -0.940856  -0.736135  -0.060858
Sr    1.383805  0.482394  4.808265
