21
Energy: -109017.5768437  eV PBE+vdW (tier 2 basis)
N    0.166027  0.573374  0.117637
C    -0.153251  -0.010667  1.384681
C    1.065107  -0.289463  2.273193
O    2.111786  -0.770590  2.012259
H    0.779479  1.385339  0.161792
H    0.545395  -0.094027  -0.553773
H    -0.803112  0.715050  1.934102
C    -0.959299  -1.308870  1.171595
C    -1.508482  -2.016897  2.405593
S    -2.693528  -1.092512  3.466120
C    -4.066767  -0.660525  2.352067
H    -0.311103  -2.034049  0.653104
H    -1.763332  -1.060054  0.465600
H    -0.723857  -2.341191  3.104901
H    -2.046297  -2.926785  2.106760
H    -4.463918  -1.594999  1.938740
H    -3.756926  0.018860  1.552563
H    -4.841326  -0.194920  2.972190
O    0.827791  0.170022  3.679442
H    1.673373  -0.037233  4.133633
Sr    -1.201115  1.076660  4.622500
