21
Energy: -109017.5847240  eV PBE+vdW (tier 2 basis)
N    -0.224334  -0.022250  0.033964
C    -0.045892  -0.082760  1.448065
C    1.382911  -0.343318  1.936873
O    2.346893  -0.739700  1.388366
H    0.244966  0.762701  -0.414185
H    0.026698  -0.883958  -0.450725
H    -0.300761  0.918981  1.852192
C    -1.008228  -1.140225  2.063431
C    -2.447145  -0.653028  2.184599
S    -2.565294  0.784632  3.332317
C    -4.262416  0.698846  3.984586
H    -0.644518  -1.516288  3.038893
H    -0.992205  -2.026063  1.410422
H    -3.096002  -1.443394  2.580815
H    -2.835854  -0.317742  1.214936
H    -4.436335  -0.242329  4.514670
H    -4.947897  0.807579  3.136732
H    -4.390287  1.554962  4.656322
O    1.499193  0.026768  3.403812
H    2.448614  -0.131862  3.593480
Sr    -0.206132  0.658979  4.995176
