21
Energy: -109018.3498598  eV PBE+vdW (tier 2 basis)
N    0.692327  -0.259974  0.051073
C    0.154962  -0.008397  1.396615
C    1.445144  -0.030985  2.225991
O    2.175379  1.013957  2.219970
H    0.548841  0.522889  -0.582682
H    0.318331  -1.105866  -0.374563
H    -0.243322  1.014436  1.464341
C    -0.942335  -1.012920  1.771927
C    -1.501208  -0.901395  3.194397
S    -0.665662  -1.933382  4.466021
C    -1.158685  -3.626850  4.058299
H    -0.598750  -2.038408  1.564779
H    -1.779445  -0.834848  1.080809
H    -2.552051  -1.214482  3.255220
H    -1.449856  0.118734  3.600818
H    -2.209319  -3.725565  4.354090
H    -0.542630  -4.289481  4.677425
H    -1.021202  -3.842115  2.994696
O    1.893893  -1.123180  2.766270
H    0.580742  -1.894896  3.861134
Sr    4.098069  -0.223016  2.427720
