21
Energy: -109018.6666399  eV PBE+vdW (tier 2 basis)
N    -0.325747  0.262763  0.096974
C    -0.098395  0.087791  1.591986
C    1.411094  -0.046277  1.814726
O    2.213030  0.140244  0.828856
H    -1.056194  0.955497  -0.110803
H    -0.611246  -0.637058  -0.321641
H    -0.406148  1.027968  2.074209
C    -0.920758  -1.077081  2.154691
C    -0.650714  -2.420748  1.469326
S    -1.369215  -3.724025  2.512052
C    -1.421565  -5.115201  1.353597
H    -1.990521  -0.828127  2.109126
H    -0.668783  -1.139920  3.223342
H    0.433674  -2.588667  1.332403
H    -1.127481  -2.478308  0.473375
H    -1.847146  -5.949906  1.922952
H    -0.418307  -5.397572  1.014157
H    -2.078837  -4.901806  0.502306
O    1.832255  -0.292994  2.986625
H    0.569270  0.549361  -0.341091
Sr    4.081145  -0.150652  2.332530
