21
Energy: -109017.9857902  eV PBE+vdW (tier 2 basis)
N    0.673617  0.130525  0.117925
C    0.330742  0.083700  1.580457
C    1.622644  0.135441  2.371702
O    2.705176  -0.229279  1.856909
H    -0.083448  -0.344951  -0.386285
H    0.601686  1.105774  -0.197110
H    -0.302204  0.946098  1.847120
C    -0.467521  -1.218120  1.907676
C    -1.124580  -1.253536  3.293796
S    -2.355408  -2.585441  3.423025
C    -1.318210  -4.012216  3.842378
H    0.182842  -2.097156  1.769901
H    -1.270047  -1.287008  1.155300
H    -1.694179  -0.327433  3.469586
H    -0.391978  -1.367491  4.106652
H    -0.777967  -3.843781  4.781663
H    -0.628370  -4.286970  3.035627
H    -2.019169  -4.842584  3.989550
O    1.642326  0.513134  3.622128
H    0.767278  0.793175  3.961795
Sr    3.115172  -0.734723  -0.331891
