21
Energy: -109019.0884487  eV PBE+vdW (tier 2 basis)
N    0.088244  -2.074602  -0.010889
C    -0.259218  -0.956869  0.950852
C    0.683123  -1.222238  2.161266
O    0.763604  -0.252082  3.015769
H    -0.727957  -2.569830  -0.389313
H    0.670871  -1.765005  -0.797789
H    0.007833  -0.001876  0.482294
C    -1.767317  -0.998926  1.280026
C    -2.240547  -0.268883  2.542214
S    -1.810604  1.527280  2.601704
C    -3.370466  2.307798  3.122904
H    -2.066299  -2.051252  1.422681
H    -2.320154  -0.618916  0.408921
H    -1.873181  -0.765208  3.447952
H    -3.336462  -0.309923  2.572485
H    -4.121185  2.150088  2.341148
H    -3.167157  3.381819  3.205148
H    -3.717680  1.915667  4.083775
O    1.261044  -2.301751  2.209716
H    0.667703  -2.716482  0.615986
Sr    0.533804  1.428192  4.393149
