21
Energy: -109017.8278196  eV PBE+vdW (tier 2 basis)
N    0.169586  0.536067  -0.104661
C    0.275458  0.190774  1.289939
C    1.112609  -1.084728  1.591132
O    0.629708  -2.104097  2.147049
H    0.943650  1.103916  -0.443809
H    0.033428  -0.252788  -0.735246
H    0.763005  1.024617  1.818600
C    -1.088825  -0.111453  1.921656
C    -2.301010  0.800289  1.968804
S    -3.428821  -0.154698  3.083061
C    -5.079098  -0.033012  2.332427
H    -0.847806  -0.333518  2.985147
H    -1.448463  -1.019322  1.393157
H    -2.765715  0.935649  0.986185
H    -2.100264  1.779871  2.417867
H    -5.087344  -0.432299  1.313808
H    -5.388623  1.017353  2.350736
H    -5.750983  -0.613467  2.975230
O    2.345767  -1.030795  1.165361
H    2.830167  -1.868216  1.335707
Sr    -1.502667  -2.642795  3.174440
