21
Energy: -109019.1411676  eV PBE+vdW (tier 2 basis)
N    -1.305354  0.134994  0.459723
C    -1.551928  -0.354995  1.864920
C    -0.226390  -0.233280  2.631510
O    -0.080985  -0.877169  3.717236
H    -0.731840  0.990235  0.471602
H    -0.728630  -0.646730  -0.008093
H    -2.229865  0.363292  2.352427
C    -2.193224  -1.759957  1.891717
C    -1.814813  -2.705489  0.740513
S    -0.027880  -2.617040  0.337967
C    0.040979  -3.571778  -1.204613
H    -3.285905  -1.652212  1.894632
H    -1.924765  -2.201004  2.859759
H    -2.378005  -2.464067  -0.173278
H    -2.076949  -3.734056  1.016288
H    1.079899  -3.526990  -1.549120
H    -0.617385  -3.141872  -1.967002
H    -0.227604  -4.613738  -1.000623
O    0.673787  0.566400  2.191761
H    -2.175892  0.308496  -0.056127
Sr    2.057752  0.031962  4.059802
