21
Energy: -109018.6113482  eV PBE+vdW (tier 2 basis)
N    0.209427  0.780336  0.868354
C    0.067234  -0.313208  1.893545
C    1.494230  -0.806735  2.250438
O    2.364811  0.129794  2.372912
H    0.330290  0.355285  -0.058362
H    -0.686061  1.275727  0.799928
H    -0.255390  0.196513  2.817684
C    -1.026306  -1.361323  1.603198
C    -0.819284  -2.378329  0.474565
S    0.229792  -3.826722  0.894725
C    -0.774975  -4.756777  2.082127
H    -1.952368  -0.805770  1.385498
H    -1.239518  -1.884666  2.546464
H    -0.344049  -1.952040  -0.421207
H    -1.782584  -2.785001  0.142174
H    -1.075408  -4.145379  2.938434
H    -0.139377  -5.583223  2.421608
H    -1.644884  -5.161372  1.554013
O    1.771206  -2.007429  2.454201
H    1.069807  -2.943600  1.842012
Sr    2.363614  2.185936  1.546798
