21
Energy: -109018.1937511  eV PBE+vdW (tier 2 basis)
N    -0.788848  -0.102301  -0.032419
C    -0.069325  0.120317  1.266128
C    1.376093  0.543255  0.907355
O    1.673672  0.806160  -0.239034
H    -0.157966  0.355714  -0.727616
H    -0.702347  -1.097057  -0.276874
H    -0.502623  1.013377  1.761585
C    -0.164446  -1.058439  2.241626
C    -1.573986  -1.609370  2.487592
S    -2.795549  -0.281616  2.879616
C    -4.217004  -1.235201  3.505890
H    0.281299  -0.738200  3.191757
H    0.454697  -1.893904  1.877908
H    -1.562082  -2.268422  3.365718
H    -1.950865  -2.205273  1.644382
H    -3.912568  -1.709565  4.445634
H    -4.553505  -1.988368  2.786164
H    -5.016431  -0.515391  3.714878
O    2.160550  0.606588  1.977163
H    3.056177  0.907792  1.712579
Sr    -3.126404  0.778921  0.192960
