30
Energy: -173736.688419 eV PBE+vdW (tier 2 basis)
C    -0.630913  -1.242633  0.152426
C    -0.520026  -0.123389  1.134762
O    0.538846  0.583151  1.112944
H    -1.565044  -1.806682  0.245093
H    0.226241  -1.918292  0.270895
H    -0.564558  -0.821703  -0.861618
N    -1.549246  0.088627  1.973876
C    -1.807116  1.274986  2.807241
C    -1.168287  1.158596  4.213476
O    0.083896  1.386217  4.371067
H    -2.332065  -0.559268  1.887944
H    -1.280664  2.121009  2.335682
C    -3.304408  1.643774  2.758589
C    -4.275656  0.581526  3.186240
N    -5.633093  0.794993  3.155150
C    -4.150631  -0.745102  3.636337
C    -6.249546  -0.357893  3.569238
N    -5.369650  -1.300153  3.867068
H    -3.522967  1.942815  1.719966
H    -3.442827  2.558128  3.359057
H    -6.105528  1.649411  2.870053
H    -3.245266  -1.323484  3.809742
H    -7.329789  -0.451514  3.634655
N    -1.918698  0.856108  5.250465
C    -1.459092  0.725398  6.636661
H    -2.909186  0.663979  5.065450
H    -1.768361  -0.252958  7.022798
H    -1.919186  1.512347  7.246895
H    -0.372140  0.816514  6.675573
Cd    1.448965  1.652492  2.737279
