30
Energy: -173735.651393 eV PBE+vdW (tier 2 basis)
C    -1.105257  1.641627  -0.922341
C    -0.865997  0.760161  0.253932
O    0.254897  0.095919  0.278254
H    -2.065831  2.163094  -0.877743
H    -1.020535  1.072435  -1.856685
H    -0.301023  2.393532  -0.946110
N    -1.706809  0.673549  1.269081
C    -3.140310  0.919505  1.409125
C    -3.337072  0.760704  2.951996
O    -2.510445  0.057631  3.556041
H    -1.412569  0.205141  2.158387
H    -3.417020  1.925081  1.069735
C    -4.026135  -0.149051  0.636934
C    -3.298224  -1.436291  0.407972
N    -3.091973  -1.980495  -0.852558
C    -2.443308  -2.134333  1.229638
C    -2.118771  -2.909993  -0.802444
N    -1.676549  -3.029638  0.467090
H    -4.330745  0.268925  -0.331789
H    -4.950430  -0.303392  1.210801
H    -3.639210  -1.763496  -1.685241
H    -2.328283  -2.052668  2.307478
H    -1.780348  -3.496040  -1.651288
N    -4.401834  1.352390  3.492196
C    -4.757887  1.252728  4.910689
H    -4.971929  1.957697  2.907880
H    -5.782772  0.877413  5.010908
H    -4.685445  2.239195  5.383732
H    -4.063153  0.564281  5.397775
Cd    0.201969  -1.961612  0.730553
