30
Energy: -173736.606675 eV PBE+vdW (tier 2 basis)
C    1.643087  1.048781  0.607833
C    1.024654  0.224845  1.693565
O    1.792777  -0.459768  2.432066
H    2.258213  0.392531  -0.022864
H    0.912967  1.572373  -0.018044
H    2.325004  1.779876  1.063482
N    -0.319846  0.248627  1.799369
C    -1.252549  -0.498959  2.673552
C    -1.285458  0.113396  4.092607
O    -0.325727  -0.028573  4.912406
H    -0.780666  0.857538  1.128227
H    -2.235800  -0.330956  2.217251
C    -1.042739  -2.039412  2.659611
C    -2.258110  -2.810705  2.985506
N    -2.655081  -3.937484  2.297966
C    -3.205722  -2.689480  4.023305
C    -3.784014  -4.411730  2.901673
N    -4.128815  -3.669714  3.953378
H    -0.222208  -2.335337  3.386044
H    -0.640560  -2.324318  1.678406
H    -2.216405  -4.335984  1.471681
H    -3.225792  -1.956637  4.825291
H    -4.320831  -5.283991  2.539096
N    -2.363019  0.806575  4.424720
C    -2.573399  1.475061  5.713013
H    -3.101101  0.900321  3.730313
H    -1.848983  1.099661  6.439379
H    -3.592531  1.268277  6.057417
H    -2.446901  2.558772  5.594444
Cd    1.459556  -1.200585  4.439307
