30
Energy: -173736.624524 eV PBE+vdW (tier 2 basis)
C    0.882026  -0.200191  0.867145
C    0.152798  0.695559  1.815889
O    0.787537  1.422295  2.672932
H    1.526213  0.398376  0.204005
H    1.537376  -0.870179  1.440528
H    0.213596  -0.799904  0.241215
N    -1.172266  0.702894  1.784093
C    -2.135757  1.401754  2.628353
C    -3.389561  0.464139  2.567988
O    -3.487369  -0.265382  1.577413
H    -1.683266  0.023930  1.185770
H    -1.735324  1.510268  3.644869
C    -2.556197  2.802496  2.039914
C    -1.394769  3.728217  2.041736
N    -1.005572  4.471639  3.148638
C    -0.341974  3.823733  1.162724
C    0.242532  4.931726  2.963490
N    0.692097  4.548223  1.742430
H    -3.393638  3.194835  2.632410
H    -2.926900  2.656023  1.017182
H    -1.590370  4.691910  3.953301
H    -0.260193  3.419099  0.159383
H    0.773364  5.574198  3.659643
N    -4.282691  0.560622  3.557722
C    -5.508634  -0.241992  3.602800
H    -4.052520  1.117179  4.375170
H    -5.763186  -0.552021  2.585325
H    -6.318154  0.365111  4.021002
H    -5.364930  -1.134964  4.224651
Cd    2.181735  2.975406  2.172282
