30
Energy: -173736.816072 eV PBE+vdW (tier 2 basis)
C    0.248219  0.683801  0.236955
C    0.212688  0.275101  1.672597
O    1.288457  -0.034429  2.310611
H    0.694748  -0.130902  -0.350786
H    0.895125  1.564484  0.111003
H    -0.741594  0.915380  -0.168781
N    -0.962243  0.187496  2.284334
C    -1.267250  -0.295490  3.628853
C    -2.701902  -0.898990  3.466492
O    -3.380684  -0.471036  2.527155
H    -1.845372  0.271213  1.743558
H    -0.524072  -1.046721  3.926232
C    -1.337829  0.848059  4.707077
C    -0.071256  1.629887  4.727449
N    0.073786  2.865474  4.110789
C    1.209440  1.235350  5.035236
C    1.379438  3.165763  4.005691
N    2.117765  2.170762  4.565156
H    -1.518523  0.379682  5.683305
H    -2.200405  1.496142  4.499755
H    -0.690670  3.483555  3.841081
H    1.537562  0.329153  5.532931
H    1.770853  4.099213  3.612489
N    -3.104074  -1.786856  4.380181
C    -4.431421  -2.407987  4.358343
H    -2.431672  -2.134588  5.057303
H    -5.105531  -1.775220  3.774230
H    -4.801345  -2.499541  5.384960
H    -4.384985  -3.403627  3.898732
Cd    3.000747  1.141868  2.823071
