30
Energy: -173736.608256 eV PBE+vdW (tier 2 basis)
C    1.597972  1.102817  0.427130
C    1.015583  0.246423  1.507683
O    1.805799  -0.472097  2.188531
H    2.316859  1.801004  0.877249
H    2.167437  0.460979  -0.259115
H    0.849560  1.665252  -0.140780
N    -0.323069  0.279004  1.669619
C    -1.228229  -0.492064  2.552160
C    -1.198901  0.065832  3.993469
O    -0.207439  -0.113106  4.767236
H    -0.803958  0.917013  1.040949
H    -2.226949  -0.298081  2.142159
C    -1.036500  -2.033170  2.473572
C    -2.244833  -2.802665  2.829076
N    -2.700802  -3.886620  2.110074
C    -3.129088  -2.720363  3.924909
C    -3.801839  -4.373921  2.753644
N    -4.072073  -3.681780  3.859664
H    -0.187223  -2.362919  3.149853
H    -0.683896  -2.286192  1.464987
H    -2.316690  -4.249503  1.241311
H    -3.088398  -2.030636  4.763617
H    -4.374592  -5.217831  2.379119
N    -2.257511  0.750554  4.395937
C    -2.412593  1.367068  5.717593
H    -3.022337  0.875246  3.736176
H    -3.416403  1.145075  6.096453
H    -2.291281  2.454900  5.636656
H    -1.657850  0.964169  6.396984
Cd    1.546244  -1.280391  4.180088
