30
Energy: -173736.772267 eV PBE+vdW (tier 2 basis)
C    -0.204399  1.627109  0.417481
C    -0.056329  0.763178  1.626279
O    1.078738  0.245391  1.948177
H    0.098082  1.050101  -0.468024
H    0.472599  2.491401  0.485719
H    -1.225826  1.992931  0.273071
N    -1.132892  0.491057  2.353943
C    -1.270610  -0.409647  3.496025
C    -2.749504  -0.906345  3.373086
O    -3.528336  -0.180003  2.747096
H    -2.077662  0.762181  2.017701
H    -0.541757  -1.225939  3.409360
C    -1.111192  0.309134  4.886483
C    0.192266  1.024060  4.961932
N    0.325161  2.392920  4.770513
C    1.476117  0.534042  4.916586
C    1.618279  2.695363  4.564948
N    2.364767  1.561749  4.642481
H    -1.178288  -0.455983  5.670809
H    -1.951570  0.999544  5.041703
H    -0.429253  3.074571  4.843367
H    1.814315  -0.490199  5.031057
H    2.007505  3.701821  4.443719
N    -3.071278  -2.044276  3.994736
C    -4.425344  -2.605679  3.979276
H    -2.331507  -2.607223  4.403746
H    -4.513852  -3.381170  3.207657
H    -5.135872  -1.802925  3.763049
H    -4.642817  -3.042844  4.959342
Cd    2.917459  1.163682  2.542679
