30
Energy: -173736.677888 eV PBE+vdW (tier 2 basis)
C    -0.746071  -0.028928  0.172585
C    -0.419640  0.159077  1.617805
O    0.665187  0.755169  1.912650
H    -1.691826  -0.556264  0.008086
H    0.071828  -0.573765  -0.317147
H    -0.796881  0.960561  -0.304559
N    -1.300338  -0.288090  2.534220
C    -1.274765  -0.037028  3.980053
C    -0.459489  -1.135433  4.697024
O    0.813431  -1.019513  4.824374
H    -2.091577  -0.819857  2.176707
H    -0.706674  0.894982  4.133873
C    -2.698589  0.280424  4.538475
C    -3.744459  -0.776306  4.426011
N    -4.582545  -0.940699  3.341959
C    -4.156174  -1.768445  5.331185
C    -5.434508  -1.982623  3.632883
N    -5.181531  -2.500815  4.821056
H    -3.026955  1.206285  4.044049
H    -2.569524  0.532994  5.600710
H    -4.694155  -0.299640  2.560576
H    -3.805147  -1.918878  6.350832
H    -6.209702  -2.311162  2.946111
N    -1.060902  -2.207788  5.156850
C    -0.384908  -3.327976  5.822763
H    -2.085802  -2.247639  5.057172
H    0.412771  -3.722440  5.183299
H    -1.127103  -4.108187  6.009840
H    0.049645  -2.998068  6.774195
Cd    1.876402  0.448053  3.672361
