30
Energy: -173736.663871 eV PBE+vdW (tier 2 basis)
C    -0.141164  -0.347460  -0.262331
C    -0.207566  -0.394380  1.228646
O    0.758967  -0.920510  1.863089
H    0.697679  0.305572  -0.547462
H    -1.057699  0.036249  -0.723576
H    0.085789  -1.346630  -0.654009
N    -1.280562  0.152262  1.832902
C    -1.411528  0.508544  3.251598
C    -2.061649  -0.649463  4.040839
O    -1.379788  -1.689011  4.328927
H    -1.999160  0.512129  1.208914
H    -0.391117  0.604299  3.655667
C    -2.105431  1.893073  3.393469
C    -1.349756  3.009926  2.755868
N    -0.409303  3.782612  3.393022
C    -1.365367  3.495512  1.436365
C    0.079055  4.677900  2.471440
N    -0.478012  4.504668  1.279745
H    -2.253733  2.093019  4.465083
H    -3.106081  1.858499  2.931075
H    -0.181785  3.777393  4.383627
H    -1.996874  3.163069  0.615622
H    0.818558  5.432112  2.725265
N    -3.324988  -0.565987  4.414381
C    -4.054729  -1.603915  5.153503
H    -3.845201  0.270605  4.162468
H    -3.345097  -2.224122  5.706580
H    -4.623584  -2.231809  4.455437
H    -4.746439  -1.116826  5.847997
Cd    0.664566  -2.068330  3.698850
