30
Energy: -173735.760490 eV PBE+vdW (tier 2 basis)
C    -0.614190  0.396308  -0.089461
C    -0.409676  -0.122168  1.300080
O    0.670193  -0.357289  1.824562
H    -1.608901  0.174097  -0.492978
H    0.157787  -0.019734  -0.745451
H    -0.479319  1.488465  -0.082144
N    -1.569629  -0.362787  2.070080
C    -1.329125  -0.619082  3.465995
C    -0.647414  -1.998190  3.653770
O    0.142495  -2.239236  4.637870
H    -2.457084  0.039809  1.777990
H    -0.567382  0.110469  3.818384
C    -2.625805  -0.448556  4.306189
C    -2.403064  -0.261763  5.778455
N    -3.161237  -0.828309  6.731434
C    -1.467701  0.557433  6.521350
C    -2.740676  -0.377960  7.989387
N    -1.739977  0.444211  7.895319
H    -3.315923  -1.285319  4.129150
H    -3.134005  0.462203  3.944252
H    -3.934563  -1.475435  6.570968
H    -1.060084  1.501648  6.143634
H    -3.221363  -0.711032  8.906479
N    -0.938057  -2.950918  2.799364
C    -0.343715  -4.291442  2.800502
H    -1.524037  -2.670676  2.012232
H    0.709258  -4.232866  2.495508
H    -0.895603  -4.913324  2.091431
H    -0.405337  -4.731418  3.800787
Cd    0.393133  -0.690142  6.058862
