30
Energy: -173736.128680 eV PBE+vdW (tier 2 basis)
C    -0.443866  1.215406  0.981217
C    -0.067063  -0.189841  1.293284
O    1.186046  -0.509781  1.174432
H    0.269328  1.880236  1.489068
H    -1.460307  1.473837  1.290790
H    -0.326663  1.404873  -0.095794
N    -0.946045  -1.091553  1.711732
C    -2.405636  -1.146749  1.622560
C    -2.793157  -2.223419  2.666698
O    -2.004631  -3.175822  2.803547
H    -0.604047  -1.998334  2.076139
H    -2.852156  -0.168191  1.822956
C    -2.874374  -1.660101  0.187626
C    -1.846324  -2.573716  -0.387864
N    -1.577095  -3.857706  0.061775
C    -0.750780  -2.229696  -1.142011
C    -0.352843  -4.233098  -0.336038
N    0.202005  -3.254945  -1.090801
H    -2.984569  -0.797324  -0.480885
H    -3.863558  -2.126781  0.280956
H    -2.166460  -4.398021  0.696019
H    -0.588133  -1.331290  -1.729891
H    0.099759  -5.194484  -0.114150
N    -3.960808  -2.115212  3.306116
C    -4.923342  -1.010577  3.261674
H    -4.145453  -2.873797  3.961763
H    -4.543200  -0.121963  3.782869
H    -5.835410  -1.336846  3.769273
H    -5.196180  -0.752962  2.231116
Cd    1.733965  -2.179146  0.003825
