30
Energy: -173736.415192 eV PBE+vdW (tier 2 basis)
C    -0.445696  0.003096  -0.248397
C    -0.255221  -0.120796  1.230511
O    0.849126  -0.573701  1.649856
H    0.325079  0.674393  -0.651354
H    -1.436051  0.372803  -0.535442
H    -0.277536  -0.981109  -0.707750
N    -1.288561  0.244548  2.018961
C    -1.486032  0.156915  3.479532
C    -0.663161  1.222684  4.238719
O    0.589984  1.109459  4.427224
H    -2.092626  0.603266  1.511302
H    -2.545455  0.408244  3.619676
C    -1.314759  -1.251097  4.110768
C    -2.202564  -2.311294  3.591701
N    -2.756413  -3.278397  4.405113
C    -2.624426  -2.674425  2.294650
C    -3.472961  -4.125817  3.611130
N    -3.404793  -3.773052  2.328124
H    -1.452020  -1.131614  5.195709
H    -0.238967  -1.605243  4.015305
H    -2.680925  -3.342923  5.417064
H    -2.389959  -2.188322  1.353477
H    -4.029177  -4.971217  4.006569
N    -1.323597  2.270275  4.706179
C    -0.726066  3.387074  5.445572
H    -2.325988  2.316672  4.538064
H    -0.817845  4.306885  4.854924
H    0.327520  3.172728  5.635396
H    -1.257770  3.514643  6.395534
Cd    1.735858  -0.555677  3.627888
