30
Energy: -173736.125857 eV PBE+vdW (tier 2 basis)
C    0.211456  0.099523  0.299431
C    -0.010542  0.013265  1.774795
O    0.924051  -0.390239  2.570648
H    0.543422  -0.881010  -0.069142
H    1.014757  0.820109  0.079631
H    -0.682527  0.407166  -0.252224
N    -1.205267  0.324787  2.252861
C    -1.729070  0.250452  3.613764
C    -3.264085  0.048686  3.374885
O    -3.696424  0.413671  2.275815
H    -1.999646  0.514258  1.605913
H    -1.261874  -0.585784  4.147678
C    -1.545190  1.595283  4.413049
C    -0.102174  1.864316  4.640350
N    0.629497  1.306141  5.680613
C    0.838009  2.406206  3.796388
C    1.941861  1.451278  5.434672
N    2.114326  2.127610  4.271182
H    -2.098932  1.522970  5.358593
H    -1.998633  2.411350  3.835865
H    0.240929  0.901396  6.530931
H    0.681804  2.971600  2.883641
H    2.734683  1.138617  6.107676
N    -4.027590  -0.453909  4.351354
C    -3.639589  -0.953825  5.666365
H    -5.018161  -0.494488  4.112051
H    -4.296006  -1.788565  5.933553
H    -3.739649  -0.177868  6.438662
H    -2.613556  -1.337344  5.656430
Cd    2.806118  0.590344  2.848573
