30
Energy: -173736.771778 eV PBE+vdW (tier 2 basis)
C    0.189329  0.691104  0.222133
C    0.166842  0.213120  1.636522
O    1.241021  -0.175127  2.232704
H    0.875391  1.545142  0.122784
H    -0.797126  0.989357  -0.146558
H    0.582026  -0.113420  -0.415952
N    -0.997399  0.146855  2.271074
C    -1.295589  -0.390075  3.596668
C    -2.758745  -0.921801  3.437348
O    -3.437639  -0.416597  2.537386
H    -1.886996  0.296989  1.756039
H    -0.580305  -1.186725  3.839115
C    -1.292841  0.699486  4.731678
C    0.007462  1.423418  4.761240
N    0.194683  2.680654  4.202402
C    1.275364  0.958639  5.019954
C    1.509972  2.928665  4.082374
N    2.214646  1.875764  4.575480
H    -1.473751  0.190738  5.687446
H    -2.129843  1.394000  4.576543
H    -0.546907  3.344096  3.981126
H    1.572988  0.015514  5.465463
H    1.934439  3.862738  3.726728
N    -3.180429  -1.837841  4.313618
C    -4.534420  -2.399016  4.291212
H    -2.509741  -2.249074  4.955884
H    -4.880726  -2.539402  5.320444
H    -4.544518  -3.364548  3.769446
H    -5.194812  -1.702215  3.767415
Cd    3.013626  0.898564  2.764285
