30
Energy: -173736.628401 eV PBE+vdW (tier 2 basis)
C    -2.206015  2.564366  1.229723
C    -1.449053  1.290234  1.101129
O    -0.172350  1.372727  0.884248
H    -2.182534  3.113389  0.277593
H    -3.241787  2.429793  1.553048
H    -1.681343  3.196838  1.960912
N    -2.022919  0.099921  1.243203
C    -3.422249  -0.325106  1.136641
C    -3.455032  -1.708013  1.829369
O    -2.507621  -2.477223  1.590330
H    -1.413708  -0.730459  1.295065
H    -4.089244  0.405405  1.607494
C    -3.842115  -0.518921  -0.387791
C    -2.655927  -0.896547  -1.207639
N    -1.999321  -2.114941  -1.136626
C    -1.781286  -0.061262  -1.860133
C    -0.766263  -1.997964  -1.649532
N    -0.582732  -0.739151  -2.118147
H    -4.655760  -1.253904  -0.439877
H    -4.237922  0.430241  -0.769885
H    -2.342448  -2.931424  -0.625539
H    -1.934712  0.964368  -2.182168
H    -0.044985  -2.806846  -1.713295
N    -4.518606  -1.990103  2.583647
C    -4.721587  -3.273624  3.258671
H    -5.210401  -1.262714  2.742899
H    -3.924342  -3.957961  2.958326
H    -5.696222  -3.688858  2.976995
H    -4.690519  -3.133717  4.346017
Cd    0.693005  0.384457  -0.771678
