30
Energy: -173737.512673 eV PBE+vdW (tier 2 basis)
C    2.099540  0.764586  1.116040
C    1.031746  0.299263  2.059939
O    1.394582  -0.073029  3.212719
H    1.726018  1.059920  0.129847
H    2.613770  1.621635  1.573921
H    2.850172  -0.028432  1.002177
N    -0.238235  0.338313  1.591239
C    -1.598138  0.167983  2.162382
C    -1.714866  0.559733  3.654227
O    -1.276320  -0.146380  4.609326
H    -0.278568  0.663461  0.627951
H    -2.192358  0.905394  1.605193
C    -2.263056  -1.212442  1.801642
C    -1.764366  -2.343402  2.633197
N    -2.433720  -2.838140  3.739685
C    -0.484399  -2.838458  2.746978
C    -1.564234  -3.506328  4.526745
N    -0.336434  -3.512653  3.974369
H    -2.074114  -1.397463  0.735195
H    -3.351182  -1.098354  1.904172
H    -3.425014  -2.715990  3.939362
H    0.338076  -2.777265  2.039980
H    -1.833338  -3.987833  5.462106
N    -2.384777  1.682350  3.892644
C    -2.652790  2.239467  5.219847
H    -2.744500  2.205219  3.098016
H    -3.736079  2.312982  5.374401
H    -2.213944  3.242290  5.288229
H    -2.214378  1.589410  5.979347
Cd    0.497903  -1.469836  4.570122
