30
Energy: -173737.703980 eV PBE+vdW (tier 2 basis)
C    -0.202479  2.003486  -0.805636
C    -0.940542  1.195306  0.217737
O    -0.361557  0.194949  0.718760
H    0.612808  2.540008  -0.297649
H    0.268018  1.326874  -1.529072
H    -0.828354  2.731490  -1.332606
N    -2.193238  1.613370  0.528065
C    -3.189864  1.167526  1.526455
C    -2.674904  1.250038  2.982121
O    -1.822267  0.453351  3.476151
H    -2.474531  2.448977  0.022559
H    -3.973890  1.931570  1.451408
C    -3.963757  -0.155579  1.182832
C    -3.224694  -1.420861  0.866925
N    -2.946592  -1.831244  -0.396618
C    -2.717075  -2.473180  1.687624
C    -2.310424  -3.062159  -0.344919
N    -2.155406  -3.472480  0.885611
H    -4.611112  0.081905  0.327202
H    -4.641832  -0.351241  2.026943
H    -3.189772  -1.333255  -1.251728
H    -3.055296  -2.707288  2.700405
H    -1.991804  -3.587422  -1.241600
N    -3.196639  2.208202  3.736133
C    -2.837498  2.427856  5.142033
H    -3.868623  2.847388  3.320845
H    -2.758664  1.466301  5.658694
H    -1.876476  2.953381  5.211401
H    -3.618666  3.035056  5.606988
Cd    -0.925872  -1.157322  2.319934
