30
Energy: -173735.858714 eV PBE+vdW (tier 2 basis)
C    -2.169269  -0.188247  -0.208412
C    -1.536236  -0.666290  1.061282
O    -0.503239  -1.316188  1.145116
H    -1.653875  0.726941  -0.536613
H    -3.237368  0.034942  -0.104160
H    -2.018577  -0.940232  -0.990296
N    -2.194879  -0.338371  2.267385
C    -1.435793  -0.594926  3.463483
C    -1.294836  -2.120256  3.700082
O    -0.282532  -2.622164  4.311881
H    -2.904563  0.390415  2.268244
H    -0.393910  -0.250750  3.283273
C    -2.023372  0.170862  4.682111
C    -1.083580  0.330667  5.841196
N    -1.449992  0.213671  7.127940
C    0.314717  0.702449  5.911834
C    -0.357316  0.512104  7.952107
N    0.700647  0.805867  7.258883
H    -2.962845  -0.291924  5.015274
H    -2.277066  1.188808  4.337992
H    -2.381689  -0.038609  7.461134
H    0.805560  1.348080  5.174988
H    -0.433477  0.481176  9.036654
N    -2.273826  -2.897390  3.300343
C    -2.285822  -4.360327  3.393863
H    -3.010713  -2.433121  2.767669
H    -3.320560  -4.704336  3.315548
H    -1.861812  -4.677707  4.350623
H    -1.694586  -4.790403  2.574481
Cd    1.143807  -1.258742  5.077096
