30
Energy: -173736.064540 eV PBE+vdW (tier 2 basis)
C    0.504414  0.087044  0.371704
C    0.196873  -0.041456  1.828535
O    1.107320  -0.385929  2.678118
H    1.261643  0.870789  0.213012
H    -0.374176  0.334883  -0.232311
H    0.933989  -0.858536  0.012817
N    -1.046296  0.169784  2.232119
C    -1.648572  0.033606  3.555345
C    -3.145472  -0.279915  3.214882
O    -3.532702  0.067797  2.093630
H    -1.810278  0.308674  1.537497
H    -1.153501  -0.773387  4.108743
C    -1.619919  1.375438  4.379832
C    -0.219347  1.748399  4.704591
N    0.484199  1.228653  5.783570
C    0.729288  2.373708  3.930856
C    1.794746  1.476113  5.625858
N    1.989889  2.183363  4.484609
H    -2.226883  1.246815  5.285902
H    -2.095534  2.164154  3.782845
H    0.073594  0.782293  6.602108
H    0.589746  2.941270  3.016767
H    2.564001  1.212033  6.345393
N    -3.929784  -0.852961  4.134312
C    -3.591034  -1.340821  5.467387
H    -4.896969  -0.964455  3.830521
H    -2.536429  -1.630951  5.525268
H    -4.186555  -2.235429  5.677650
H    -3.813542  -0.590565  6.239404
Cd    2.887292  0.728589  3.090037
