30
Energy: -173736.678194 eV PBE+vdW (tier 2 basis)
C    -0.827783  0.184057  0.211411
C    -0.494970  0.321732  1.660926
O    0.558021  0.964179  1.973218
H    -1.744320  -0.387604  0.030275
H    0.013549  -0.290146  -0.311115
H    -0.939315  1.190420  -0.217667
N    -1.337336  -0.218128  2.563340
C    -1.308339  -0.036210  4.019711
C    -0.421397  -1.117770  4.674552
O    0.844053  -0.933164  4.795437
H    -2.101744  -0.776448  2.188346
H    -0.793804  0.919137  4.213790
C    -2.741545  0.168524  4.606239
C    -3.725800  -0.940127  4.445964
N    -4.564206  -1.095977  3.360711
C    -4.069920  -2.000885  5.300032
C    -5.351117  -2.199997  3.602017
N    -5.056245  -2.764302  4.759145
H    -3.128476  1.098368  4.164458
H    -2.615442  0.371968  5.679349
H    -4.719266  -0.423181  2.614298
H    -3.701117  -2.183645  6.308069
H    -6.113220  -2.536556  2.904542
N    -0.952572  -2.244539  5.088765
C    -0.201770  -3.351361  5.694727
H    -1.974249  -2.341919  4.996018
H    -0.891689  -4.185213  5.847364
H    0.219248  -3.041336  6.658885
H    0.613650  -3.662561  5.032183
Cd    1.806122  0.646680  3.705012
