30
Energy: -173736.641139 eV PBE+vdW (tier 2 basis)
C    -2.105929  2.551780  1.138450
C    -1.392351  1.251927  1.019338
O    -0.117121  1.289674  0.782652
H    -1.549217  3.178767  1.850418
H    -2.080609  3.084159  0.176947
H    -3.140012  2.456097  1.480509
N    -2.002107  0.083171  1.188878
C    -3.416007  -0.297297  1.108810
C    -3.485180  -1.665697  1.826955
O    -2.569441  -2.471887  1.586391
H    -1.418991  -0.765277  1.245436
H    -4.051751  0.463381  1.575071
C    -3.863216  -0.503873  -0.406098
C    -2.701322  -0.933035  -1.235283
N    -2.082419  -2.170145  -1.151291
C    -1.810483  -0.137527  -1.915022
C    -0.853923  -2.101440  -1.683546
N    -0.637782  -0.857556  -2.177573
H    -4.700229  -1.213489  -0.434209
H    -4.234306  0.450639  -0.799494
H    -2.443538  -2.965708  -0.619836
H    -1.936310  0.886593  -2.253428
H    -0.159439  -2.933775  -1.742864
N    -4.544660  -1.896414  2.604145
C    -4.781086  -3.159704  3.305876
H    -5.208024  -1.142483  2.760877
H    -4.730428  -3.000741  4.389851
H    -4.011374  -3.875909  3.008036
H    -5.772843  -3.547096  3.044976
Cd    0.692097  0.247864  -0.868976
