30
Energy: -173736.136701 eV PBE+vdW (tier 2 basis)
C    -0.534205  1.247884  1.087379
C    -0.132117  -0.157854  1.363809
O    1.126920  -0.451924  1.240298
H    -1.553473  1.481034  1.407592
H    -0.426341  1.464548  0.014462
H    0.169882  1.912933  1.607258
N    -0.996041  -1.085746  1.755588
C    -2.454013  -1.162489  1.658832
C    -2.828495  -2.273727  2.670450
O    -2.026043  -3.217821  2.782580
H    -0.639929  -1.996566  2.095720
H    -2.917418  -0.197178  1.883819
C    -2.908592  -1.643822  0.207956
C    -1.862724  -2.522857  -0.388999
N    -1.572429  -3.814261  0.024844
C    -0.771511  -2.138669  -1.129983
C    -0.340901  -4.157238  -0.380212
N    0.198758  -3.148581  -1.105259
H    -3.031482  -0.764671  -0.436573
H    -3.889767  -2.130084  0.284388
H    -2.154187  -4.381942  0.642135
H    -0.623248  -1.221469  -1.692118
H    0.127725  -5.116806  -0.185096
N    -3.999685  -2.201678  3.308546
C    -4.978935  -1.111132  3.294036
H    -4.175010  -2.982075  3.940785
H    -5.248654  -0.822765  2.270780
H    -4.616443  -0.234885  3.847817
H    -5.889388  -1.468415  3.783416
Cd    1.708745  -2.076745  0.023755
