30
Energy: -173736.839010 eV PBE+vdW (tier 2 basis)
C    -0.707063  0.604732  0.440090
C    -0.470948  0.688058  1.912347
O    0.481052  1.429042  2.319983
H    -0.886184  1.620524  0.058743
H    -1.556311  -0.033702  0.174494
H    0.202836  0.238183  -0.053757
N    -1.283549  -0.008548  2.726319
C    -1.445031  0.135147  4.183207
C    -0.485646  -0.785998  4.976876
O    0.749038  -0.465900  5.109248
H    -2.000512  -0.567620  2.264342
H    -1.122075  1.156636  4.443737
C    -2.939264  0.066704  4.560875
C    -3.679643  -1.176035  4.157995
N    -5.020248  -1.331497  4.419584
C    -3.328281  -2.353494  3.473522
C    -5.410682  -2.542214  3.907402
N    -4.400980  -3.176121  3.332860
H    -3.422117  0.945802  4.102526
H    -3.016964  0.227472  5.648907
H    -5.624304  -0.669383  4.900538
H    -2.357284  -2.649587  3.081181
H    -6.431220  -2.906659  3.982923
N    -0.947138  -1.880058  5.543077
C    -0.166266  -2.830839  6.340833
H    -1.931680  -2.110584  5.371143
H    0.840962  -2.440709  6.497208
H    -0.116383  -3.792367  5.814717
H    -0.664631  -2.977365  7.306042
Cd    1.657516  1.196380  4.101038
