30
Energy: -173737.701613 eV PBE+vdW (tier 2 basis)
C    -0.481097  2.338975  -0.768518
C    -1.070154  1.425785  0.263177
O    -0.336132  0.527122  0.753664
H    0.081025  1.744119  -1.498302
H    -1.220144  2.958989  -1.286975
H    0.245774  2.997667  -0.270189
N    -2.367569  1.644591  0.592910
C    -3.266215  1.048964  1.606051
C    -2.742303  1.200289  3.053020
O    -1.782072  0.526442  3.532458
H    -2.782844  2.427101  0.094729
H    -4.157847  1.686210  1.551533
C    -3.836550  -0.374797  1.266507
C    -2.918731  -1.508836  0.922073
N    -2.601667  -1.858180  -0.350651
C    -2.243392  -2.479952  1.721528
C    -1.784179  -2.977700  -0.324092
N    -1.548775  -3.372954  0.898570
H    -4.532430  -0.234271  0.427674
H    -4.456580  -0.678233  2.123241
H    -2.931958  -1.394442  -1.195738
H    -2.525039  -2.773225  2.736241
H    -1.403386  -3.438418  -1.231967
N    -3.373103  2.078607  3.820093
C    -3.014606  2.334607  5.220692
H    -4.143960  2.611318  3.427456
H    -3.736039  3.042862  5.635612
H    -3.044804  1.400748  5.793687
H    -2.005391  2.759700  5.281763
Cd    -0.662832  -0.913089  2.344753
