30
Energy: -173736.374569 eV PBE+vdW (tier 2 basis)
C    -0.598997  -0.585085  -0.366282
C    -0.494739  -0.588916  1.123250
O    0.513604  -1.142596  1.661071
H    -1.519775  -0.121042  -0.735578
H    -0.523875  -1.613959  -0.740979
H    0.264276  -0.036289  -0.771354
N    -1.461567  0.028871  1.828715
C    -1.428930  0.373287  3.258199
C    -2.029914  -0.774845  4.100020
O    -1.348983  -1.829259  4.319246
H    -2.219409  0.432460  1.282554
H    -0.369382  0.423022  3.556950
C    -2.045297  1.763438  3.494343
C    -1.264236  2.864358  2.848286
N    -1.711371  4.159238  2.786198
C    0.007452  2.905487  2.245445
C    -0.734518  4.905767  2.173307
N    0.311398  4.159926  1.840485
H    -2.094314  1.935656  4.583219
H    -3.088668  1.788030  3.128105
H    -2.594760  4.518566  3.138704
H    0.711624  2.089895  2.105144
H    -0.840006  5.972038  1.994698
N    -3.254517  -0.671329  4.583126
C    -3.930153  -1.705249  5.377379
H    -3.781212  0.174268  4.381903
H    -4.618103  -1.215327  6.072846
H    -3.186449  -2.282135  5.933526
H    -4.495365  -2.377669  4.718933
Cd    0.630184  -2.262603  3.517542
