30
Energy: -173736.221651 eV PBE+vdW (tier 2 basis)
C    -0.645267  1.290819  0.579224
C    -0.126536  -0.050979  0.959035
O    1.129815  -0.289181  0.730670
H    -1.660425  1.484212  0.936584
H    -0.606072  1.414285  -0.512539
H    0.033910  2.047996  0.997643
N    -0.881087  -0.972653  1.543898
C    -2.332435  -1.142828  1.621929
C    -2.518567  -2.144458  2.788714
O    -1.641489  -3.017136  2.918720
H    -0.430448  -1.815054  1.943752
H    -2.835961  -0.185803  1.788259
C    -2.903287  -1.820017  0.295689
C    -1.868769  -2.706129  -0.310720
N    -1.450667  -3.921325  0.210902
C    -0.888513  -2.353504  -1.206259
C    -0.247234  -4.241605  -0.286626
N    0.145277  -3.298148  -1.175485
H    -3.152048  -1.033116  -0.427089
H    -3.835997  -2.346227  0.536717
H    -1.926231  -4.443817  0.947330
H    -0.861731  -1.503038  -1.880965
H    0.302649  -5.143864  -0.037651
N    -3.620793  -2.067772  3.539229
C    -4.675536  -1.050224  3.506344
H    -3.672289  -2.774980  4.271758
H    -4.322794  -0.089406  3.903955
H    -5.498304  -1.396644  4.138021
H    -5.074587  -0.913536  2.493924
Cd    1.686415  -2.015867  -0.348964
