30
Energy: -173735.699782 eV PBE+vdW (tier 2 basis)
C    -0.324812  1.767451  -0.386328
C    -0.432082  0.591735  0.521426
O    0.511992  -0.303434  0.445676
H    0.612124  2.292975  -0.143919
H    -1.155073  2.470951  -0.274922
H    -0.233520  1.443592  -1.430759
N    -1.398358  0.457956  1.412145
C    -2.753829  0.994285  1.511870
C    -3.177988  0.512258  2.937345
O    -2.604064  -0.493760  3.385779
H    -1.327724  -0.271447  2.160404
H    -2.766443  2.088404  1.436753
C    -3.736913  0.389303  0.420482
C    -3.270311  -0.934925  -0.096967
N    -3.018318  -1.181793  -1.439760
C    -2.695286  -1.996414  0.563232
C    -2.275616  -2.297060  -1.574527
N    -2.038841  -2.829049  -0.356892
H    -3.821090  1.093720  -0.417721
H    -4.738735  0.319148  0.866443
H    -3.393918  -0.641933  -2.219138
H    -2.708247  -2.214301  1.628116
H    -1.958459  -2.716758  -2.524138
N    -4.154051  1.188865  3.541622
C    -4.702697  0.831560  4.853171
H    -4.502985  2.036823  3.103384
H    -4.234431  -0.097739  5.186343
H    -5.787345  0.693296  4.777217
H    -4.488729  1.627447  5.576274
Cd    -0.029252  -2.336157  0.319385
