30
Energy: -173736.366713 eV PBE+vdW (tier 2 basis)
C    -0.608459  -0.547359  -0.373531
C    -0.509987  -0.578292  1.115957
O    0.494444  -1.144624  1.648168
H    -1.536354  -0.093005  -0.737231
H    -0.510523  -1.565826  -0.769956
H    0.245060  0.028412  -0.762329
N    -1.475978  0.032243  1.828953
C    -1.435827  0.368808  3.260118
C    -2.042186  -0.776741  4.099959
O    -1.374058  -1.841294  4.310229
H    -2.231940  0.445510  1.287397
H    -0.374677  0.408314  3.554672
C    -2.039569  1.763354  3.504278
C    -1.255023  2.856899  2.850120
N    -1.702600  4.150290  2.763821
C    0.023259  2.890465  2.261012
C    -0.719578  4.888602  2.150885
N    0.330699  4.138986  1.840716
H    -2.075990  1.934981  4.593810
H    -3.086154  1.796245  3.148585
H    -2.589579  4.514983  3.101518
H    0.729857  2.073494  2.141730
H    -0.824045  5.951900  1.954833
N    -3.260541  -0.668580  4.596453
C    -3.918590  -1.714353  5.392394
H    -3.783958  0.183615  4.418511
H    -4.825253  -1.291482  5.831876
H    -3.246251  -2.054580  6.187328
H    -4.183289  -2.566808  4.754489
Cd    0.592086  -2.295156  3.487239
