30
Energy: -173736.418851 eV PBE+vdW (tier 2 basis)
C    0.077100  -0.568210  -0.276468
C    0.049976  -0.232227  1.179004
O    1.123495  0.162624  1.728840
H    0.399282  0.324185  -0.832325
H    -0.891838  -0.900937  -0.663668
H    0.834108  -1.342924  -0.456114
N    -1.123076  -0.339820  1.833955
C    -1.417101  0.148756  3.188916
C    -1.080438  -0.941881  4.233015
O    0.105487  -1.053846  4.687032
H    -1.906880  -0.695555  1.290941
H    -0.725619  0.980667  3.392818
C    -2.844742  0.723580  3.233065
C    -3.154818  1.472769  4.487192
N    -4.172764  2.389809  4.571763
C    -2.589011  1.463206  5.776494
C    -4.182589  2.881351  5.852337
N    -3.229677  2.329874  6.594055
H    -3.591569  -0.074333  3.050825
H    -2.942412  1.401051  2.369184
H    -4.806230  2.669185  3.827031
H    -1.762066  0.862074  6.144888
H    -4.894219  3.631665  6.184840
N    -2.025522  -1.768081  4.641028
C    -1.827064  -2.858052  5.603545
H    -2.976483  -1.599695  4.322549
H    -0.805373  -3.237654  5.521199
H    -2.542143  -3.654978  5.378871
H    -1.998334  -2.494358  6.625320
Cd    1.834521  -0.100244  3.761870
