30
Energy: -173736.541267 eV PBE+vdW (tier 2 basis)
C    -0.078899  -0.280000  -0.312241
C    -0.014551  0.113734  1.126465
O    1.038082  0.688214  1.556124
H    0.027868  0.629883  -0.921770
H    -1.013523  -0.781949  -0.584468
H    0.776286  -0.923332  -0.556794
N    -1.086065  -0.133654  1.902822
C    -1.404751  0.442092  3.219466
C    -0.921547  -0.486525  4.354425
O    0.309649  -0.837576  4.423674
H    -1.845683  -0.639403  1.450671
H    -0.807856  1.364629  3.320972
C    -2.918917  0.834771  3.172364
C    -3.540788  1.337146  4.428164
N    -3.294657  2.552030  5.021487
C    -4.514623  0.738532  5.249350
C    -4.098107  2.636286  6.134540
N    -4.834839  1.547596  6.289750
H    -3.499912  -0.044656  2.853694
H    -3.016892  1.578337  2.366596
H    -2.700515  3.297291  4.669481
H    -5.028973  -0.206600  5.080443
H    -4.102897  3.506315  6.785305
N    -1.765660  -0.921374  5.263176
C    -1.403322  -1.760870  6.409886
H    -2.732340  -0.575352  5.215939
H    -2.197138  -1.676881  7.157209
H    -0.450225  -1.429243  6.834040
H    -1.309981  -2.808088  6.095100
Cd    1.950775  0.144650  3.433130
