30
Energy: -173737.585008 eV PBE+vdW (tier 2 basis)
C    1.981017  0.827158  1.124049
C    0.918256  0.326341  2.055504
O    1.279375  -0.026682  3.214901
H    2.465050  1.696871  1.590522
H    2.755858  0.057136  1.014284
H    1.608563  1.115278  0.135397
N    -0.345370  0.315159  1.568680
C    -1.706589  0.096569  2.120363
C    -1.861569  0.501232  3.605216
O    -1.408551  -0.174724  4.575236
H    -0.383708  0.633775  0.603157
H    -2.320102  0.803633  1.545104
C    -2.311495  -1.312634  1.765329
C    -1.788427  -2.413847  2.621259
N    -2.459141  -2.915618  3.723821
C    -0.494555  -2.863479  2.762965
C    -1.580827  -3.542742  4.534528
N    -0.344559  -3.515087  4.002496
H    -2.093805  -1.503837  0.705485
H    -3.405000  -1.238210  1.844380
H    -3.457418  -2.825520  3.905009
H    0.337175  -2.784737  2.068575
H    -1.849014  -4.019583  5.472549
N    -2.579212  1.598793  3.819863
C    -2.888128  2.160742  5.136103
H    -2.947525  2.097892  3.013942
H    -2.448213  1.529355  5.910427
H    -3.975887  2.206956  5.267969
H    -2.477150  3.175448  5.204041
Cd    0.410953  -1.435642  4.577847
