30
Energy: -173735.850422 eV PBE+vdW (tier 2 basis)
C    -2.190326  -0.130142  -0.051367
C    -1.596329  -0.632116  1.227896
O    -0.592976  -1.324791  1.327390
H    -3.253834  0.121724  0.033608
H    -2.044698  -0.881842  -0.834348
H    -1.644356  0.772910  -0.363492
N    -2.257682  -0.274106  2.423813
C    -1.527190  -0.559270  3.631076
C    -1.452895  -2.088575  3.872547
O    -0.470917  -2.630010  4.499831
H    -2.935749  0.484132  2.413207
H    -0.469401  -0.258864  3.465735
C    -2.100364  0.232794  4.839886
C    -1.172215  0.354992  6.012865
N    -1.561885  0.252620  7.294160
C    0.238771  0.670023  6.104283
C    -0.470348  0.506657  8.134289
N    0.608821  0.757409  7.456955
H    -3.063155  -0.189896  5.159341
H    -2.306104  1.259770  4.490755
H    -2.507702  0.038159  7.613647
H    0.766049  1.294856  5.374846
H    -0.563151  0.478444  9.217681
N    -2.457876  -2.825248  3.460691
C    -2.533945  -4.286044  3.556717
H    -3.166889  -2.331803  2.916446
H    -2.116171  -4.620314  4.510360
H    -1.969295  -4.742891  2.732976
H    -3.583590  -4.584308  3.487587
Cd    0.999403  -1.324273  5.282617
