30
Energy: -173736.628279 eV PBE+vdW (tier 2 basis)
C    1.121539  0.533326  1.808875
C    -0.178209  1.188022  2.163348
O    -0.261541  2.123082  2.979588
H    1.046111  -0.204220  1.002765
H    1.526562  0.042828  2.705108
H    1.843604  1.311626  1.529003
N    -1.302779  0.724890  1.541036
C    -2.640021  1.276490  1.716357
C    -2.749007  2.785554  1.386901
O    -3.542815  3.577244  2.010259
H    -1.206321  -0.057590  0.900910
H    -3.238462  0.801054  0.920410
C    -3.353538  0.806680  3.032036
C    -3.156747  1.513684  4.342398
N    -1.994090  1.874117  4.895050
C    -4.163024  1.906650  5.326467
C    -2.248063  2.418032  6.156467
N    -3.520426  2.455479  6.439801
H    -3.041731  -0.240444  3.177131
H    -4.435261  0.752522  2.840990
H    -1.105981  1.923073  4.318950
H    -5.143798  1.435434  5.441333
H    -1.443175  2.775327  6.794912
N    -2.108346  3.296392  0.347568
C    -1.291533  2.671314  -0.698031
H    -2.281020  4.296284  0.234092
H    -0.245960  2.576107  -0.381637
H    -1.331447  3.323848  -1.575633
H    -1.690728  1.693679  -0.984529
Cd    -4.616792  3.594516  3.845075
