30
Energy: -173736.971199 eV PBE+vdW (tier 2 basis)
C    0.998081  1.724136  2.552820
C    -0.462142  2.031901  2.679612
O    -0.808478  3.059231  3.319417
H    1.473892  1.812244  3.537083
H    1.457267  2.491040  1.911316
H    1.208336  0.737253  2.126847
N    -1.321345  1.169174  2.079341
C    -2.784356  1.224043  1.891271
C    -3.245778  2.538123  1.216882
O    -3.536128  3.586654  1.869763
H    -0.866051  0.395613  1.602834
H    -2.978395  0.436850  1.153532
C    -3.653194  0.783862  3.121381
C    -3.397009  1.356251  4.483348
N    -2.533838  0.815169  5.380188
C    -3.965869  2.464696  5.182518
C    -2.580897  1.551403  6.555638
N    -3.423824  2.544620  6.468446
H    -3.554895  -0.308618  3.192247
H    -4.703640  0.974438  2.857448
H    -1.965874  -0.017648  5.232905
H    -4.936929  2.918087  4.965321
H    -1.970810  1.301404  7.419834
N    -3.378879  2.548489  -0.103471
C    -3.165504  1.465995  -1.071924
H    -3.691334  3.446744  -0.476312
H    -2.131944  1.100604  -1.040947
H    -3.346811  1.872926  -2.070595
H    -3.870882  0.640105  -0.913339
Cd    -2.737768  3.915212  3.868597
