30
Energy: -173736.941231 eV PBE+vdW (tier 2 basis)
C    -0.349562  0.214613  0.174867
C    -0.097059  0.147962  1.651158
O    1.081778  0.366516  2.051484
H    -0.062826  1.215028  -0.178918
H    -1.389112  0.020413  -0.109605
H    0.309575  -0.500127  -0.335326
N    -1.172300  -0.125934  2.428973
C    -1.465620  -0.130532  3.882907
C    -0.644318  0.899313  4.686380
O    0.573576  0.736126  5.003332
H    -2.013730  -0.276857  1.877368
H    -2.507520  0.208892  3.924355
C    -1.507415  -1.567693  4.523134
C    -0.160974  -2.143388  4.795825
N    0.447991  -2.120842  6.039094
C    0.855258  -2.430979  3.912149
C    1.779692  -2.280198  5.887676
N    2.090211  -2.447338  4.587936
H    -2.075567  -2.210336  3.836413
H    -2.102606  -1.506513  5.445017
H    -0.025341  -1.992818  6.931910
H    0.797695  -2.639184  2.847535
H    2.490292  -2.293740  6.708723
N    -1.276534  1.983946  5.122891
C    -2.674880  2.396235  4.943227
H    -0.682674  2.607911  5.671399
H    -2.942792  2.443555  3.881186
H    -2.779847  3.401827  5.360103
H    -3.362679  1.732883  5.482920
Cd    2.122287  -0.297740  3.807885
