30
Energy: -173736.839160 eV PBE+vdW (tier 2 basis)
C    -0.633458  -1.307821  0.182364
C    -0.482272  -0.214621  1.188555
O    0.611806  0.436713  1.198412
H    -0.489945  -0.879713  -0.820237
H    -1.609677  -1.802031  0.225743
H    0.164972  -2.047783  0.326829
N    -1.512707  0.032918  2.016041
C    -1.723587  1.212998  2.871260
C    -1.120973  1.030696  4.285505
O    0.143224  1.141685  4.467092
H    -2.326700  -0.571294  1.904340
H    -1.141295  2.038999  2.430126
C    -3.197118  1.663503  2.800311
C    -4.231440  0.645980  3.185762
N    -5.575589  0.925452  3.118416
C    -4.183523  -0.690513  3.621482
C    -6.258596  -0.200948  3.499333
N    -5.433936  -1.188702  3.809119
H    -3.377424  1.994218  1.763901
H    -3.299239  2.572274  3.416297
H    -5.997989  1.805422  2.832363
H    -3.312236  -1.313923  3.812881
H    -7.343576  -0.242782  3.533248
N    -1.908763  0.795473  5.312498
C    -1.463881  0.632388  6.700768
H    -2.904574  0.655498  5.114498
H    -1.311557  -0.431686  6.924283
H    -2.239615  1.031122  7.361646
H    -0.527453  1.174426  6.853930
Cd    1.554117  1.402053  2.869235
