30
Energy: -173736.889002 eV PBE+vdW (tier 2 basis)
C    -0.955061  -1.016274  3.703474
C    -0.337447  -0.026689  2.790461
O    0.897663  -0.105235  2.492436
H    -0.677873  -2.038110  3.418395
H    -2.039971  -0.901435  3.791884
H    -0.522428  -0.844108  4.704860
N    -1.068736  1.020667  2.294783
C    -2.308985  0.886140  1.520027
C    -2.202713  -0.404824  0.668977
O    -1.086306  -0.781942  0.203885
H    -0.459206  1.758938  1.944429
H    -3.184991  0.848734  2.183025
C    -2.468038  2.155407  0.591677
C    -1.377752  2.186861  -0.433242
N    -1.460735  1.563114  -1.667269
C    -0.022306  2.374633  -0.237063
C    -0.218256  1.298535  -2.127252
N    0.707983  1.752280  -1.269273
H    -2.437656  3.048535  1.231177
H    -3.464157  2.132463  0.132153
H    -2.322575  1.351470  -2.167438
H    0.488377  2.977478  0.511968
H    -0.011483  0.801172  -3.070126
N    -3.326022  -1.074476  0.444452
C    -3.437620  -2.303620  -0.346851
H    -4.172713  -0.742981  0.902429
H    -4.224049  -2.183570  -1.100771
H    -3.700224  -3.142784  0.309067
H    -2.480482  -2.506265  -0.832135
Cd    1.025760  0.144885  0.322861
