30
Energy: -173736.644997 eV PBE+vdW (tier 2 basis)
C    0.538720  -0.772127  1.283589
C    -0.219209  -0.707772  2.568229
O    -0.303075  -1.728442  3.352092
H    0.105252  -1.565361  0.657828
H    1.585993  -1.048518  1.475344
H    0.521325  0.170422  0.727537
N    -0.855617  0.413289  2.880408
C    -1.752223  0.682119  4.003106
C    -2.728047  1.754306  3.415027
O    -2.318544  2.382624  2.430558
H    -0.947307  1.183614  2.186121
H    -2.258633  -0.245933  4.294529
C    -1.030780  1.314910  5.248547
C    0.096712  0.453704  5.698646
N    1.426215  0.714654  5.395020
C    0.090920  -0.831450  6.187016
C    2.166743  -0.380449  5.636037
N    1.368468  -1.366414  6.124884
H    -1.773895  1.424976  6.049170
H    -0.680350  2.325221  4.996753
H    1.797787  1.616825  5.099716
H    -0.749298  -1.415165  6.547249
H    3.246677  -0.432661  5.535292
N    -3.907171  1.973484  4.005717
C    -4.522194  1.284944  5.136872
H    -4.443611  2.726180  3.574324
H    -4.383739  1.848558  6.070027
H    -4.113916  0.275861  5.254635
H    -5.596712  1.184660  4.950003
Cd    1.202510  -2.781057  4.440722
