30
Energy: -173736.889586 eV PBE+vdW (tier 2 basis)
C    -0.318418  0.298760  0.237921
C    -0.070511  0.181295  1.711813
O    1.088696  0.458449  2.132543
H    -1.333494  0.023643  -0.067514
H    0.408280  -0.323823  -0.300057
H    -0.125163  1.338647  -0.062022
N    -1.130089  -0.196655  2.467144
C    -1.430656  -0.286000  3.916773
C    -0.677077  0.750767  4.775899
O    0.546559  0.644976  5.094975
H    -1.956551  -0.377621  1.902124
H    -2.491369  -0.012064  3.965741
C    -1.388144  -1.752041  4.488144
C    -0.009835  -2.258079  4.739293
N    0.593412  -2.260632  5.985582
C    1.024389  -2.438357  3.848184
C    1.932650  -2.330680  5.833984
N    2.256169  -2.413222  4.529139
H    -1.915586  -2.393970  3.769038
H    -1.987502  -1.770628  5.409156
H    0.110785  -2.206589  6.880884
H    0.982541  -2.595555  2.774166
H    2.640594  -2.342243  6.657327
N    -1.375684  1.772324  5.260774
C    -2.794549  2.111357  5.088251
H    -0.823238  2.400953  5.845940
H    -2.958489  3.091680  5.544542
H    -3.445805  1.388468  5.595856
H    -3.059522  2.186706  4.027183
Cd    2.161610  -0.228866  3.860219
