30
Energy: -173735.735098 eV PBE+vdW (tier 2 basis)
C    -1.294321  1.701225  -0.988845
C    -0.965424  0.838638  0.179763
O    0.203168  0.261884  0.179129
H    -2.294748  2.139764  -0.929417
H    -1.173613  1.145582  -1.927236
H    -0.557025  2.518837  -1.018018
N    -1.776199  0.687371  1.211301
C    -3.220750  0.825142  1.380654
C    -3.372953  0.648034  2.927044
O    -2.479863  0.013416  3.512030
H    -1.430635  0.242376  2.094766
H    -3.578677  1.808357  1.051955
C    -4.040242  -0.304018  0.621739
C    -3.221411  -1.530285  0.368679
N    -2.995209  -2.045871  -0.900438
C    -2.302079  -2.167746  1.169575
C    -1.953564  -2.898711  -0.874951
N    -1.482337  -2.995249  0.386049
H    -4.398252  0.093948  -0.337059
H    -4.936522  -0.531474  1.215299
H    -3.571386  -1.864610  -1.722030
H    -2.174401  -2.086175  2.245898
H    -1.585179  -3.449485  -1.734839
N    -4.470667  1.151128  3.490348
C    -4.787213  1.025016  4.915879
H    -5.100330  1.708081  2.919248
H    -4.025171  0.401637  5.389730
H    -5.773055  0.561904  5.038353
H    -4.791634  2.015665  5.385683
Cd    0.317691  -1.794384  0.624709
