30
Energy: -173737.619882 eV PBE+vdW (tier 2 basis)
C    -0.537187  -1.612193  -0.138761
C    -0.686796  -0.816089  1.121764
O    -1.576221  -1.163267  1.943764
H    -0.174469  -2.615568  0.128721
H    0.151089  -1.169251  -0.866222
H    -1.523938  -1.747140  -0.598732
N    0.159402  0.232303  1.278362
C    0.395756  1.184187  2.386101
C    0.818000  0.494364  3.703771
O    0.026889  -0.163789  4.443225
H    0.813295  0.339383  0.507815
H    1.281653  1.738274  2.051087
C    -0.676242  2.319110  2.559594
C    -2.129953  1.988488  2.716149
N    -3.014119  1.984924  1.686198
C    -2.932940  1.685448  3.856961
C    -4.279694  1.699271  2.174936
N    -4.265534  1.512313  3.467814
H    -0.569576  2.977644  1.686391
H    -0.361648  2.918026  3.427305
H    -2.795020  2.187689  0.711931
H    -2.691873  1.947888  4.890350
H    -5.151298  1.643057  1.527920
N    2.085426  0.639823  4.065308
C    2.649590  0.064538  5.292454
H    2.712058  1.164922  3.462100
H    2.019483  0.322236  6.150535
H    3.651927  0.475572  5.435316
H    2.709781  -1.027545  5.207244
Cd    -2.068838  -0.456621  3.935597
