30
Energy: -173736.380614 eV PBE+vdW (tier 2 basis)
C    -1.036023  -2.417997  1.835171
C    -0.991408  -0.957716  2.143716
O    -0.365251  -0.187007  1.351960
H    -0.014613  -2.796079  1.701054
H    -1.552805  -2.551009  0.872927
H    -1.553898  -3.006917  2.599699
N    -1.651193  -0.518518  3.232627
C    -1.968786  0.877882  3.567975
C    -0.849790  1.490105  4.438541
O    0.250936  1.849940  3.906584
H    -2.111249  -1.234216  3.790910
H    -1.944096  1.451455  2.627367
C    -3.392987  0.985465  4.140963
C    -4.446104  0.616915  3.143642
N    -5.768584  0.463697  3.472668
C    -4.406520  0.406207  1.752254
C    -6.452451  0.177792  2.316022
N    -5.640770  0.139536  1.266805
H    -3.550239  2.024853  4.476751
H    -3.494709  0.349302  5.039865
H    -6.184834  0.556366  4.395650
H    -3.546528  0.452227  1.089527
H    -7.524761  0.005148  2.299200
N    -1.020143  1.635044  5.739686
C    -0.007903  2.194574  6.645876
H    -1.899225  1.333554  6.150221
H    -0.501172  2.481327  7.578257
H    0.453340  3.073822  6.185398
H    0.768046  1.447875  6.856519
Cd    0.799721  1.586373  1.814164
