30
Energy: -173735.917547 eV PBE+vdW (tier 2 basis)
C    1.498420  1.465364  0.504500
C    0.897241  0.670853  1.617137
O    1.653234  -0.067860  2.331104
H    0.770811  2.063151  -0.054251
H    2.284581  2.120112  0.903576
H    1.994467  0.767475  -0.186161
N    -0.432023  0.746702  1.802860
C    -1.324905  -0.106116  2.601048
C    -1.343306  0.222307  4.101780
O    -0.317039  0.585252  4.763722
H    -0.913369  1.379662  1.168389
H    -2.323441  0.140890  2.217926
C    -1.118051  -1.640182  2.330156
C    -2.280203  -2.443136  2.802241
N    -2.204109  -3.488703  3.688386
C    -3.657071  -2.337211  2.509832
C    -3.477098  -3.969520  3.875197
N    -4.369319  -3.268036  3.186869
H    -0.181122  -1.995996  2.775736
H    -1.007778  -1.747744  1.239927
H    -1.356803  -3.910571  4.058311
H    -4.141110  -1.642745  1.826257
H    -3.691779  -4.828953  4.504267
N    -2.512923  0.089330  4.708375
C    -2.748334  0.263622  6.143578
H    -3.324534  -0.124991  4.129107
H    -1.824187  0.074004  6.695165
H    -3.528342  -0.437384  6.457310
H    -3.085069  1.288891  6.346470
Cd    1.776157  0.105530  4.475185
