30
Energy: -173735.779453 eV PBE+vdW (tier 2 basis)
C    -2.226849  -0.154553  -0.081821
C    -1.643147  -0.673022  1.195711
O    -0.662885  -1.398361  1.292222
H    -3.281371  0.131046  0.008118
H    -2.109109  -0.911797  -0.864099
H    -1.654178  0.730321  -0.398104
N    -2.286415  -0.290162  2.393963
C    -1.559817  -0.596256  3.598366
C    -1.534100  -2.126649  3.843094
O    -0.566813  -2.698242  4.466516
H    -2.938449  0.490649  2.384286
H    -0.493604  -0.330370  3.427788
C    -2.101315  0.216437  4.808061
C    -1.164726  0.308984  5.976988
N    -1.552018  0.217897  7.259867
C    0.255792  0.579298  6.062524
C    -0.449520  0.436851  8.095433
N    0.634177  0.653964  7.413728
H    -3.076417  -0.173400  5.132119
H    -2.274221  1.249113  4.458002
H    -2.502661  0.033008  7.583446
H    0.800042  1.186963  5.330991
H    -0.538489  0.410374  9.179188
N    -2.565272  -2.830474  3.438721
C    -2.690511  -4.287508  3.538837
H    -3.260599  -2.314795  2.897460
H    -3.751660  -4.548515  3.501667
H    -2.255992  -4.635786  4.479705
H    -2.167719  -4.764118  2.698914
Cd    0.948846  -1.438897  5.238309
