30
Energy: -173737.583645 eV PBE+vdW (tier 2 basis)
C    0.304869  0.256983  0.515082
C    0.045266  -0.324350  1.872538
O    1.027008  -0.417268  2.664092
H    0.691371  1.277786  0.645970
H    -0.578045  0.291907  -0.131878
H    1.098676  -0.319398  0.022406
N    -1.234311  -0.682884  2.133584
C    -2.007132  -1.115361  3.325530
C    -1.478257  -0.553180  4.666000
O    -0.431888  -0.968236  5.245618
H    -1.844091  -0.523570  1.334837
H    -2.988342  -0.648121  3.163776
C    -2.315691  -2.658857  3.348005
C    -1.158890  -3.486038  3.791522
N    -1.006649  -3.967228  5.080902
C    0.088141  -3.610829  3.220863
C    0.292250  -4.263643  5.297271
N    1.019917  -4.034148  4.188149
H    -2.634597  -2.942925  2.335678
H    -3.186480  -2.818260  3.999039
H    -1.751566  -4.078329  5.766591
H    0.388633  -3.444918  2.190209
H    0.681600  -4.654056  6.232751
N    -2.244805  0.373165  5.231818
C    -1.971837  1.026969  6.513231
H    -3.092566  0.657240  4.747280
H    -1.929761  2.112456  6.363737
H    -1.018486  0.668230  6.905737
H    -2.775606  0.795558  7.222870
Cd    1.387263  -1.779695  4.279792
