30
Energy: -173735.980410 eV PBE+vdW (tier 2 basis)
C    -0.653968  -0.318502  -0.297758
C    -0.379673  -0.179310  1.164162
O    0.693590  -0.684887  1.630963
H    0.195413  0.078505  -0.868765
H    -1.578187  0.172315  -0.620564
H    -0.719923  -1.390740  -0.534561
N    -1.297083  0.453932  1.916926
C    -1.470251  0.514448  3.375233
C    -0.614890  1.598486  4.039320
O    0.632965  1.723549  3.801138
H    -2.093325  0.803500  1.390454
H    -2.522258  0.795276  3.504195
C    -1.278662  -0.852168  4.134709
C    -2.011604  -2.003493  3.555291
N    -3.279098  -2.393289  3.917443
C    -1.628509  -2.938919  2.573022
C    -3.603555  -3.493400  3.163085
N    -2.613775  -3.834933  2.346029
H    -1.589420  -0.670597  5.174499
H    -0.207409  -1.111384  4.173453
H    -3.864637  -1.983872  4.640092
H    -0.664131  -3.014368  2.078232
H    -4.561624  -3.998642  3.248095
N    -1.173720  2.423817  4.913039
C    -2.585099  2.547897  5.298371
H    -0.517387  3.077819  5.342994
H    -2.928736  1.661602  5.846153
H    -3.222253  2.729420  4.424085
H    -2.674477  3.411377  5.963245
Cd    2.013687  0.242561  3.056420
