30
Energy: -173735.938600 eV PBE+vdW (tier 2 basis)
C    1.665712  0.968939  0.498172
C    0.993803  0.235149  1.612125
O    1.682277  -0.557551  2.336610
H    2.107376  0.227257  -0.183696
H    0.993304  1.619828  -0.070313
H    2.500224  1.560117  0.898230
N    -0.325829  0.421576  1.787672
C    -1.292577  -0.349198  2.583598
C    -1.296839  -0.008652  4.081636
O    -0.249230  0.269859  4.751211
H    -0.748634  1.087906  1.145681
H    -2.263979  -0.023863  2.189416
C    -1.210648  -1.896944  2.325602
C    -2.440998  -2.596538  2.789600
N    -2.462510  -3.637384  3.684164
C    -3.800783  -2.378846  2.479540
C    -3.773247  -4.009223  3.858726
N    -4.595876  -3.241660  3.154434
H    -0.311669  -2.326168  2.784549
H    -1.097677  -2.021984  1.237510
H    -1.657869  -4.125633  4.067346
H    -4.217371  -1.652070  1.785219
H    -4.066065  -4.842638  4.491267
N    -2.478862  -0.035853  4.677842
C    -2.710737  0.171436  6.109212
H    -3.300803  -0.184829  4.092714
H    -1.814307  -0.100603  6.671965
H    -3.556682  -0.449936  6.419547
H    -2.950468  1.225571  6.301548
Cd    1.798967  -0.383066  4.480870
