30
Energy: -173735.913928 eV PBE+vdW (tier 2 basis)
C    -0.264945  0.685947  0.061553
C    -0.165275  0.093806  1.433173
O    0.869256  -0.084847  2.061203
H    0.591157  0.353588  -0.535458
H    -0.194978  1.780939  0.143958
H    -1.199793  0.435815  -0.453125
N    -1.374016  -0.296722  2.051225
C    -1.262489  -0.631666  3.446819
C    -0.480787  -1.957785  3.624658
O    0.217079  -2.200762  4.675673
H    -2.258218  0.048781  1.685679
H    -0.613990  0.132742  3.928507
C    -2.653054  -0.632469  4.142250
C    -2.609503  -0.538997  5.639575
N    -3.407760  -1.240547  6.461039
C    -1.842183  0.300724  6.536133
C    -3.169653  -0.851796  7.785508
N    -2.248122  0.060169  7.859732
H    -3.240860  -1.507958  3.832941
H    -3.198925  0.257844  3.784453
H    -4.094062  -1.938937  6.171490
H    -1.487684  1.302828  6.269995
H    -3.711732  -1.294709  8.618058
N    -0.588897  -2.867472  2.684898
C    0.121445  -4.150209  2.668616
H    -1.108346  -2.580755  1.854379
H    -0.329183  -4.784647  1.901266
H    0.040298  -4.638280  3.644678
H    1.181311  -3.986614  2.433182
Cd    0.166913  -0.744012  6.210944
