30
Energy: -173736.394843 eV PBE+vdW (tier 2 basis)
C    -0.827956  -2.320870  1.927350
C    -0.859517  -0.870018  2.278648
O    -0.238853  -0.050185  1.533367
H    0.214139  -2.653949  1.839296
H    -1.285304  -2.444909  0.934355
H    -1.361321  -2.952954  2.645329
N    -1.577451  -0.492144  3.353727
C    -1.969508  0.878569  3.715547
C    -0.912740  1.511699  4.649088
O    0.190916  1.928497  4.167513
H    -2.026760  -1.243465  3.872486
H    -1.932797  1.480869  2.793540
C    -3.419295  0.907388  4.231436
C    -4.414725  0.517408  3.184144
N    -5.741346  0.302094  3.456707
C    -4.311071  0.335418  1.791992
C    -6.366011  0.009426  2.268735
N    -5.512527  0.025872  1.252767
H    -3.637088  1.929864  4.584965
H    -3.528462  0.244074  5.109680
H    -6.196719  0.359533  4.363934
H    -3.428485  0.431003  1.165336
H    -7.428328  -0.208419  2.205575
N    -1.151038  1.607886  5.944457
C    -0.229177  2.172884  6.937083
H    -2.040534  1.260211  6.293201
H    0.579501  2.696466  6.423293
H    0.186372  1.367951  7.556260
H    -0.780362  2.871922  7.575423
Cd    0.829446  1.754879  2.092766
