30
Energy: -173736.425327 eV PBE+vdW (tier 2 basis)
C    -1.136107  -2.032520  -0.718766
C    -0.739791  -1.375801  0.563267
O    0.404440  -1.635209  1.047267
H    -2.141605  -1.757911  -1.054983
H    -1.067814  -3.122271  -0.604426
H    -0.408388  -1.749023  -1.492869
N    -1.608805  -0.516563  1.131554
C    -1.335764  0.391286  2.254896
C    -1.626163  -0.321391  3.597002
O    -0.731737  -1.043217  4.148549
H    -2.506875  -0.415582  0.663485
H    -0.254175  0.596273  2.253757
C    -2.053200  1.733024  2.020338
C    -1.647393  2.810093  2.971761
N    -1.841285  4.143503  2.709748
C    -1.041870  2.791083  4.242810
C    -1.364068  4.850726  3.783918
N    -0.877189  4.045866  4.720673
H    -3.152240  1.592267  2.023720
H    -1.814412  2.045898  0.990727
H    -2.253305  4.547595  1.872492
H    -0.734047  1.929627  4.829402
H    -1.393476  5.935650  3.829041
N    -2.812259  -0.191434  4.161298
C    -3.219398  -0.836796  5.414755
H    -3.473202  0.455909  3.739076
H    -2.983543  -0.186475  6.267443
H    -2.689639  -1.786266  5.526591
H    -4.298879  -1.011722  5.381481
Cd    1.062189  -1.725617  3.112990
