30
Energy: -173735.646078 eV PBE+vdW (tier 2 basis)
C    0.019438  0.471174  0.110170
C    -0.000038  0.026830  1.538784
O    1.066655  -0.447533  2.026401
H    0.777687  1.257339  -0.007777
H    0.341323  -0.372947  -0.515692
H    -0.946870  0.841158  -0.249099
N    -1.166924  0.147174  2.207103
C    -1.568972  -0.280024  3.561868
C    -0.962320  0.623459  4.659549
O    0.251424  0.526861  5.029220
H    -1.916420  0.566083  1.663407
H    -2.654970  -0.120596  3.578735
C    -1.372948  -1.785002  3.890447
C    -2.086928  -2.739683  3.018274
N    -2.694773  -3.878563  3.504907
C    -2.266041  -2.828139  1.621057
C    -3.211318  -4.558619  2.440593
N    -2.961131  -3.934657  1.290303
H    -1.673879  -1.923210  4.939380
H    -0.269418  -2.054570  3.890328
H    -2.777272  -4.158704  4.478775
H    -1.915236  -2.142991  0.856456
H    -3.763447  -5.487982  2.549653
N    -1.769627  1.508848  5.222038
C    -1.386349  2.455428  6.274550
H    -2.738121  1.537363  4.911433
H    -1.653998  3.470279  5.958605
H    -0.310005  2.390154  6.445584
H    -1.923914  2.212493  7.199313
Cd    1.645391  -0.842420  4.077636
