30
Energy: -173736.998674 eV PBE+vdW (tier 2 basis)
C    0.165479  -0.838965  0.668803
C    0.025485  0.154037  1.781226
O    0.946995  0.993523  1.958250
H    1.166158  -1.286333  0.706915
H    0.098598  -0.297673  -0.286614
H    -0.593508  -1.628476  0.680403
N    -1.106182  0.078302  2.526642
C    -1.631534  0.948140  3.597765
C    -1.741746  2.427272  3.158077
O    -0.786252  3.255007  3.266247
H    -1.742886  -0.659072  2.237344
H    -2.665044  0.604957  3.722347
C    -1.012504  0.736740  5.023842
C    0.473750  0.722997  5.222955
N    1.232635  -0.400566  5.161724
C    1.407969  1.747862  5.566411
C    2.549319  -0.075125  5.455337
N    2.687326  1.200289  5.698304
H    -1.409092  -0.220031  5.391838
H    -1.441942  1.510551  5.676803
H    0.891272  -1.340293  4.965776
H    1.159651  2.690545  6.061688
H    3.340404  -0.820494  5.467262
N    -2.905043  2.851504  2.680780
C    -4.166403  2.120943  2.507003
H    -2.903869  3.838297  2.416615
H    -4.583737  1.804250  3.471574
H    -4.883168  2.802240  2.040164
H    -4.040783  1.259083  1.840647
Cd    1.278651  2.580491  3.414872
