30
Energy: -173736.738345 eV PBE+vdW (tier 2 basis)
C    -3.603222  -0.342796  0.917145
C    -2.745184  -0.580343  2.121887
O    -3.213367  -0.678442  3.264744
H    -3.086434  -0.496677  -0.036344
H    -3.972379  0.692943  0.953202
H    -4.485045  -0.992411  0.971089
N    -1.390731  -0.707093  1.901239
C    -0.364792  -0.811207  2.930236
C    -0.298217  -2.200544  3.605961
O    0.522199  -2.425295  4.567033
H    -1.061629  -0.548859  0.952767
H    0.585408  -0.775633  2.373691
C    -0.274921  0.431939  3.902369
C    -0.900756  0.384240  5.260945
N    -2.184329  0.128578  5.515101
C    -0.307486  0.624881  6.574338
C    -2.399590  0.236342  6.892682
N    -1.309642  0.521683  7.547342
H    -0.713896  1.279300  3.354133
H    0.784496  0.690944  4.031698
H    -2.826590  -0.176469  4.731075
H    0.542445  1.293487  6.749404
H    -3.383398  0.082755  7.330302
N    -0.993481  -3.181638  3.072556
C    -0.969232  -4.583881  3.490045
H    -1.572410  -2.936486  2.270578
H    -0.241738  -4.714201  4.293366
H    -0.684235  -5.208182  2.634753
H    -1.968467  -4.881030  3.831089
Cd    0.774623  -1.363907  6.390577
