30
Energy: -173735.955371 eV PBE+vdW (tier 2 basis)
C    -0.834127  -1.420681  2.673076
C    -0.441468  -0.040804  2.287865
O    0.815154  0.263782  2.401196
H    -0.588511  -2.116555  1.857257
H    -1.896944  -1.506339  2.915343
H    -0.231419  -1.714764  3.542518
N    -1.314175  0.896422  1.908553
C    -2.629767  0.846699  1.233314
C    -2.979960  -0.550579  0.674265
O    -2.242686  -1.084534  -0.171925
H    -0.899480  1.827679  1.859686
H    -3.397022  1.196645  1.937556
C    -2.571103  1.880224  0.031816
C    -1.231628  1.860840  -0.627326
N    -0.750353  0.778159  -1.335084
C    -0.135160  2.667916  -0.404400
C    0.576534  0.888826  -1.484604
N    1.014639  2.049954  -0.930630
H    -2.758009  2.889987  0.420187
H    -3.388054  1.649786  -0.663930
H    -1.312003  -0.085038  -1.445074
H    -0.089541  3.662909  0.030055
H    1.200141  0.171390  -2.010169
N    -4.126712  -1.077194  1.120757
C    -4.686584  -2.339148  0.635209
H    -4.657008  -0.569833  1.823743
H    -4.060947  -2.710227  -0.180286
H    -5.708090  -2.173505  0.273675
H    -4.709924  -3.078044  1.445693
Cd    1.851209  1.410028  0.961669
