30
Energy: -173736.126873 eV PBE+vdW (tier 2 basis)
C    0.299419  -0.229366  0.432079
C    -0.000438  -0.254828  1.895904
O    0.844739  -0.738854  2.744994
H    0.532473  -1.249992  0.098029
H    1.190387  0.388483  0.239279
H    -0.526002  0.165677  -0.168565
N    -1.174869  0.197122  2.307636
C    -1.767735  0.213670  3.641912
C    -3.302635  0.174334  3.330790
O    -3.639553  0.557529  2.204866
H    -1.911563  0.456550  1.618237
H    -1.420877  -0.654995  4.214364
C    -1.475255  1.549956  4.422923
C    -0.024122  1.664295  4.718700
N    0.589421  1.054746  5.805570
C    1.010471  2.078074  3.913683
C    1.920151  1.048006  5.624129
N    2.223222  1.672104  4.458219
H    -2.079250  1.562938  5.339960
H    -1.806486  2.395957  3.807085
H    0.117418  0.717056  6.642869
H    0.962818  2.634431  2.983423
H    2.639497  0.666317  6.342534
N    -4.162219  -0.218690  4.277210
C    -3.894654  -0.725802  5.619242
H    -5.138793  -0.157189  3.989628
H    -2.912968  -1.208997  5.670352
H    -4.644149  -1.485316  5.865259
H    -3.955671  0.073390  6.371595
Cd    2.808217  0.035396  3.100093
