30
Energy: -173736.970390 eV PBE+vdW (tier 2 basis)
C    1.194304  1.909525  2.682802
C    -0.282342  2.158238  2.712991
O    -0.706669  3.199521  3.279045
H    1.658061  2.667028  2.033534
H    1.469538  0.915012  2.315730
H    1.607908  2.061423  3.687246
N    -1.069107  1.229244  2.112449
C    -2.520058  1.207493  1.841137
C    -2.997609  2.461963  1.071437
O    -3.361828  3.531541  1.648727
H    -0.554846  0.454793  1.701950
H    -2.637169  0.374652  1.138194
C    -3.439439  0.792521  3.042998
C    -3.289302  1.446714  4.383867
N    -2.460826  0.991739  5.357841
C    -3.944042  2.564316  4.986642
C    -2.608830  1.785816  6.486313
N    -3.484554  2.735153  6.295730
H    -3.298056  -0.288959  3.179206
H    -4.479840  0.919817  2.710099
H    -1.851539  0.178104  5.289882
H    -4.917794  2.962785  4.688832
H    -2.042429  1.608282  7.396916
N    -3.062571  2.394758  -0.252326
C    -2.757768  1.271049  -1.146717
H    -3.391390  3.257078  -0.690261
H    -2.890356  1.619340  -2.174793
H    -3.445916  0.431271  -0.985441
H    -1.717327  0.942969  -1.035496
Cd    -2.698201  3.996815  3.669470
