30
Energy: -173736.605882 eV PBE+vdW (tier 2 basis)
C    1.679590  1.132372  0.577648
C    1.069022  0.271354  1.638740
O    1.842713  -0.437870  2.347807
H    2.361516  1.850430  1.053528
H    2.293616  0.498956  -0.076979
H    0.944798  1.673689  -0.027334
N    -0.274667  0.290616  1.754629
C    -1.201537  -0.488539  2.606961
C    -1.227043  0.070655  4.047836
O    -0.261133  -0.096716  4.855643
H    -0.740226  0.922390  1.108337
H    -2.187624  -0.304987  2.162936
C    -0.990980  -2.027446  2.536575
C    -2.203756  -2.810489  2.843808
N    -2.606164  -3.911691  2.119073
C    -3.143392  -2.727160  3.892534
C    -3.730353  -4.407834  2.713824
N    -4.067006  -3.704403  3.794256
H    -0.164943  -2.348223  3.245790
H    -0.596118  -2.276755  1.542779
H    -2.173283  -4.280346  1.276124
H    -3.157095  -2.023968  4.720703
H    -4.270063  -5.266588  2.324337
N    -2.305904  0.743937  4.414476
C    -2.509259  1.357227  5.731154
H    -3.048507  0.864002  3.729061
H    -2.331391  2.438714  5.671169
H    -1.816364  0.913120  6.449850
H    -3.542965  1.180088  6.046772
Cd    1.522519  -1.248538  4.329960
