30
Energy: -173737.511839 eV PBE+vdW (tier 2 basis)
C    2.335262  0.738087  1.496372
C    1.139238  0.316085  2.296064
O    1.333405  -0.027318  3.497430
H    3.074452  -0.073643  1.498666
H    2.104971  1.020342  0.463686
H    2.804508  1.592777  2.003823
N    -0.052951  0.358914  1.655002
C    -1.481834  0.222566  2.035289
C    -1.799096  0.667742  3.482302
O    -1.507235  -0.008083  4.512514
H    0.046315  0.656965  0.687269
H    -1.980523  0.946758  1.376417
C    -2.111877  -1.161804  1.629967
C    -1.757641  -2.268760  2.561719
N    -2.585881  -2.712705  3.578588
C    -0.516723  -2.778853  2.871976
C    -1.849456  -3.365014  4.502780
N    -0.556679  -3.410122  4.130193
H    -1.775313  -1.387257  0.608635
H    -3.201310  -1.030631  1.570973
H    -3.592896  -2.569265  3.631418
H    0.398130  -2.756293  2.286616
H    -2.257328  -3.807666  5.406579
N    -2.478130  1.805095  3.587900
C    -2.917857  2.410771  4.846291
H    -2.720900  2.301200  2.734002
H    -4.013984  2.433969  4.881645
H    -2.537421  3.437348  4.904815
H    -2.534647  1.823364  5.682747
Cd    0.228402  -1.358569  4.764321
