30
Energy: -173736.584210 eV PBE+vdW (tier 2 basis)
C    -0.250872  -1.473613  -0.702396
C    -1.011642  -0.900588  0.452133
O    -2.194729  -1.308822  0.646633
H    -0.843688  -1.334105  -1.616613
H    -0.147488  -2.557476  -0.554596
H    0.740068  -1.028994  -0.841394
N    -0.390548  0.034399  1.200000
C    -0.862450  0.862927  2.332897
C    -0.878827  0.045061  3.644549
O    -1.751459  -0.849046  3.873898
H    0.560838  0.239612  0.906206
H    -0.091531  1.636540  2.434919
C    -2.187569  1.627575  2.055549
C    -2.343982  2.859177  2.853684
N    -2.794720  4.054035  2.334939
C    -2.182799  3.121150  4.230304
C    -2.858761  4.950920  3.362097
N    -2.496417  4.399975  4.520023
H    -3.081941  0.956096  2.249230
H    -2.245465  1.838865  0.979589
H    -3.013580  4.254365  1.362380
H    -1.890019  2.424810  5.011361
H    -3.161119  5.984831  3.220391
N    0.065369  0.310649  4.533057
C    0.218688  -0.365620  5.825530
H    0.751712  1.025085  4.300525
H    1.009197  -1.124312  5.759889
H    -0.724324  -0.845152  6.098972
H    0.495305  0.377455  6.580843
Cd    -3.365251  -1.301799  2.468402
