30
Energy: -173736.625412 eV PBE+vdW (tier 2 basis)
C    0.888541  0.010021  0.601823
C    0.174652  0.792345  1.656478
O    0.823556  1.473018  2.540357
H    1.470607  0.688606  -0.041336
H    1.600992  -0.672859  1.084700
H    0.212931  -0.567758  -0.036904
N    -1.149507  0.745001  1.689855
C    -2.093086  1.326677  2.639082
C    -3.309118  0.341937  2.561192
O    -3.433003  -0.302223  1.515846
H    -1.665203  0.097300  1.061484
H    -1.642621  1.366478  3.639539
C    -2.600484  2.752131  2.197034
C    -1.478803  3.725423  2.222364
N    -1.060712  4.387038  3.369931
C    -0.479855  3.944067  1.303397
C    0.155860  4.917285  3.163752
N    0.553849  4.661582  1.892222
H    -3.420239  3.054701  2.862443
H    -3.018910  2.677137  1.185043
H    -1.609540  4.510012  4.219416
H    -0.435961  3.631850  0.265269
H    0.697104  5.520933  3.886152
N    -4.147937  0.309718  3.601197
C    -5.333782  -0.551767  3.637538
H    -3.894688  0.801003  4.452868
H    -6.131551  -0.036988  4.182664
H    -5.107456  -1.503344  4.135836
H    -5.654127  -0.753453  2.611199
Cd    2.124492  3.124125  2.108560
