30
Energy: -173735.972481 eV PBE+vdW (tier 2 basis)
C    -0.402783  0.131986  -0.096058
C    -0.236867  0.012978  1.386077
O    0.890837  -0.345005  1.831859
H    -0.110393  -0.819141  -0.561624
H    0.295268  0.893621  -0.470621
H    -1.420942  0.391235  -0.405561
N    -1.314948  0.286418  2.152743
C    -1.516013  0.185726  3.610536
C    -0.745729  1.290669  4.367169
O    0.485801  1.175772  4.672624
H    -2.142476  0.560916  1.630842
H    -2.583906  0.390766  3.747344
C    -1.286461  -1.214184  4.239014
C    -2.132575  -2.304631  3.711967
N    -2.677801  -3.279980  4.521019
C    -2.507754  -2.694030  2.408414
C    -3.347691  -4.156735  3.717718
N    -3.255328  -3.815658  2.433281
H    -1.428958  -1.105414  5.324265
H    -0.199050  -1.530645  4.142502
H    -2.624620  -3.333590  5.534957
H    -2.257311  -2.214013  1.468096
H    -3.890046  -5.013537  4.107876
N    -1.389715  2.389771  4.729317
C    -2.798510  2.751796  4.522201
H    -0.805514  3.069746  5.219460
H    -3.046577  2.794091  3.454918
H    -2.947978  3.750759  4.940872
H    -3.471615  2.062784  5.047092
Cd    1.731653  -0.393472  3.833698
