30
Energy: -173736.663110 eV PBE+vdW (tier 2 basis)
C    0.562333  -0.495814  1.289356
C    -0.186579  -0.561252  2.579196
O    -0.182917  -1.626630  3.305986
H    0.187169  -1.286099  0.623468
H    1.629878  -0.698124  1.460775
H    0.465476  0.470942  0.785495
N    -0.906065  0.487366  2.955755
C    -1.809881  0.622438  4.096605
C    -2.872740  1.644902  3.574565
O    -2.524017  2.356359  2.623781
H    -1.064512  1.284885  2.305731
H    -2.238951  -0.357381  4.338663
C    -1.128490  1.240598  5.371440
C    0.067430  0.447723  5.767340
N    1.369387  0.829416  5.472211
C    0.167368  -0.858913  6.183002
C    2.195993  -0.215412  5.647453
N    1.482526  -1.286890  6.084229
H    -1.870362  1.247366  6.180675
H    -0.860884  2.287789  5.174628
H    1.666118  1.773268  5.226503
H    -0.620858  -1.526343  6.514194
H    3.275575  -0.176501  5.537592
N    -4.059291  1.737843  4.183406
C    -4.606659  0.943014  5.278948
H    -4.657498  2.468416  3.797636
H    -5.672924  0.772656  5.095634
H    -4.499318  1.462552  6.241398
H    -4.122779  -0.037554  5.336332
Cd    1.410473  -2.616617  4.326003
