30
Energy: -173736.870912 eV PBE+vdW (tier 2 basis)
C    -0.806371  -0.053986  0.020603
C    -0.431376  0.089413  1.459003
O    0.648616  0.705941  1.732490
H    -1.745073  -0.598203  -0.128189
H    0.006266  -0.557530  -0.519421
H    -0.900620  0.951496  -0.415191
N    -1.260868  -0.422652  2.385129
C    -1.270700  -0.162109  3.834498
C    -0.384115  -1.161122  4.618284
O    0.889483  -1.013091  4.634703
H    -2.087864  -0.898657  2.025203
H    -0.785202  0.815522  3.989665
C    -2.720023  0.014485  4.332792
C    -3.664006  -1.125291  4.079090
N    -4.986541  -1.058435  4.447838
C    -3.546813  -2.383259  3.460981
C    -5.591254  -2.225575  4.057352
N    -4.736425  -3.040538  3.460358
H    -3.110758  0.926807  3.852191
H    -2.677252  0.249172  5.409283
H    -5.444958  -0.283556  4.921096
H    -2.665742  -2.847466  3.022043
H    -6.644404  -2.425107  4.233630
N    -0.942170  -2.142896  5.292935
C    -0.233749  -3.147813  6.091831
H    -1.960263  -2.238868  5.215224
H    -0.664722  -3.168817  7.099366
H    0.826631  -2.895016  6.145594
H    -0.358741  -4.134705  5.628864
Cd    1.929015  0.429859  3.433757
