30
Energy: -173736.641699 eV PBE+vdW (tier 2 basis)
C    -2.285328  2.541250  1.212633
C    -1.517975  1.268820  1.141745
O    -0.225685  1.353635  1.061439
H    -1.841505  3.159559  2.006833
H    -2.161398  3.107629  0.278593
H    -3.349483  2.402265  1.421850
N    -2.102729  0.076707  1.202271
C    -3.483011  -0.343870  0.940492
C    -3.590936  -1.737922  1.602326
O    -2.626797  -2.508020  1.447722
H    -1.501082  -0.754470  1.302612
H    -4.195802  0.380505  1.349638
C    -3.738100  -0.511268  -0.622993
C    -2.471047  -0.875034  -1.318748
N    -1.822259  -2.093432  -1.195939
C    -1.535451  -0.029624  -1.865089
C    -0.542828  -1.967929  -1.576080
N    -0.314801  -0.702560  -2.006251
H    -4.540395  -1.245074  -0.773994
H    -4.092508  0.444411  -1.028755
H    -2.214617  -2.915988  -0.731706
H    -1.657150  1.000071  -2.187728
H    0.183330  -2.774976  -1.575534
N    -4.726549  -2.026866  2.239928
C    -5.002051  -3.320493  2.868322
H    -5.428571  -1.298731  2.339977
H    -4.181743  -4.004538  2.637448
H    -5.945299  -3.724644  2.482797
H    -5.079874  -3.199467  3.955599
Cd    0.809642  0.400051  -0.515405
