30
Energy: -173736.680401 eV PBE+vdW (tier 2 basis)
C    -0.875746  -0.472078  0.117406
C    -0.531768  -0.060801  1.511561
O    0.513032  0.643939  1.686097
H    -0.024364  -1.004932  -0.325835
H    -1.029613  0.435079  -0.485125
H    -1.773491  -1.097008  0.060383
N    -1.358133  -0.433610  2.508226
C    -1.320800  0.017450  3.904610
C    -0.411025  -0.910658  4.738894
O    0.852042  -0.688146  4.809418
H    -2.115544  -1.064669  2.253644
H    -0.821053  0.999934  3.912558
C    -2.753391  0.304411  4.457070
C    -3.718911  -0.830743  4.504175
N    -4.552458  -1.195881  3.466388
C    -4.041988  -1.727781  5.535356
C    -5.316831  -2.254515  3.903820
N    -5.011786  -2.595931  5.142466
H    -3.157432  1.133904  3.858592
H    -2.625298  0.698688  5.475345
H    -4.722180  -0.669452  2.613168
H    -3.670629  -1.719431  6.558861
H    -6.070787  -2.726344  3.279759
N    -0.920363  -1.949235  5.359421
C    -0.146930  -2.915635  6.149525
H    -1.940481  -2.078621  5.294380
H    0.636349  -3.369370  5.531349
H    -0.832658  -3.690502  6.501658
H    0.318516  -2.417522  7.008443
Cd    1.777725  0.676463  3.434385
