30
Energy: -173736.979682 eV PBE+vdW (tier 2 basis)
C    -1.796315  1.108182  0.226424
C    -1.325815  0.538591  1.529344
O    -0.246837  -0.109594  1.548859
H    -1.103014  1.909231  -0.070220
H    -2.812022  1.516453  0.261373
H    -1.733964  0.335728  -0.549765
N    -2.107932  0.771501  2.614063
C    -1.902550  0.480002  4.046825
C    -0.571212  1.056955  4.584274
O    0.527061  0.423295  4.537518
H    -2.940398  1.318905  2.413760
H    -2.690266  1.059496  4.541845
C    -2.203178  -0.991764  4.499845
C    -1.614332  -2.155509  3.760100
N    -2.214411  -2.760214  2.703715
C    -0.426502  -2.922561  3.963756
C    -1.436481  -3.834003  2.294160
N    -0.361038  -3.955686  3.024185
H    -3.296702  -1.101628  4.482774
H    -1.910078  -1.068784  5.556991
H    -3.108728  -2.494831  2.294319
H    0.122560  -3.000533  4.906129
H    -1.721262  -4.469408  1.459482
N    -0.595291  2.255192  5.153974
C    -1.730243  3.158049  5.382832
H    0.317359  2.567235  5.490416
H    -2.223670  3.426062  4.440975
H    -1.338988  4.077038  5.828025
H    -2.452563  2.724698  6.086548
Cd    0.834812  -1.187099  3.105474
