30
Energy: -173736.393383 eV PBE+vdW (tier 2 basis)
C    -0.121519  -0.454164  -0.224627
C    -0.170874  -0.432783  1.267499
O    0.827451  -0.876110  1.915337
H    -1.036160  -0.077429  -0.694680
H    0.081090  -1.476322  -0.569590
H    0.728158  0.164276  -0.550226
N    -1.261451  0.090377  1.859884
C    -1.403374  0.461789  3.276000
C    -1.976566  -0.721727  4.088444
O    -1.224882  -1.704018  4.394731
H    -1.996297  0.409111  1.232285
H    -0.387598  0.615413  3.674501
C    -2.161556  1.794406  3.411231
C    -1.419886  2.946025  2.808293
N    -1.974617  4.189296  2.643409
C    -0.097753  3.090437  2.346745
C    -1.007866  5.006679  2.110095
N    0.133092  4.354890  1.924934
H    -2.330606  1.985323  4.484946
H    -3.162366  1.716569  2.947048
H    -2.921182  4.473520  2.882048
H    0.690018  2.342459  2.318837
H    -1.190357  6.051677  1.876371
N    -3.245994  -0.717522  4.452512
C    -3.915129  -1.781206  5.210856
H    -3.816196  0.080894  4.185813
H    -4.601958  -2.328369  4.552952
H    -4.483700  -1.328588  6.030523
H    -3.165629  -2.466465  5.611745
Cd    0.852705  -1.961439  3.795085
