30
Energy: -173735.958623 eV PBE+vdW (tier 2 basis)
C    -0.765807  -1.886033  2.155264
C    -0.279895  -0.500830  1.927794
O    1.005998  -0.323996  1.926988
H    -0.682463  -2.464980  1.223624
H    -1.798975  -1.918810  2.511810
H    -0.104771  -2.360844  2.892339
N    -1.089556  0.553605  1.799540
C    -2.469336  0.718593  1.291916
C    -3.013258  -0.539408  0.578518
O    -2.425938  -0.990143  -0.419556
H    -0.590665  1.443250  1.834565
H    -3.117090  1.012728  2.129182
C    -2.440991  1.921781  0.258847
C    -1.190210  1.900237  -0.556032
N    -0.899175  0.912471  -1.475030
C    -0.000535  2.567378  -0.348781
C    0.408172  0.936944  -1.767393
N    1.017838  1.951652  -1.099993
H    -2.484144  2.868750  0.812705
H    -3.347881  1.870915  -0.357183
H    -1.552479  0.129092  -1.649794
H    0.191197  3.470875  0.223759
H    0.896177  0.266513  -2.468952
N    -4.152298  -1.035480  1.076971
C    -4.881538  -2.155821  0.481514
H    -4.552098  -0.604647  1.906039
H    -5.915730  -1.855031  0.277683
H    -4.887113  -3.010566  1.169161
H    -4.388029  -2.440098  -0.451127
Cd    1.987590  0.946902  0.555622
