30
Energy: -173736.970716 eV PBE+vdW (tier 2 basis)
C    1.042343  1.800162  2.390214
C    -0.420291  2.082584  2.543891
O    -0.773094  3.116173  3.170174
H    1.261795  0.806938  1.984062
H    1.539657  1.922742  3.359949
H    1.470519  2.558926  1.718227
N    -1.275986  1.192005  1.980613
C    -2.742721  1.223416  1.819680
C    -3.231388  2.519945  1.130540
O    -3.541249  3.569882  1.771931
H    -0.817871  0.416300  1.510214
H    -2.940161  0.421183  1.099064
C    -3.582923  0.792986  3.072350
C    -3.314599  1.393592  4.419902
N    -2.432879  0.879110  5.314194
C    -3.889503  2.505956  5.108385
C    -2.475343  1.633791  6.478316
N    -3.332514  2.614189  6.385693
H    -3.465980  -0.296340  3.161391
H    -4.640517  0.961972  2.822496
H    -1.855404  0.051685  5.173196
H    -4.869919  2.941779  4.897072
H    -1.851442  1.405560  7.338689
N    -3.365384  2.511167  -0.189741
C    -3.132513  1.419403  -1.142873
H    -3.692965  3.398827  -0.574841
H    -2.088673  1.083591  -1.117838
H    -3.336880  1.803884  -2.145931
H    -3.812160  0.576567  -0.962576
Cd    -2.704959  3.949023  3.747553
