30
Energy: -173736.998575 eV PBE+vdW (tier 2 basis)
C    0.073934  -0.947988  0.678862
C    -0.030393  0.072581  1.770156
O    0.909561  0.897946  1.913613
H    1.063807  -1.418944  0.717954
H    0.011316  -0.426799  -0.287899
H    -0.703660  -1.718376  0.715383
N    -1.151275  0.035190  2.534311
C    -1.643971  0.936733  3.594874
C    -1.733304  2.408982  3.128427
O    -0.759201  3.218606  3.202224
H    -1.805962  -0.696267  2.271310
H    -2.681622  0.615352  3.741213
C    -1.008281  0.742876  5.016225
C    0.480230  0.707568  5.196258
N    1.217718  -0.430976  5.156255
C    1.437061  1.723790  5.501446
C    2.543517  -0.122292  5.426128
N    2.707613  1.156195  5.633366
H    -1.416004  -0.199232  5.408980
H    -1.415380  1.537062  5.659022
H    0.856917  -1.369195  4.990249
H    1.211943  2.683362  5.974895
H    3.320876  -0.881715  5.449166
N    -2.897143  2.848796  2.666700
C    -4.175690  2.141213  2.525737
H    -2.879965  3.830016  2.383128
H    -4.087666  1.290050  1.839557
H    -4.563474  1.812828  3.498577
H    -4.897871  2.842715  2.098831
Cd    1.294370  2.505920  3.332053
