30
Energy: -173736.878234 eV PBE+vdW (tier 2 basis)
C    -0.678798  2.853556  0.654230
C    -0.856868  1.391939  0.487873
O    0.146270  0.610336  0.498284
H    -1.622272  3.407041  0.646897
H    -0.096777  3.067481  1.559899
H    -0.067109  3.207771  -0.192905
N    -2.098789  0.853928  0.268492
C    -3.272756  1.033953  1.132359
C    -2.794273  1.023974  2.612651
O    -1.705432  0.465992  2.948877
H    -2.030679  -0.078046  -0.139858
H    -3.775825  1.988031  0.917289
C    -4.299097  -0.132311  0.841244
C    -3.580604  -1.449351  0.842875
N    -3.066913  -2.042838  -0.310686
C    -2.850152  -2.009988  1.865494
C    -2.025174  -2.842480  0.020329
N    -1.827594  -2.820310  1.350219
H    -4.785572  0.060853  -0.123961
H    -5.086856  -0.107110  1.604486
H    -3.466198  -1.962474  -1.246434
H    -2.969748  -1.879453  2.935949
H    -1.453489  -3.427395  -0.694276
N    -3.576838  1.626677  3.496021
C    -3.331954  1.701238  4.939952
H    -4.397371  2.117298  3.145085
H    -4.199824  1.302961  5.478377
H    -2.441326  1.118613  5.183926
H    -3.178226  2.746980  5.232561
Cd    -0.435756  -1.058867  1.811752
