30
Energy: -173736.582792 eV PBE+vdW (tier 2 basis)
C    -1.495809  -2.043425  -0.878308
C    -0.937811  -1.460101  0.377622
O    0.254797  -1.757884  0.712125
H    -1.434128  -3.138652  -0.833866
H    -0.857888  -1.726685  -1.716903
H    -2.527433  -1.736005  -1.080153
N    -1.713945  -0.622908  1.090777
C    -1.303210  0.317222  2.145984
C    -1.470515  -0.321692  3.541848
O    -0.882971  -1.426406  3.821738
H    -2.663137  -0.502697  0.741626
H    -0.218652  0.481876  2.026665
C    -2.043748  1.663394  1.849168
C    -1.900904  2.762304  2.843186
N    -0.762229  3.494116  3.080190
C    -2.860477  3.319354  3.709300
C    -1.066557  4.428161  4.042697
N    -2.326322  4.331250  4.437402
H    -3.120724  1.457218  1.748527
H    -1.697885  1.990281  0.856555
H    0.122037  3.430758  2.583817
H    -3.917358  3.064134  3.774221
H    -0.337177  5.144134  4.411303
N    -2.212353  0.262492  4.456082
C    -2.398523  -0.228201  5.825406
H    -2.622379  1.175184  4.221004
H    -1.460622  -0.642463  6.208102
H    -3.169065  -1.009671  5.843164
H    -2.721047  0.611601  6.447232
Cd    0.777034  -2.272689  2.740488
