30
Energy: -173736.700134 eV PBE+vdW (tier 2 basis)
C    -3.611763  -0.135056  0.949565
C    -2.761945  -0.426355  2.148285
O    -3.236895  -0.565621  3.284058
H    -3.979289  0.898852  1.028375
H    -4.495231  -0.784455  0.969758
H    -3.089379  -0.248738  -0.006487
N    -1.407292  -0.554852  1.929918
C    -0.388001  -0.704380  2.959944
C    -0.333566  -2.118392  3.583408
O    0.480371  -2.383816  4.539647
H    -1.071720  -0.362745  0.990014
H    0.565616  -0.653974  2.410420
C    -0.295981  0.500771  3.978628
C    -0.930130  0.406796  5.330953
N    -2.216901  0.151356  5.568659
C    -0.342586  0.594355  6.655558
C    -2.439135  0.209805  6.948140
N    -1.350878  0.462778  7.618697
H    -0.726042  1.371035  3.459994
H    0.764319  0.747559  4.123680
H    -2.856921  -0.119971  4.770710
H    0.511086  1.249840  6.859697
H    -3.426481  0.047463  7.374483
N    -1.031393  -3.074733  3.009936
C    -1.016457  -4.491857  3.374482
H    -1.605317  -2.796262  2.215272
H    -0.283566  -4.658492  4.166126
H    -0.743971  -5.085624  2.493824
H    -2.015408  -4.793463  3.712593
Cd    0.726854  -1.393823  6.403658
