30
Energy: -173736.878516 eV PBE+vdW (tier 2 basis)
C    -0.319731  2.636339  0.733467
C    -0.677617  1.209169  0.559194
O    0.221329  0.309830  0.549941
H    0.234303  2.945217  -0.170073
H    -1.191636  3.290803  0.827238
H    0.369439  2.761878  1.577110
N    -1.978884  0.831295  0.347455
C    -3.113149  1.143983  1.226544
C    -2.622224  1.066337  2.700550
O    -1.607586  0.375034  3.020942
H    -2.030267  -0.096469  -0.072742
H    -3.501072  2.152791  1.023215
C    -4.275791  0.112286  0.940430
C    -3.722797  -1.282094  0.924160
N    -3.299404  -1.924703  -0.239584
C    -3.054997  -1.936530  1.933866
C    -2.360205  -2.849173  0.073048
N    -2.145998  -2.862438  1.400370
H    -4.746403  0.370862  -0.017328
H    -5.046064  0.226523  1.713390
H    -3.696905  -1.788590  -1.169645
H    -3.145779  -1.801487  3.006632
H    -1.873032  -3.493846  -0.652679
N    -3.311253  1.759638  3.595301
C    -3.040507  1.798195  5.036060
H    -4.072287  2.345521  3.256623
H    -2.845427  2.832896  5.341613
H    -3.911772  1.421353  5.585091
H    -2.166896  1.180454  5.253769
Cd    -0.547391  -1.285074  1.859040
