30
Energy: -173736.584692 eV PBE+vdW (tier 2 basis)
C    1.289908  1.576619  0.446882
C    0.811156  0.753092  1.601284
O    1.679099  0.250993  2.375118
H    1.996571  0.976412  -0.142366
H    0.484820  1.931706  -0.204850
H    1.852312  2.436968  0.835035
N    -0.520496  0.580212  1.728212
C    -1.322488  -0.233340  2.670292
C    -1.441376  0.471232  4.041076
O    -0.466325  0.541688  4.852069
H    -1.072922  1.059388  1.021951
H    -2.322354  -0.252146  2.219632
C    -0.878447  -1.720504  2.765502
C    -1.960865  -2.642014  3.162221
N    -2.187450  -3.860241  2.558529
C    -2.910281  -2.592712  4.204257
C    -3.228975  -4.455345  3.210383
N    -3.675728  -3.702545  4.215015
H    -0.021323  -1.832859  3.500987
H    -0.439063  -2.012168  1.802461
H    -1.697838  -4.244750  1.754587
H    -3.035545  -1.817548  4.955367
H    -3.630726  -5.420921  2.915838
N    -2.611236  1.012418  4.341625
C    -2.911548  1.735897  5.581662
H    -3.359357  0.941463  3.655397
H    -2.906977  2.817215  5.393054
H    -2.158273  1.493884  6.335115
H    -3.904707  1.436798  5.933378
Cd    1.474436  -0.377890  4.437286
