30
Energy: -173735.944122 eV PBE+vdW (tier 2 basis)
C    -0.861047  -1.737432  2.278151
C    -0.396621  -0.343831  2.058024
O    0.881832  -0.133533  2.135185
H    -0.696239  -2.330281  1.366331
H    -1.915571  -1.792770  2.561839
H    -0.241646  -2.180806  3.069077
N    -1.222634  0.686923  1.860700
C    -2.571333  0.808516  1.265379
C    -3.036603  -0.471781  0.536194
O    -2.376750  -0.918862  -0.417440
H    -0.748601  1.589291  1.909263
H    -3.278464  1.095062  2.055958
C    -2.508305  2.000113  0.219918
C    -1.206863  2.002493  -0.512146
N    -0.831285  1.008680  -1.393448
C    -0.051139  2.705459  -0.240587
C    0.490988  1.065158  -1.602259
N    1.029349  2.106854  -0.914915
H    -2.612366  2.951986  0.757013
H    -3.371447  1.917051  -0.452829
H    -1.452006  0.203503  -1.591289
H    0.079583  3.622693  0.327359
H    1.040852  0.398431  -2.260277
N    -4.191516  -0.992302  0.968914
C    -4.852821  -2.138200  0.343442
H    -4.653219  -0.563101  1.766100
H    -4.880249  -2.984814  1.040552
H    -4.294043  -2.420076  -0.552369
H    -5.879371  -1.867057  0.070825
Cd    1.916534  1.148633  0.813337
