30
Energy: -173737.702815 eV PBE+vdW (tier 2 basis)
C    -0.268478  2.074381  -0.809824
C    -0.970102  1.243175  0.220697
O    -0.340730  0.285427  0.743935
H    0.234695  1.412822  -1.525324
H    -0.926555  2.766354  -1.345966
H    0.519927  2.653525  -0.306441
N    -2.247492  1.594604  0.511902
C    -3.229203  1.108182  1.506048
C    -2.738852  1.245643  2.965923
O    -1.844070  0.512386  3.483107
H    -2.569973  2.404694  -0.010260
H    -4.055280  1.823790  1.408084
C    -3.920812  -0.263197  1.176684
C    -3.106593  -1.490636  0.898348
N    -2.790985  -1.913215  -0.352325
C    -2.549221  -2.493032  1.748603
C    -2.086087  -3.103929  -0.265321
N    -1.922061  -3.476497  0.976054
H    -4.566093  -0.079161  0.306468
H    -4.600886  -0.480572  2.013888
H    -3.052099  -1.449508  -1.221326
H    -2.884793  -2.722760  2.763244
H    -1.727477  -3.630306  -1.146106
N    -3.328394  2.180817  3.698452
C    -2.999944  2.441696  5.104937
H    -4.034408  2.770055  3.266228
H    -2.910746  1.494976  5.647255
H    -2.051509  2.988803  5.178909
H    -3.802253  3.042939  5.540399
Cd    -0.841525  -1.064454  2.367728
