30
Energy: -173735.751379 eV PBE+vdW (tier 2 basis)
C    -1.206049  1.714653  -0.950086
C    -0.914587  0.823884  0.207223
O    0.234443  0.209078  0.207053
H    -1.103468  1.167580  -1.895741
H    -0.438419  2.504119  -0.966307
H    -2.189598  2.189344  -0.887289
N    -1.738464  0.682776  1.230134
C    -3.179241  0.864104  1.392071
C    -3.348086  0.674458  2.934713
O    -2.484588  -0.002315  3.516890
H    -1.412799  0.213093  2.107749
H    -3.503809  1.861409  1.071253
C    -4.028134  -0.231139  0.615342
C    -3.247040  -1.480785  0.355607
N    -3.032723  -1.993934  -0.916512
C    -2.351704  -2.153759  1.154893
C    -2.018773  -2.879949  -0.894094
N    -1.555729  -3.001075  0.367906
H    -4.365464  0.187685  -0.342099
H    -4.935971  -0.435587  1.199721
H    -3.599408  -1.787358  -1.738791
H    -2.226839  -2.085059  2.232538
H    -1.665558  -3.436117  -1.756904
N    -4.428638  1.213583  3.498130
C    -4.759574  1.079549  4.919842
H    -5.032017  1.802190  2.930395
H    -4.733037  2.063400  5.402927
H    -4.022584  0.423820  5.389673
H    -5.761603  0.649100  5.029599
Cd    0.277460  -1.855747  0.626165
