30
Energy: -173736.221242 eV PBE+vdW (tier 2 basis)
C    -0.249937  1.075939  1.346283
C    0.036682  -0.370349  1.546666
O    1.277917  -0.745845  1.474682
H    0.454828  1.651289  1.963576
H    -1.272808  1.358914  1.609724
H    -0.045409  1.358304  0.303272
N    -0.910458  -1.257165  1.824617
C    -2.362084  -1.225658  1.642317
C    -2.868112  -2.366850  2.559465
O    -2.136468  -3.368136  2.657929
H    -0.637643  -2.209903  2.124652
H    -2.773236  -0.245789  1.902906
C    -2.760093  -1.586017  0.141109
C    -1.742016  -2.500127  -0.451130
N    -1.565698  -3.831415  -0.104823
C    -0.583881  -2.151248  -1.102440
C    -0.337586  -4.236352  -0.459541
N    0.312620  -3.227341  -1.086668
H    -2.784396  -0.663550  -0.452127
H    -3.774682  -2.004940  0.131332
H    -2.221212  -4.392637  0.440035
H    -0.339385  -1.215003  -1.595263
H    0.052124  -5.236669  -0.298777
N    -4.068669  -2.252313  3.133432
C    -4.972748  -1.098409  3.128251
H    -4.332341  -3.053945  3.705495
H    -5.168556  -0.742397  2.109501
H    -4.583767  -0.277300  3.744889
H    -5.929073  -1.416917  3.552481
Cd    1.818086  -2.334170  0.193154
