30
Energy: -173736.690427 eV PBE+vdW (tier 2 basis)
C    -3.737804  -0.263610  1.158380
C    -2.741591  -0.504554  2.250860
O    -3.077802  -0.724058  3.422910
H    -4.543703  -1.003128  1.238695
H    -3.310215  -0.289089  0.150258
H    -4.198430  0.722140  1.320350
N    -1.411780  -0.492475  1.889432
C    -0.279441  -0.576179  2.802143
C    -0.029037  -1.998079  3.355919
O    0.900789  -2.215372  4.213444
H    -1.197335  -0.239369  0.928771
H    0.601623  -0.416394  2.160197
C    -0.191040  0.598492  3.856024
C    -0.667453  0.401449  5.261029
N    -1.893522  0.018798  5.618536
C    0.037635  0.601082  6.525160
C    -1.972892  0.012022  7.014759
N    -0.847073  0.344679  7.580228
H    -0.751105  1.440151  3.421006
H    0.851680  0.940229  3.902269
H    -2.587035  -0.286934  4.880185
H    0.845360  1.327243  6.667854
H    -2.890914  -0.255932  7.532842
N    -0.690254  -2.997891  2.814140
C    -0.505655  -4.418231  3.114327
H    -1.368422  -2.749807  2.095196
H    -1.415730  -4.816999  3.579483
H    0.346517  -4.542988  3.785116
H    -0.317418  -4.959071  2.179485
Cd    1.250045  -1.268125  6.083003
