30
Energy: -173737.585661 eV PBE+vdW (tier 2 basis)
C    0.237095  0.435738  0.574386
C    -0.002798  -0.174942  1.922513
O    0.969080  -0.202272  2.731014
H    1.090866  -0.063715  0.098576
H    0.527111  1.486335  0.720007
H    -0.629871  0.396990  -0.093678
N    -1.257407  -0.627231  2.158067
C    -2.017300  -1.119066  3.335097
C    -1.556860  -0.516913  4.683274
O    -0.496242  -0.854362  5.287053
H    -1.863066  -0.506984  1.349414
H    -3.027845  -0.727070  3.155101
C    -2.209668  -2.681253  3.352855
C    -1.005733  -3.420863  3.824606
N    -0.847928  -3.887127  5.118730
C    0.259497  -3.456294  3.282068
C    0.463967  -4.088412  5.364956
N    1.197667  -3.809209  4.271434
H    -2.482873  -2.988195  2.333858
H    -3.081131  -2.905222  3.983694
H    -1.598208  -4.050424  5.787971
H    0.570090  -3.271566  2.257584
H    0.859422  -4.447279  6.310478
N    -2.394627  0.359206  5.227618
C    -2.186037  1.036993  6.508599
H    -3.256050  0.574473  4.731990
H    -2.392807  2.105730  6.383439
H    -1.152824  0.891632  6.830752
H    -2.867909  0.627096  7.264670
Cd    1.395390  -1.532798  4.357874
