30
Energy: -173736.772126 eV PBE+vdW (tier 2 basis)
C    -0.053602  1.479602  0.358839
C    0.042493  0.678654  1.615341
O    1.161729  0.176358  2.008766
H    -1.067562  1.836781  0.153228
H    0.284804  0.857946  -0.482342
H    0.621213  2.346767  0.410803
N    -1.063453  0.445540  2.311700
C    -1.249637  -0.398235  3.489910
C    -2.723886  -0.899844  3.330898
O    -3.474382  -0.206226  2.637005
H    -1.992958  0.700010  1.924120
H    -0.520143  -1.218352  3.472038
C    -1.143886  0.386055  4.849391
C    0.158368  1.100988  4.943229
N    0.304588  2.458755  4.691945
C    1.440918  0.606436  4.972950
C    1.606031  2.747950  4.524135
N    2.344045  1.617796  4.685623
H    -1.245192  -0.340659  5.665888
H    -1.987114  1.084698  4.937997
H    -0.449276  3.144800  4.702312
H    1.770058  -0.411844  5.149851
H    2.004054  3.746378  4.369943
N    -3.074181  -2.004333  3.996002
C    -4.427549  -2.565834  3.952041
H    -2.353253  -2.547186  4.461799
H    -4.490816  -3.366106  3.203535
H    -5.129981  -1.770943  3.685807
H    -4.678255  -2.970668  4.937929
Cd    2.978828  1.117720  2.631316
