30
Energy: -173736.502399 eV PBE+vdW (tier 2 basis)
C    -1.485851  -2.119346  -0.669085
C    -0.884229  -1.453109  0.523972
O    0.341274  -1.672960  0.792941
H    -2.543509  -1.875919  -0.816165
H    -1.360990  -3.206820  -0.584692
H    -0.919934  -1.806234  -1.559139
N    -1.660426  -0.627728  1.250776
C    -1.239656  0.376871  2.240781
C    -1.285695  -0.211605  3.667639
O    -0.615969  -1.266747  3.953923
H    -2.634267  -0.573100  0.957680
H    -0.175485  0.594926  2.047080
C    -2.072042  1.667332  1.939592
C    -1.936137  2.811277  2.882460
N    -0.831021  3.615619  3.023373
C    -2.874454  3.345963  3.785169
C    -1.132989  4.567400  3.969172
N    -2.359322  4.414170  4.443146
H    -3.139382  1.398124  1.911121
H    -1.803301  1.972761  0.916736
H    0.024861  3.583370  2.476803
H    -3.908811  3.033771  3.923090
H    -0.426864  5.337493  4.267205
N    -2.008446  0.363732  4.602440
C    -2.083224  -0.084290  5.997064
H    -2.484818  1.241618  4.360414
H    -2.761303  -0.943135  6.080419
H    -2.469582  0.742236  6.599623
H    -1.090426  -0.377531  6.353237
Cd    1.019995  -2.065141  2.802224
