30
Energy: -173737.052497 eV PBE+vdW (tier 2 basis)
C    2.085446  0.851359  1.463848
C    0.935254  0.336960  2.276317
O    1.176178  -0.031342  3.461860
H    2.886441  0.101031  1.455577
H    1.820818  1.117562  0.435008
H    2.491241  1.740534  1.967632
N    -0.273366  0.333057  1.665142
C    -1.682042  0.114932  2.080813
C    -1.972949  0.494907  3.552120
O    -1.631126  -0.209083  4.547588
H    -0.215953  0.662593  0.704200
H    -2.234969  0.836973  1.464049
C    -2.256709  -1.283223  1.643224
C    -1.816493  -2.404742  2.519571
N    -2.589905  -2.933123  3.539070
C    -0.541439  -2.857989  2.775438
C    -1.793224  -3.580239  4.415963
N    -0.511151  -3.539774  4.007528
H    -1.944829  -1.453451  0.603460
H    -3.352688  -1.205582  1.624686
H    -3.601187  -2.846671  3.624666
H    0.353418  -2.763541  2.166805
H    -2.150875  -4.080016  5.311236
N    -2.681900  1.606304  3.719378
C    -3.098947  2.153939  5.011712
H    -2.969708  2.121987  2.891471
H    -2.795152  3.205585  5.070185
H    -2.627371  1.584012  5.814616
H    -4.190266  2.091893  5.106598
Cd    0.180454  -1.472850  4.700242
