30
Energy: -173736.416373 eV PBE+vdW (tier 2 basis)
C    -0.392649  0.002368  -0.257366
C    -0.228101  -0.111174  1.225440
O    0.857683  -0.587387  1.666605
H    0.418204  0.624579  -0.659426
H    -1.358179  0.419671  -0.562667
H    -0.272612  -0.996304  -0.700755
N    -1.264825  0.286251  1.993824
C    -1.488955  0.214547  3.451509
C    -0.653994  1.266751  4.216263
O    0.592937  1.125920  4.426340
H    -2.050887  0.661316  1.470090
H    -2.544361  0.491702  3.571744
C    -1.361244  -1.191966  4.096214
C    -2.265751  -2.234997  3.571367
N    -2.846867  -3.188321  4.382064
C    -2.683351  -2.592778  2.271468
C    -3.572762  -4.023472  3.583565
N    -3.485903  -3.675372  2.300433
H    -1.512182  -1.060559  5.177906
H    -0.292844  -1.572356  4.020339
H    -2.780301  -3.252888  5.394517
H    -2.432055  -2.113116  1.331408
H    -4.149383  -4.856446  3.976168
N    -1.297222  2.333262  4.664474
C    -0.685989  3.441972  5.404826
H    -2.295468  2.401663  4.479890
H    -1.230366  3.590069  6.344500
H    -0.746163  4.358581  4.805259
H    0.358920  3.204827  5.614102
Cd    1.711669  -0.572345  3.658904
