25
Energy: -13537.3828636 eV PBE+vdW (tier 2 basis)
N    1.672089  -1.386633  2.358475
C    0.405145  -0.606822  2.161021
C    0.645980  0.734451  2.868005
O    1.620563  0.930037  3.568315
H    2.231634  -0.824356  3.033443
H    2.212986  -1.450844  1.492249
H    0.263397  -0.414166  1.088392
C    -0.829021  -1.332534  2.726111
C    -1.410534  -2.450369  1.846233
C    -0.562406  -3.704477  1.573381
C    -0.027864  -4.420267  2.819773
N    1.303408  -3.880306  3.240178
H    -1.611113  -0.573108  2.856255
H    -0.595227  -1.691239  3.741606
H    -1.713942  -2.014406  0.881861
H    -2.345558  -2.773807  2.328298
H    0.276828  -3.484838  0.891185
H    -1.195087  -4.408531  1.015870
H    0.051348  -5.499951  2.638029
H    -0.723888  -4.293488  3.659770
H    2.045717  -4.430079  2.800132
H    1.437329  -3.998863  4.246844
H    1.507528  -2.455533  2.777800
O    -0.329254  1.612388  2.625584
H    -0.131057  2.439741  3.110188
