25
Energy: -13536.5725676 eV PBE+vdW (tier 2 basis)
N    -1.252616  0.309370  -0.251353
C    -0.954911  0.261657  1.172994
C    0.486297  0.668576  1.517367
O    1.460176  0.354923  0.873770
H    -0.531561  -0.193096  -0.774888
H    -1.233382  1.271261  -0.591562
H    -1.629328  0.967764  1.680175
C    -1.208895  -1.175243  1.679256
C    -1.091408  -1.402566  3.192848
C    -2.027841  -0.557559  4.075873
C    -3.498297  -0.596888  3.688011
N    -4.020075  -2.032257  3.679751
H    -0.500032  -1.845485  1.170379
H    -2.203278  -1.455582  1.289381
H    -0.063386  -1.205604  3.526917
H    -1.235268  -2.478066  3.399802
H    -1.729287  0.500222  4.039063
H    -1.916008  -0.855262  5.130517
H    -3.682265  -0.213688  2.676967
H    -4.131263  -0.045703  4.392994
H    -5.012981  -2.078709  3.417186
H    -3.485630  -2.600551  3.007341
H    -3.914310  -2.469315  4.605349
O    0.539931  1.418168  2.656026
H    1.481679  1.639047  2.807186
