25
Energy: -13537.2328207 eV PBE+vdW (tier 2 basis)
N    1.544066  -2.189470  1.955035
C    0.640324  -1.459936  1.066671
C    0.535238  0.000600  1.516329
O    -0.408637  0.512962  2.130006
H    2.506736  -1.862430  1.884624
H    1.254800  -2.134478  2.932159
H    1.092962  -1.460342  0.063417
C    -0.724996  -2.145852  1.028320
C    -1.717776  -1.517237  0.036245
C    -3.199453  -1.678019  0.414471
C    -3.585570  -1.161457  1.798852
N    -3.076546  0.243294  2.038332
H    -1.126499  -2.141930  2.054567
H    -0.552628  -3.201761  0.785643
H    -1.572326  -1.956301  -0.959845
H    -1.495676  -0.445892  -0.100427
H    -3.487202  -2.739658  0.391972
H    -3.823598  -1.183699  -0.345825
H    -3.161229  -1.770934  2.605156
H    -4.674377  -1.145923  1.925506
H    -3.417373  0.613314  2.932799
H    -2.002650  0.274851  2.063197
H    -3.395168  0.883359  1.301193
O    1.645588  0.693054  1.252559
H    1.559129  1.587989  1.639680
