25
Energy: -13536.6051767 eV PBE+vdW (tier 2 basis)
N    -0.255888  0.087376  0.125898
C    -0.170852  -0.134764  1.563484
C    1.255352  0.098769  2.047044
O    1.543495  0.652473  3.096747
H    -1.216940  -0.008595  -0.201255
H    0.315945  -0.582699  -0.389089
H    -0.763694  0.656681  2.047477
C    -0.685652  -1.522461  2.048392
C    -0.665876  -1.818278  3.556911
C    -1.486602  -0.837202  4.436661
C    -0.570116  0.070895  5.242574
N    -1.368078  1.132665  5.995878
H    -0.104319  -2.301185  1.532743
H    -1.718539  -1.614971  1.676396
H    0.372604  -1.858846  3.920489
H    -1.062463  -2.831015  3.702364
H    -2.141612  -1.401688  5.117450
H    -2.149482  -0.230144  3.797646
H    0.147627  0.607278  4.603340
H    -0.013132  -0.483399  6.008212
H    -0.753071  1.736258  6.557540
H    -1.880540  1.736149  5.338825
H    -2.060407  0.708579  6.628387
O    2.174502  -0.422815  1.216927
H    3.057664  -0.237441  1.593983
