25
Energy: -13536.5871307 eV PBE+vdW (tier 2 basis)
N    0.405757  -0.457464  -0.200495
C    0.142614  -0.141496  1.196145
C    1.419680  -0.049912  2.039326
O    2.457253  -0.612711  1.768114
H    1.219132  -1.076047  -0.256754
H    0.651712  0.384377  -0.719753
H    -0.375150  0.827031  1.257215
C    -0.773670  -1.224666  1.821920
C    -2.126006  -1.287292  1.106789
C    -2.926567  -2.573875  1.360272
C    -3.311635  -2.743397  2.821200
N    -4.138882  -4.013637  3.011662
H    -0.887461  -1.015800  2.896653
H    -0.252802  -2.193209  1.730037
H    -1.934313  -1.220308  0.026578
H    -2.739293  -0.411771  1.374009
H    -2.329291  -3.441953  1.033007
H    -3.839469  -2.555819  0.741815
H    -3.934025  -1.917559  3.188594
H    -2.442892  -2.850065  3.481669
H    -4.417453  -4.153833  3.992043
H    -4.994731  -3.980003  2.440573
H    -3.606262  -4.842142  2.712345
O    1.239723  0.709940  3.150633
H    2.087107  0.703750  3.639565
