25
Energy: -13536.6485821 eV PBE+vdW (tier 2 basis)
N    0.664118  1.065755  2.365981
C    -0.347137  0.237851  1.710992
C    -1.576222  -0.106443  2.573441
O    -2.069562  -1.217045  2.697803
H    0.919479  0.701419  3.284013
H    0.324185  2.015220  2.512034
H    -0.747401  0.833441  0.873682
C    0.267826  -1.034367  1.116797
C    0.990282  -1.941095  2.135449
C    0.818730  -3.440639  1.834597
C    -0.568060  -3.910283  2.248543
N    -0.831652  -5.333283  1.762236
H    0.978060  -0.726589  0.338933
H    -0.535580  -1.588044  0.608554
H    0.628648  -1.753373  3.158555
H    2.061530  -1.707307  2.148211
H    1.583844  -4.025968  2.368622
H    0.974535  -3.613205  0.755573
H    -1.369885  -3.279583  1.845470
H    -0.686676  -3.936168  3.338521
H    -1.759092  -5.668530  2.054465
H    -0.127942  -5.988520  2.129187
H    -0.788507  -5.381629  0.735416
O    -2.072144  0.983559  3.194265
H    -2.857440  0.700232  3.703047
