25
Energy: -13536.9479839 eV PBE+vdW (tier 2 basis)
N    -0.225918  0.012081  -0.000552
C    0.125027  -0.061322  1.474611
C    1.656675  -0.307039  1.463807
O    1.990235  -1.111791  0.498774
H    -1.174404  -0.310733  -0.223411
H    0.523536  -0.636231  -0.391396
H    -0.150040  0.875670  1.970263
C    -0.596494  -1.290466  2.054505
C    -0.283571  -1.693315  3.508155
C    1.119091  -2.215657  3.897827
C    1.738720  -3.338359  3.043932
N    2.915926  -2.869559  2.214940
H    -0.393970  -2.141590  1.382372
H    -1.682049  -1.106830  2.001201
H    -0.506106  -0.846199  4.173143
H    -1.021219  -2.468356  3.763328
H    1.026375  -2.598056  4.922642
H    1.822678  -1.375849  3.959606
H    1.025139  -3.783013  2.338752
H    2.112898  -4.145605  3.683380
H    3.430175  -3.664499  1.821688
H    3.569108  -2.321734  2.788667
H    2.617190  -2.207618  1.396306
O    2.358580  0.125026  2.372503
H    -0.092713  0.951977  -0.390011
