25
Energy: -13537.3957698 eV PBE+vdW (tier 2 basis)
N    -1.645632  -0.708837  1.358345
C    -0.364504  -0.515403  2.116376
C    0.730263  -0.365586  1.054368
O    0.515947  -0.541172  -0.129460
H    -1.375053  -0.736470  0.355098
H    -2.277970  0.084296  1.490508
H    -0.431843  0.429973  2.670722
C    -0.075014  -1.649382  3.119646
C    0.423539  -2.990064  2.556466
C    -0.497607  -3.803134  1.629406
C    -1.895241  -4.098830  2.185879
N    -2.874237  -3.024118  1.827264
H    -0.973731  -1.783987  3.741551
H    0.693948  -1.264852  3.803045
H    0.668271  -3.617926  3.426418
H    1.382614  -2.829571  2.040946
H    0.003733  -4.761213  1.436211
H    -0.587703  -3.330909  0.636935
H    -1.864093  -4.171282  3.281361
H    -2.258976  -5.066650  1.816805
H    -3.641097  -2.999524  2.503256
H    -2.207506  -1.698201  1.619863
H    -3.308956  -3.251963  0.929048
O    1.906897  -0.038649  1.593932
H    2.566951  0.040454  0.875010
