25
Energy: -13536.6924231 eV PBE+vdW (tier 2 basis)
N    0.160896  0.421312  0.068312
C    0.332857  -0.121607  1.418427
C    0.791557  -1.582848  1.351294
O    0.059320  -2.559128  1.429076
H    -0.454927  -0.166801  -0.495371
H    1.052261  0.496176  -0.421195
H    1.126301  0.463477  1.906610
C    -0.972048  0.005152  2.204542
C    -0.852955  -0.369092  3.696007
C    -2.055966  -1.171049  4.225293
C    -1.990835  -2.614397  3.748234
N    -3.287079  -3.355190  4.065811
H    -1.724212  -0.627175  1.705110
H    -1.322058  1.039022  2.095727
H    -0.752258  0.540341  4.301364
H    0.064760  -0.949410  3.882226
H    -2.987276  -0.694574  3.873641
H    -2.075820  -1.143408  5.326142
H    -1.191912  -3.177436  4.245937
H    -1.829683  -2.698648  2.665599
H    -3.245221  -4.337809  3.764667
H    -3.488014  -3.341396  5.075118
H    -4.084890  -2.913976  3.588920
O    2.116952  -1.679803  1.113835
H    2.327337  -2.625902  0.982118
