25
Energy: -13537.1767835 eV PBE+vdW (tier 2 basis)
N    0.170949  -0.030417  0.138960
C    0.311383  -0.355894  1.547401
C    1.725650  -0.818303  1.850960
O    2.288370  -0.665261  2.941353
H    0.247427  -0.856502  -0.455029
H    -0.732663  0.403468  -0.045220
H    0.192322  0.585818  2.102908
C    -0.708184  -1.411630  2.092518
C    -0.620031  -1.874143  3.557147
C    -1.128946  -0.915691  4.649659
C    -0.379087  0.392534  4.888945
N    1.090971  0.166192  5.152767
H    -0.617144  -2.297921  1.446608
H    -1.708456  -0.995496  1.896072
H    0.399863  -2.220577  3.790134
H    -1.237336  -2.779741  3.641614
H    -1.169309  -1.468840  5.602005
H    -2.171140  -0.633696  4.435446
H    -0.794694  0.918125  5.757121
H    -0.430556  1.073940  4.031781
H    1.549998  1.027882  5.468047
H    1.231070  -0.541625  5.883241
H    1.590359  -0.165658  4.248550
O    2.308791  -1.468252  0.853060
H    3.202360  -1.750430  1.137823
