25
Energy: -13536.9671289 eV PBE+vdW (tier 2 basis)
N    -0.061593  -0.482340  -0.470964
C    -0.318256  -0.041564  0.904989
C    0.998923  0.451595  1.505271
O    1.808615  -0.272407  2.084661
H    0.662848  -1.200439  -0.511689
H    0.211779  0.278248  -1.092572
H    -1.028681  0.800439  0.852600
C    -0.974912  -1.181789  1.691028
C    -1.585415  -0.835405  3.059697
C    -0.667033  -0.721811  4.291736
C    0.130742  -1.991704  4.618384
N    1.553281  -1.915888  4.104550
H    -0.266366  -2.024981  1.762105
H    -1.779819  -1.545263  1.038347
H    -2.336660  -1.607157  3.285126
H    -2.156987  0.101405  2.974153
H    -1.304617  -0.503329  5.158843
H    0.016137  0.138829  4.220283
H    -0.322833  -2.879147  4.159873
H    0.194390  -2.170890  5.697150
H    1.979007  -2.844321  4.012268
H    1.603575  -1.394764  3.164229
H    2.142315  -1.374012  4.747361
O    1.351290  1.726570  1.296263
H    0.642596  2.214901  0.838065
