25
Energy: -13536.6314944 eV PBE+vdW (tier 2 basis)
N    -0.054494  0.455233  0.498276
C    0.190836  0.180211  1.896960
C    1.674111  0.319306  2.170260
O    2.582323  0.172927  1.403604
H    -1.005923  0.220917  0.220124
H    0.597667  -0.055509  -0.098281
H    -0.310575  0.973488  2.479863
C    -0.280152  -1.214168  2.439772
C    -1.752541  -1.237692  2.877376
C    -2.037111  -0.940666  4.359044
C    -1.650133  0.425030  4.929673
N    -0.205244  0.500907  5.406226
H    -0.113985  -1.934924  1.628126
H    0.361260  -1.559699  3.268513
H    -2.169080  -2.234680  2.679330
H    -2.341844  -0.549036  2.250226
H    -1.598777  -1.731577  4.992786
H    -3.122109  -1.026226  4.517181
H    -2.253961  0.652147  5.816316
H    -1.784436  1.242488  4.210928
H    -0.049771  1.364908  5.940807
H    0.520337  0.489136  4.643444
H    0.000329  -0.286351  6.034517
O    1.892888  0.602060  3.524964
H    2.862362  0.626194  3.655392
