25
Energy: -13537.3644936 eV PBE+vdW (tier 2 basis)
N    0.153644  -0.145922  -0.084384
C    0.001991  -0.289652  1.370136
C    1.349872  -0.795862  1.924221
O    2.302299  -0.882528  1.033612
H    -0.370677  -0.848153  -0.604743
H    1.828741  -0.587198  0.180170
H    -0.106729  0.719503  1.799941
C    -1.177581  -1.176181  1.848202
C    -2.272168  -0.435011  2.627313
C    -1.884553  0.110568  4.012879
C    -1.461575  -0.952085  5.040248
N    0.033387  -0.989628  5.237510
H    -0.790074  -2.018581  2.440511
H    -1.636857  -1.638932  0.963553
H    -3.129060  -1.114675  2.750644
H    -2.647042  0.404157  2.021761
H    -2.751304  0.648096  4.418864
H    -1.093900  0.875211  3.928829
H    -1.761324  -1.960007  4.727167
H    -1.909962  -0.764954  6.022330
H    0.316371  -1.793697  5.809153
H    0.355012  -0.147651  5.728319
H    0.587551  -1.034159  4.291267
O    1.534162  -1.079639  3.112854
H    -0.115225  0.772980  -0.428358
