25
Energy: -13537.4846675 eV PBE+vdW (tier 2 basis)
N    0.129008  -1.263053  -0.494481
C    0.325329  -0.739647  0.876155
C    1.688010  -1.206867  1.378541
O    2.336642  -2.106046  0.876008
H    0.828698  -0.863926  -1.126010
H    -0.781969  -0.953213  -0.840496
H    0.337082  0.361828  0.878937
C    -0.812003  -1.190324  1.822220
C    -0.793193  -2.610301  2.413095
C    -1.061482  -3.837692  1.515821
C    0.151826  -4.502668  0.857494
N    0.475936  -3.938382  -0.501425
H    -1.766191  -1.013119  1.299234
H    -0.808199  -0.489582  2.667670
H    -1.575702  -2.608816  3.184565
H    0.144906  -2.771057  2.969035
H    -1.835270  -3.616955  0.761692
H    -1.508334  -4.611026  2.155595
H    -0.014391  -5.578585  0.728813
H    1.050447  -4.372450  1.470675
H    1.454003  -4.120979  -0.747319
H    -0.117846  -4.360999  -1.221715
H    0.330832  -2.825227  -0.525544
O    2.067043  -0.512368  2.462714
H    2.934914  -0.856053  2.756720
