25
Energy: -13536.4377861 eV PBE+vdW (tier 2 basis)
N    0.214554  -0.622292  0.025156
C    0.096016  -0.514520  1.470487
C    1.504575  -0.355831  2.031373
O    2.485251  -0.910520  1.600805
H    -0.620163  -1.033931  -0.390086
H    1.015008  -1.208552  -0.218123
H    -0.467081  0.406424  1.702086
C    -0.602731  -1.729731  2.146147
C    -0.896939  -1.676686  3.653447
C    -1.918662  -0.606115  4.104834
C    -1.272158  0.707891  4.516850
N    -2.340153  1.709351  4.956297
H    0.011796  -2.618888  1.941503
H    -1.551543  -1.884210  1.607062
H    0.033341  -1.569334  4.231686
H    -1.304725  -2.655598  3.937963
H    -2.489264  -0.997868  4.962536
H    -2.646318  -0.429659  3.294492
H    -0.707369  1.193717  3.714444
H    -0.600488  0.586552  5.375282
H    -1.926724  2.600511  5.261580
H    -2.898560  1.335571  5.736241
H    -2.990745  1.912638  4.185145
O    1.541424  0.469804  3.126407
H    2.477114  0.488902  3.413134
