25
Energy: -13537.1959999 eV PBE+vdW (tier 2 basis)
N    0.099641  0.093758  0.312668
C    0.130021  -0.195216  1.743900
C    1.536409  -0.588484  2.175878
O    1.819967  -1.461400  2.999497
H    0.815327  0.771449  0.052047
H    -0.802026  0.496795  0.057312
H    -0.082243  0.691813  2.385530
C    -0.894988  -1.276009  2.107963
C    -0.744107  -2.596237  1.321491
C    -1.121271  -3.859355  2.114506
C    0.010255  -4.491534  2.917444
N    0.548333  -3.586119  4.006532
H    -1.897904  -0.858792  1.938157
H    -0.846869  -1.432185  3.196059
H    0.282781  -2.698685  0.937340
H    -1.368167  -2.544701  0.422195
H    -1.450308  -4.646018  1.420159
H    -1.988923  -3.668927  2.767847
H    0.868590  -4.723898  2.273953
H    -0.315775  -5.418828  3.404220
H    1.284664  -4.058053  4.543886
H    0.974568  -2.687227  3.600001
H    -0.192725  -3.325277  4.666936
O    2.477720  0.163894  1.610452
H    3.351674  -0.108530  1.957358
