25
Energy: -13537.3435237 eV PBE+vdW (tier 2 basis)
N    0.151166  -0.720030  0.522019
C    0.258439  -0.321460  1.933242
C    1.377567  -1.172654  2.564266
O    2.086172  -1.851375  1.694530
H    1.619398  -1.632978  0.815713
H    0.086021  0.078707  -0.105643
H    0.672650  0.700140  1.956727
C    -1.050179  -0.286235  2.746140
C    -1.852808  -1.592368  2.875338
C    -1.371931  -2.662858  3.874314
C    -1.290755  -2.191156  5.335045
N    0.129106  -1.895803  5.762895
H    -1.695544  0.461261  2.263724
H    -0.825754  0.136899  3.737897
H    -2.880374  -1.315414  3.155109
H    -1.958825  -2.075558  1.891092
H    -0.410270  -3.103155  3.569339
H    -2.087370  -3.494766  3.834318
H    -1.681525  -2.944174  6.027977
H    -1.864616  -1.269414  5.491914
H    0.161672  -1.307057  6.601877
H    0.696249  -1.431050  4.964975
H    0.630617  -2.764257  5.982015
O    1.630408  -1.191194  3.772168
H    -0.649516  -1.326052  0.343008
