25
Energy: -13537.2224011 eV PBE+vdW (tier 2 basis)
N    0.175491  -0.187304  0.124404
C    0.166501  -0.239531  1.630730
C    1.578378  -0.825490  1.945173
O    2.143352  -1.348021  0.946743
H    -0.656445  -0.589330  -0.315938
H    1.106503  -0.818520  0.005939
H    0.054301  0.769729  2.042968
C    -0.948828  -1.179074  2.125833
C    -0.973382  -1.398948  3.660081
C    -0.773689  -2.854538  4.123302
C    0.546623  -3.556485  3.803084
N    1.736940  -2.920684  4.475005
H    -0.837885  -2.144468  1.603724
H    -1.915011  -0.765581  1.801877
H    -1.949233  -1.077673  4.045467
H    -0.234444  -0.743765  4.139074
H    -1.561295  -3.486818  3.684800
H    -0.943973  -2.901725  5.211233
H    0.774984  -3.554581  2.728873
H    0.495272  -4.602484  4.128521
H    2.562531  -3.525290  4.414102
H    1.557276  -2.737042  5.467900
H    1.968990  -1.969854  3.954150
O    1.974387  -0.768353  3.138912
H    0.327596  0.753907  -0.247396
