25
Energy: -13536.4893627 eV PBE+vdW (tier 2 basis)
N    0.374012  -0.641777  -0.320495
C    -0.031996  -0.210766  1.021250
C    1.229234  0.099905  1.875306
O    2.343584  0.247316  1.148194
H    -0.265207  -0.338964  -1.051581
H    0.491273  -1.652563  -0.391233
H    -0.536644  0.763565  0.907952
C    -0.954963  -1.148716  1.811227
C    -2.357941  -1.300862  1.217545
C    -3.381202  -1.901039  2.199802
C    -2.984870  -3.287146  2.684859
N    -4.017416  -3.820601  3.673971
H    -1.008295  -0.742231  2.832954
H    -0.452313  -2.127815  1.896541
H    -2.333805  -1.902838  0.295513
H    -2.742908  -0.313172  0.922957
H    -4.369122  -1.949788  1.713206
H    -3.477027  -1.226030  3.067025
H    -2.029227  -3.290055  3.222162
H    -2.934534  -4.020790  1.870283
H    -3.774648  -4.759740  4.017412
H    -4.950159  -3.873195  3.241419
H    -4.094311  -3.197396  4.490090
O    1.189123  0.218030  3.079677
H    2.060949  0.056671  0.213615
