25
Energy: -13536.5935417 eV PBE+vdW (tier 2 basis)
N    -0.365551  0.880135  0.784400
C    -0.065711  -0.170782  1.763761
C    1.085813  0.107141  2.745614
O    1.236263  -0.483780  3.790513
H    0.496967  1.162015  0.313166
H    -0.694472  1.717522  1.267055
H    -0.951026  -0.295271  2.406393
C    0.213570  -1.529359  1.084312
C    -1.002047  -2.175334  0.404188
C    -1.410646  -1.511853  -0.921753
C    -2.675099  -2.134338  -1.481540
N    -3.088023  -1.421802  -2.768409
H    0.576177  -2.217930  1.858945
H    1.038804  -1.412412  0.362282
H    -1.854695  -2.153194  1.102669
H    -0.779781  -3.238576  0.224460
H    -0.588237  -1.617844  -1.649864
H    -1.548752  -0.432849  -0.738896
H    -3.527711  -2.036047  -0.797554
H    -2.558850  -3.193681  -1.745252
H    -3.953263  -1.806959  -3.169679
H    -3.236280  -0.418932  -2.589642
H    -2.347309  -1.497143  -3.478830
O    1.932823  1.069955  2.293014
H    2.637435  1.159120  2.965232
