25
Energy: -13537.1890049 eV PBE+vdW (tier 2 basis)
N    0.276609  -0.540929  0.168311
C    0.127509  -0.387677  1.621246
C    1.469705  -0.824137  2.208869
O    1.694786  -1.860135  2.835571
H    0.942211  0.134711  -0.207636
H    -0.616626  -0.372821  -0.295342
H    -0.038696  0.657780  1.952847
C    -1.018179  -1.264959  2.121882
C    -1.335451  -1.115738  3.624659
C    -1.850981  -2.401555  4.294938
C    -0.773456  -3.323930  4.855678
N    0.182383  -3.837793  3.799947
H    -0.788230  -2.303720  1.839819
H    -1.915252  -1.011127  1.539030
H    -2.089082  -0.327911  3.749322
H    -0.452136  -0.757414  4.177206
H    -2.508286  -2.959302  3.608144
H    -2.483010  -2.143283  5.156739
H    -1.216448  -4.199933  5.344863
H    -0.148700  -2.799598  5.590310
H    0.729345  -3.031687  3.342398
H    -0.317753  -4.349985  3.064451
H    0.868266  -4.481998  4.209982
O    2.434470  0.052939  1.940567
H    3.284656  -0.294020  2.280989
