25
Energy: -13537.0937253 eV PBE+vdW (tier 2 basis)
N    0.137465  -1.332185  -0.189586
C    -0.285730  -0.578183  0.972490
C    0.812596  0.021493  1.864029
O    0.630871  0.494219  2.991816
H    0.699248  -0.773942  -0.830707
H    0.685780  -2.154106  0.064530
H    -0.798364  0.324305  0.588502
C    -1.309247  -1.390739  1.815433
C    -2.704004  -0.749541  1.932048
C    -2.799555  0.648150  2.567136
C    -2.737328  0.737609  4.087871
N    -1.427023  0.224254  4.657739
H    -0.881723  -1.637039  2.798738
H    -1.431880  -2.352304  1.301575
H    -3.373117  -1.442995  2.466308
H    -3.115094  -0.677124  0.914430
H    -3.771251  1.086254  2.295744
H    -2.049358  1.329934  2.136338
H    -3.543088  0.166732  4.566081
H    -2.824742  1.781754  4.409860
H    -1.209020  0.667079  5.556465
H    -1.468476  -0.786832  4.821006
H    -0.610912  0.389626  3.972968
O    2.013958  0.043272  1.294130
H    2.640745  0.480247  1.907051
