25
Energy: -13536.4492033 eV PBE+vdW (tier 2 basis)
N    -0.283784  0.118030  0.200158
C    0.194198  -0.213985  1.532510
C    1.690855  -0.490867  1.436060
O    2.391901  -0.192085  0.501101
H    -1.054614  0.782397  0.230526
H    0.470851  0.522021  -0.356428
H    0.130231  0.639696  2.245161
C    -0.639965  -1.386512  2.131779
C    -1.196579  -1.153454  3.543889
C    -0.195329  -1.165931  4.711707
C    0.579533  -2.462157  4.888648
N    -0.368911  -3.638610  5.108810
H    -0.068649  -2.326619  2.066193
H    -1.486701  -1.519233  1.446807
H    -2.006287  -1.884163  3.729959
H    -1.714268  -0.182764  3.568138
H    -0.714805  -0.913243  5.650234
H    0.565467  -0.385165  4.571695
H    1.240347  -2.436245  5.762730
H    1.173299  -2.708440  4.001256
H    -1.017559  -3.724639  4.313759
H    -0.938443  -3.503659  5.955182
H    0.138127  -4.527469  5.205049
O    2.197047  -1.093610  2.562482
H    3.160654  -1.155053  2.406658
