25
Energy: -13535.3276857 eV PBE+vdW (tier 2 basis)
N    -0.052814  0.812114  0.379856
C    0.070291  0.350854  1.744120
C    1.510482  0.162469  2.101948
O    1.919655  -0.416895  3.180213
H    0.347965  1.737536  0.227802
H    -1.032889  0.847281  0.105200
H    -0.275266  1.082577  2.516277
C    -0.732910  -0.973934  1.972005
C    -1.498003  -1.117645  3.295098
C    -0.693568  -1.199205  4.609755
C    -0.430843  0.148775  5.331977
N    0.252288  0.093646  6.609447
H    -0.077267  -1.841681  1.801020
H    -1.458622  -1.006170  1.148788
H    -2.096694  -2.033366  3.196376
H    -2.227715  -0.296565  3.381296
H    0.241882  -1.797311  4.478140
H    -1.243908  -1.833826  5.320015
H    -1.408761  0.628188  5.488762
H    0.121742  0.858439  4.689165
H    1.175160  -0.335805  6.560209
H    1.168800  -0.791597  3.723259
H    -0.287740  -0.403967  7.315956
O    2.413687  0.633525  1.311839
H    3.322903  0.468125  1.648832
