25
Energy: -13536.5634169 eV PBE+vdW (tier 2 basis)
N    0.606497  -0.978118  -0.082237
C    0.216756  -0.185670  1.078469
C    1.309694  0.117176  2.123190
O    1.103817  0.305985  3.304253
H    1.228847  -0.452654  -0.694372
H    1.118618  -1.814427  0.201413
H    -0.083746  0.809348  0.702568
C    -0.997972  -0.814586  1.781162
C    -2.240434  -0.814430  0.889443
C    -3.408649  -1.649601  1.437515
C    -3.916263  -1.121666  2.770309
N    -5.098335  -1.953906  3.262981
H    -1.158997  -0.268798  2.721089
H    -0.736601  -1.850251  2.060620
H    -1.966620  -1.217392  -0.095382
H    -2.581454  0.219637  0.716861
H    -3.083609  -2.697415  1.555921
H    -4.231641  -1.645467  0.703729
H    -4.280408  -0.088862  2.699333
H    -3.161707  -1.173561  3.563990
H    -5.462155  -1.615418  4.163807
H    -4.824237  -2.938810  3.382844
H    -5.869492  -1.933283  2.581464
O    2.540742  0.180306  1.560814
H    3.164453  0.415616  2.276170
