25
Energy: -13537.1356786 eV PBE+vdW (tier 2 basis)
N    1.163485  -0.834202  0.327103
C    0.583582  -0.509948  1.636267
C    1.734708  -0.274288  2.602072
O    2.262440  -1.129347  3.324687
H    1.675030  -0.049389  -0.075254
H    1.788149  -1.640330  0.368577
H    0.038127  0.437998  1.525218
C    -0.392965  -1.612961  2.053307
C    -1.326698  -1.315781  3.238918
C    -0.795346  -1.482596  4.674876
C    -0.280664  -2.889283  5.004483
N    1.226844  -2.986904  4.874497
H    0.157380  -2.560094  2.193758
H    -1.014231  -1.783207  1.163954
H    -2.201996  -1.975231  3.139449
H    -1.724146  -0.294670  3.137952
H    -1.623703  -1.267223  5.363162
H    -0.023373  -0.736445  4.919779
H    -0.704748  -3.639350  4.325602
H    -0.527692  -3.189947  6.028413
H    1.600448  -2.346925  4.093088
H    1.683966  -2.662781  5.734266
H    1.536654  -3.950923  4.712113
O    2.226725  0.964713  2.523908
H    3.034674  1.019412  3.074265
