25
Energy: -13536.9940088 eV PBE+vdW (tier 2 basis)
N    -0.084756  -1.303231  0.551898
C    0.158714  -0.430723  1.709507
C    1.506613  -0.827165  2.330014
O    2.606554  -0.502873  1.639456
H    2.390834  0.028727  0.851158
H    0.681890  -1.302407  -0.120899
H    0.263729  0.644822  1.446695
C    -0.998105  -0.536168  2.714973
C    -1.439612  -1.976237  3.041974
C    -1.984309  -2.176138  4.464808
C    -1.007924  -1.867631  5.597177
N    0.315893  -2.566403  5.387121
H    -1.850758  0.026574  2.308141
H    -0.698138  0.015071  3.618500
H    -2.219859  -2.291537  2.338448
H    -0.613340  -2.675610  2.847054
H    -2.339295  -3.213334  4.569957
H    -2.867977  -1.542528  4.633997
H    -1.407952  -2.188338  6.565993
H    -0.768431  -0.799623  5.666630
H    0.933003  -2.455455  6.199271
H    0.815681  -2.145885  4.539205
H    0.187231  -3.572732  5.229364
O    1.663240  -1.405138  3.397930
H    -0.916927  -0.993038  0.048628
