25
Energy: -13536.6770859 eV PBE+vdW (tier 2 basis)
N    0.236079  -0.306577  -0.362981
C    -0.096747  -0.055173  1.038975
C    1.114768  0.338200  1.899568
O    1.573789  -0.338339  2.800807
H    1.079734  -0.875486  -0.449326
H    0.409178  0.564510  -0.862906
H    -0.804212  0.788506  1.060655
C    -0.761608  -1.292857  1.658371
C    -2.103709  -1.668584  1.026779
C    -2.611302  -3.071795  1.390522
C    -2.779329  -3.357039  2.879324
N    -1.434161  -3.597536  3.563012
H    -0.871597  -1.071573  2.736187
H    -0.038841  -2.123967  1.558235
H    -1.999624  -1.612472  -0.065535
H    -2.864670  -0.923176  1.306725
H    -1.964389  -3.845978  0.942103
H    -3.600820  -3.227724  0.936995
H    -3.373294  -4.259490  3.065445
H    -3.242334  -2.517290  3.413553
H    -1.536287  -3.735851  4.576442
H    -0.970638  -4.429177  3.174673
H    -0.804631  -2.791625  3.400940
O    1.636488  1.519523  1.505745
H    2.422159  1.694902  2.061119
