25
Energy: -13536.656935 eV PBE+vdW (tier 2 basis)
N    -0.539201  0.700348  0.744038
C    -0.183095  0.039331  1.995989
C    1.334295  -0.075391  2.110698
O    2.119470  0.209027  1.229832
H    0.297557  1.094806  0.311438
H    -1.201836  1.456047  0.899711
H    -0.519843  0.599249  2.883944
C    -0.829166  -1.370820  2.073780
C    -0.404868  -2.248173  0.894135
C    -1.156070  -3.581016  0.814636
C    -0.965254  -4.303344  -0.510635
N    0.518865  -4.532001  -0.788755
H    -1.919522  -1.228466  2.043549
H    -0.585060  -1.844817  3.034814
H    0.685122  -2.424498  0.971288
H    -0.573293  -1.656097  -0.022304
H    -2.238825  -3.409723  0.911750
H    -0.883360  -4.245230  1.651036
H    -1.333182  -3.708966  -1.356487
H    -1.438820  -5.291806  -0.536170
H    0.677457  -4.973170  -1.703462
H    1.020229  -3.631475  -0.771052
H    0.941604  -5.131827  -0.067504
O    1.710763  -0.568997  3.316046
H    2.688346  -0.583739  3.324488
