25
Energy: -13536.6366202 eV PBE+vdW (tier 2 basis)
N    -0.720731  1.496279  0.208055
C    -1.532739  1.043144  1.348008
C    -1.414972  1.878709  2.640478
O    -1.684006  1.468519  3.746786
H    -1.108997  2.356362  -0.181139
H    0.212534  1.755832  0.535215
H    -2.592710  1.158546  1.059366
C    -1.279548  -0.443409  1.659090
C    -2.129728  -1.436133  0.849091
C    -2.090918  -1.339925  -0.687770
C    -0.707610  -1.347042  -1.315690
N    0.092294  -2.567984  -0.868699
H    -1.487982  -0.614785  2.722849
H    -0.196690  -0.629267  1.534114
H    -3.181049  -1.324196  1.151970
H    -1.871896  -2.461595  1.170948
H    -2.549334  -0.398207  -1.021769
H    -2.709844  -2.142872  -1.118795
H    -0.142326  -0.457600  -1.003377
H    -0.744893  -1.392249  -2.410333
H    1.031849  -2.580713  -1.284677
H    0.197175  -2.568936  0.155211
H    -0.382473  -3.442997  -1.129057
O    -1.007532  3.146536  2.383567
H    -1.005461  3.620371  3.239165
