25
Energy: -13536.540422 eV PBE+vdW (tier 2 basis)
N    -0.724801  0.523747  0.548045
C    -0.035729  -0.049158  1.695064
C    1.493362  0.072649  1.624519
O    2.157132  -0.105800  0.630860
H    -0.370277  0.108218  -0.316429
H    -0.543720  1.525667  0.478512
H    -0.367963  0.501590  2.589610
C    -0.426128  -1.537546  1.812502
C    0.116345  -2.299766  3.028836
C    -0.240374  -1.708918  4.406395
C    -1.741859  -1.600486  4.616177
N    -2.046550  -1.055104  6.008855
H    -0.073731  -2.051304  0.905494
H    -1.525079  -1.578074  1.764875
H    1.212251  -2.363793  2.980321
H    -0.243511  -3.338517  2.978875
H    0.226525  -0.716725  4.516459
H    0.193375  -2.355465  5.186707
H    -2.247485  -2.572486  4.552779
H    -2.222921  -0.910096  3.912863
H    -3.057566  -0.968156  6.178816
H    -1.623230  -0.125296  6.135662
H    -1.654816  -1.669258  6.736202
O    2.032172  0.398720  2.839801
H    3.000642  0.454622  2.708849
