25
Energy: -13537.5229178 eV PBE+vdW (tier 2 basis)
N    1.198765  -0.786430  0.325515
C    0.457386  -0.073696  1.386629
C    1.438605  0.510512  2.403297
O    2.619782  0.218416  2.515992
H    1.795720  -0.132100  -0.186335
H    0.532301  -1.156113  -0.356142
H    -0.087753  0.798090  0.988235
C    -0.607687  -0.993520  2.041511
C    -0.225157  -2.453842  2.331096
C    0.929673  -2.718765  3.328931
C    2.174964  -3.357168  2.719652
N    2.883708  -2.439579  1.760499
H    -1.476057  -1.006290  1.366470
H    -0.957086  -0.501543  2.959518
H    -0.023157  -2.982314  1.385852
H    -1.135941  -2.929002  2.718492
H    0.587652  -3.422160  4.099989
H    1.205858  -1.808560  3.881386
H    1.910412  -4.262456  2.157930
H    2.895194  -3.640614  3.497102
H    2.203096  -1.964571  1.052613
H    3.262082  -1.607628  2.246959
H    3.642472  -2.917264  1.265376
O    0.831123  1.423034  3.174250
H    1.488438  1.773938  3.808779
