25
Energy: -13536.595601 eV PBE+vdW (tier 2 basis)
N    -0.486134  2.449493  1.260516
C    -0.132826  1.300874  2.096042
C    1.107701  1.440829  3.004584
O    1.571714  0.531259  3.655609
H    0.319533  2.739135  0.702374
H    -0.717053  3.254123  1.843869
H    -0.963078  1.148604  2.808188
C    0.010603  0.009633  1.268208
C    -1.304653  -0.527203  0.682670
C    -1.848847  0.280910  -0.505556
C    -3.239323  -0.121715  -0.952785
N    -3.267524  -1.583610  -1.412728
H    0.445314  -0.753797  1.925084
H    0.742059  0.176107  0.459872
H    -2.063539  -0.558747  1.483877
H    -1.119686  -1.577563  0.389071
H    -1.150325  0.235072  -1.358254
H    -1.889575  1.342948  -0.213463
H    -3.600798  0.467228  -1.803958
H    -3.973956  -0.057209  -0.139729
H    -4.212106  -1.891535  -1.676415
H    -2.648676  -1.721759  -2.222907
H    -2.926357  -2.196889  -0.659201
O    1.604607  2.702821  3.011518
H    2.360888  2.700469  3.631762
