25
Energy: -13536.6275084 eV PBE+vdW (tier 2 basis)
N    -0.776176  1.097285  1.767001
C    0.458942  0.437319  2.176340
C    1.614319  0.625922  1.182607
O    1.473231  0.902068  0.013012
H    -0.624754  2.105623  1.711682
H    -1.007539  0.814669  0.810622
H    0.784963  0.877813  3.131831
C    0.239595  -1.082329  2.372806
C    -1.039390  -1.441837  3.138747
C    -1.155008  -0.757606  4.508110
C    -2.436561  -1.175228  5.204638
N    -2.608316  -0.420552  6.522333
H    1.123183  -1.502627  2.873670
H    0.184859  -1.565546  1.385308
H    -1.074629  -2.535200  3.262736
H    -1.912555  -1.155649  2.535764
H    -1.163367  0.333438  4.350173
H    -0.282908  -1.006598  5.135966
H    -2.456178  -2.241713  5.461805
H    -3.326029  -0.940655  4.606360
H    -2.635941  0.594787  6.355253
H    -1.817682  -0.604679  7.154896
H    -3.473696  -0.685046  7.011777
O    2.818168  0.419447  1.776356
H    3.500588  0.521511  1.082985
