25
Energy: -13536.6289178 eV PBE+vdW (tier 2 basis)
N    -0.387061  0.466249  0.288493
C    -0.002785  0.265641  1.686513
C    1.506674  0.028523  1.799999
O    2.018311  -0.874608  2.429830
H    0.319680  1.017116  -0.198446
H    -1.258396  0.991634  0.221853
H    -0.209109  1.148108  2.329640
C    -0.719046  -0.949410  2.288740
C    -2.247621  -0.882672  2.291080
C    -2.921159  -2.010987  3.090697
C    -2.543287  -3.431948  2.682987
N    -1.167369  -3.826318  3.215999
H    -0.335648  -1.073803  3.315673
H    -0.376231  -1.803006  1.672605
H    -2.618225  -0.903714  1.255407
H    -2.579149  0.073854  2.722635
H    -4.011789  -1.938179  2.972711
H    -2.738790  -1.882883  4.171807
H    -2.490549  -3.552226  1.593204
H    -3.242306  -4.175409  3.083160
H    -0.889074  -4.765242  2.903423
H    -0.455303  -3.146368  2.892809
H    -1.155155  -3.817881  4.244129
O    2.205839  0.963840  1.122891
H    3.155964  0.763503  1.239288
