25
Energy: -13536.5995302 eV PBE+vdW (tier 2 basis)
N    0.320243  0.859896  -0.367125
C    -0.343427  0.835182  0.925954
C    0.374718  1.486651  2.118056
O    -0.209001  2.002003  3.051658
H    0.471783  1.816791  -0.685140
H    1.238972  0.417271  -0.318859
H    -1.273839  1.415667  0.828059
C    -0.691871  -0.632972  1.271434
C    -1.452057  -0.881689  2.583217
C    -2.772488  -0.111817  2.763675
C    -3.777877  -0.260224  1.634423
N    -4.156897  -1.727885  1.436797
H    0.243553  -1.211983  1.302072
H    -1.238296  -1.018498  0.393588
H    -0.817227  -0.623484  3.441433
H    -1.616081  -1.969617  2.688235
H    -2.558513  0.963245  2.858609
H    -3.243949  -0.400154  3.716903
H    -3.386897  0.073478  0.665434
H    -4.715114  0.271201  1.836203
H    -4.824429  -1.854895  0.665423
H    -3.317332  -2.286527  1.229123
H    -4.579177  -2.115212  2.291502
O    1.720614  1.393990  2.031137
H    2.092451  1.817179  2.830798
