25
Energy: -13536.6220767 eV PBE+vdW (tier 2 basis)
N    -0.131354  -2.136448  -0.018271
C    0.553110  -1.070326  0.689914
C    1.865346  -1.527965  1.338159
O    2.123956  -2.677908  1.612910
H    0.178155  -2.190638  -0.987036
H    0.095396  -3.035333  0.414404
H    0.783231  -0.250378  -0.005662
C    -0.371524  -0.502787  1.806509
C    -1.651994  0.111271  1.226256
C    -2.818985  0.305143  2.203638
C    -2.576297  1.262814  3.362435
N    -1.656220  0.640354  4.410497
H    0.224096  0.239477  2.373460
H    -0.614384  -1.349572  2.474773
H    -1.993112  -0.563636  0.428291
H    -1.413196  1.073184  0.745656
H    -3.162436  -0.668000  2.595934
H    -3.680092  0.711402  1.652835
H    -3.500262  1.523935  3.891792
H    -2.082227  2.188440  3.039876
H    -0.777995  0.329758  3.961362
H    -2.093015  -0.189922  4.832033
H    -1.427363  1.298426  5.166305
O    2.687266  -0.480131  1.607980
H    3.496896  -0.848455  2.015941
