25
Energy: -13536.4664106 eV PBE+vdW (tier 2 basis)
N    0.481780  -0.617448  -0.109321
C    0.126203  -0.231122  1.255172
C    1.348215  -0.620844  2.093911
O    1.535871  -1.728818  2.557469
H    -0.149065  -0.208212  -0.796037
H    0.479189  -1.630865  -0.225332
H    0.041352  0.865678  1.270879
C    -1.169241  -0.873174  1.794692
C    -1.731413  -0.295883  3.105859
C    -0.845740  -0.496280  4.346303
C    -1.528834  -0.154447  5.660392
N    -2.642063  -1.156071  5.960989
H    -0.997601  -1.955351  1.905154
H    -1.936226  -0.750643  1.016904
H    -2.720351  -0.772517  3.253970
H    -1.939857  0.779451  2.983409
H    0.040237  0.152281  4.292567
H    -0.445454  -1.523070  4.384371
H    -2.009808  0.832124  5.643025
H    -0.844533  -0.200178  6.515659
H    -3.163081  -0.915540  6.813861
H    -3.307451  -1.189546  5.174675
H    -2.256705  -2.103207  6.077844
O    2.211713  0.408843  2.241216
H    3.010478  0.054589  2.681497
