25
Energy: -13537.4017823 eV PBE+vdW (tier 2 basis)
N    0.310953  -0.565643  0.474264
C    0.264632  -0.216253  1.900522
C    1.517733  -0.837541  2.560411
O    2.453760  -1.178575  1.705673
H    2.015641  -0.999662  0.808830
H    -0.016743  0.191119  -0.122587
H    0.435469  0.870982  1.969292
C    -1.013604  -0.542818  2.687346
C    -1.256511  -2.048086  2.915536
C    -1.948221  -2.395741  4.245694
C    -1.277568  -1.871518  5.515321
N    0.190512  -2.221839  5.581134
H    -1.870880  -0.087155  2.173681
H    -0.934338  -0.012516  3.646568
H    -1.871466  -2.464361  2.106069
H    -0.302429  -2.597801  2.854480
H    -2.056266  -3.489004  4.317698
H    -2.973267  -1.995855  4.256736
H    -1.761862  -2.288575  6.406110
H    -1.323809  -0.778717  5.591310
H    0.590333  -1.969239  6.491984
H    0.755405  -1.691781  4.826518
H    0.343752  -3.228566  5.450172
O    1.659436  -0.984690  3.777194
H    -0.234659  -1.399164  0.254046
