25
Energy: -13536.5767976 eV PBE+vdW (tier 2 basis)
N    -0.428581  -1.391650  -0.026677
C    0.102117  -0.482881  0.998908
C    1.609591  -0.683008  1.178195
O    2.116259  -1.480561  1.941114
H    -0.073525  -2.339493  0.114341
H    -0.139869  -1.097433  -0.959351
H    -0.072898  0.544530  0.648642
C    -0.618993  -0.712696  2.334221
C    -2.120405  -0.429625  2.234562
C    -2.951562  -1.031653  3.378710
C    -2.552504  -0.478319  4.737463
N    -3.412805  -1.093021  5.839654
H    -0.136753  -0.085378  3.099949
H    -0.440171  -1.757887  2.637068
H    -2.489831  -0.857740  1.292401
H    -2.304266  0.655266  2.178081
H    -2.825025  -2.127797  3.377489
H    -4.019817  -0.826562  3.198127
H    -2.698317  0.607135  4.807330
H    -1.514714  -0.712280  5.003080
H    -3.166046  -0.733549  6.771475
H    -3.303318  -2.116466  5.856528
H    -4.410100  -0.896211  5.677515
O    2.317687  0.094093  0.321165
H    3.260881  -0.139818  0.433750
