25
Energy: -13536.5477191 eV PBE+vdW (tier 2 basis)
N    -0.553331  0.331039  0.121984
C    -0.253961  0.211216  1.541062
C    1.218963  0.057309  1.955271
O    1.633201  0.290136  3.072748
H    -0.158515  1.190684  -0.259248
H    -0.131959  -0.434460  -0.406557
H    -0.589052  1.136711  2.034911
C    -1.064163  -0.967731  2.135907
C    -1.185558  -0.952258  3.662926
C    -1.893125  -2.178751  4.259896
C    -3.298063  -2.442318  3.735633
N    -4.189427  -1.224168  3.960952
H    -0.617807  -1.920499  1.805145
H    -2.047245  -0.904836  1.639301
H    -1.680452  -0.016483  3.987172
H    -0.186909  -0.885272  4.114999
H    -1.919448  -2.101034  5.358516
H    -1.313340  -3.088338  4.041943
H    -3.787354  -3.279675  4.246358
H    -3.319559  -2.627618  2.655150
H    -3.779337  -0.397677  3.502639
H    -4.270901  -1.007824  4.963738
H    -5.136507  -1.363099  3.586406
O    1.998002  -0.402512  0.947114
H    2.904534  -0.485897  1.304807
