25
Energy: -13535.3395018 eV PBE+vdW (tier 2 basis)
N    -0.275921  0.738425  0.595549
C    0.351565  0.084654  1.706809
C    1.865688  0.090366  1.716230
O    2.594276  -0.471775  2.622498
H    -0.123924  0.273048  -0.297687
H    -0.055463  1.728253  0.508516
H    0.085338  0.643255  2.625837
C    -0.155709  -1.390003  1.886797
C    -0.589639  -1.810018  3.298077
C    0.475489  -1.852990  4.414627
C    0.658712  -0.549816  5.238686
N    1.568531  -0.603974  6.366756
H    0.582202  -2.101729  1.482797
H    -1.029407  -1.448101  1.224917
H    -1.025340  -2.813194  3.194469
H    -1.417651  -1.160647  3.623912
H    1.447323  -2.249975  4.032303
H    0.197009  -2.637370  5.133839
H    0.968270  0.302940  4.605927
H    -0.333960  -0.260802  5.614993
H    2.518195  -0.872385  6.112149
H    2.045996  -0.971503  3.291413
H    1.246573  -1.244740  7.090828
O    2.491839  0.701969  0.767729
H    3.468457  0.641486  0.871421
