25
Energy: -13536.7299077 eV PBE+vdW (tier 2 basis)
N    0.151995  -1.394139  -0.145412
C    -0.018221  -0.657547  1.113118
C    1.343689  -0.447184  1.783100
O    1.781080  -1.092659  2.720692
H    0.649695  -2.273560  0.005502
H    0.686541  -0.851147  -0.823419
H    -0.433269  0.329070  0.854413
C    -0.999456  -1.431177  2.001410
C    -1.650381  -0.693154  3.185128
C    -0.696753  -0.268682  4.315648
C    -0.251932  1.185066  4.275080
N    -1.408835  -0.490229  5.666040
H    -0.502698  -2.342195  2.369136
H    -1.808788  -1.759579  1.336392
H    -2.410704  -1.383320  3.587658
H    -2.205290  0.189348  2.829366
H    0.247693  1.392550  3.322846
H    0.173187  -0.939259  4.350726
H    -1.108662  1.871915  4.343372
H    0.466207  1.424282  5.071178
H    -1.671143  -1.476567  5.790837
H    -2.268293  0.073765  5.724582
H    -0.803339  -0.218671  6.452398
O    2.053578  0.524210  1.160766
H    2.948059  0.535264  1.556543
