25
Energy: -13536.5372001 eV PBE+vdW (tier 2 basis)
N    0.688761  -0.570562  -0.100706
C    0.468131  -0.289830  1.319058
C    1.732047  -0.536416  2.146077
O    1.746056  -0.985303  3.273455
H    1.599704  -0.223353  -0.398502
H    -0.011069  -0.093737  -0.669113
H    0.233510  0.777911  1.521507
C    -0.694597  -1.125600  1.876355
C    -0.511304  -2.635419  1.661028
C    -1.324831  -3.504268  2.633045
C    -2.823711  -3.312323  2.475632
N    -3.578033  -4.213013  3.452025
H    -1.622160  -0.771239  1.399043
H    -0.776386  -0.901601  2.950683
H    0.542857  -2.901669  1.812016
H    -0.741438  -2.907248  0.621712
H    -1.026245  -3.258968  3.666599
H    -1.074496  -4.564800  2.463223
H    -3.179289  -3.584301  1.473673
H    -3.149304  -2.289605  2.700242
H    -3.344181  -5.202071  3.288557
H    -4.598310  -4.110377  3.370414
H    -3.313527  -3.995000  4.422718
O    2.847255  -0.142028  1.486668
H    3.603512  -0.287372  2.088807
