25
Energy: -13537.0723816 eV PBE+vdW (tier 2 basis)
N    0.263678  0.220195  0.327660
C    -0.288532  -0.051919  1.636815
C    0.743901  0.060356  2.745064
O    0.432306  0.059100  3.943714
H    0.869375  -0.528496  -0.007582
H    -0.469944  0.369558  -0.362248
H    -0.983646  0.776812  1.856449
C    -1.068146  -1.399489  1.830852
C    -2.588427  -1.265192  1.704181
C    -3.293112  -0.446510  2.801255
C    -3.071214  -0.932563  4.240203
N    -2.009251  -0.136503  4.967592
H    -0.810725  -1.861786  2.796939
H    -0.700743  -2.099340  1.068060
H    -3.026754  -2.274545  1.688242
H    -2.843185  -0.819280  0.730385
H    -4.373140  -0.475140  2.605047
H    -3.027922  0.622123  2.731793
H    -2.752543  -1.981877  4.274007
H    -3.985479  -0.842976  4.837834
H    -2.314664  0.836008  5.090597
H    -1.046577  -0.101141  4.463822
H    -1.845228  -0.517114  5.907178
O    2.003641  0.128691  2.348167
H    2.578558  0.184551  3.139645
