25
Energy: -13537.4192555 eV PBE+vdW (tier 2 basis)
N    0.164286  -0.192024  0.558691
C    -0.001636  -0.700707  1.927345
C    1.290174  -1.465580  2.283798
O    2.070713  -1.703167  1.259712
H    1.590224  -1.221016  0.502168
H    0.402373  0.798047  0.528225
H    -0.093580  0.119528  2.657231
C    -1.248640  -1.613711  2.009831
C    -1.462767  -2.388402  3.313872
C    -1.732910  -1.523501  4.568352
C    -1.026065  -2.032162  5.819760
N    0.447675  -1.688884  5.778456
H    -1.188785  -2.338354  1.182797
H    -2.123535  -0.976458  1.806403
H    -2.313885  -3.065735  3.163253
H    -0.600597  -3.049411  3.483153
H    -2.809112  -1.498619  4.783969
H    -1.452597  -0.470259  4.403317
H    -1.096809  -3.123992  5.899030
H    -1.439642  -1.598215  6.737651
H    0.998311  -2.291655  6.399258
H    0.600681  -0.722468  6.086176
H    0.862345  -1.761754  4.768622
O    1.584059  -1.839145  3.424580
H    -0.662279  -0.338357  -0.018650
