25
Energy: -13536.7247011 eV PBE+vdW (tier 2 basis)
N    0.609965  0.235882  0.509250
C    -0.001566  -0.069597  1.791214
C    1.099833  -0.590915  2.698677
O    2.018039  -1.291664  2.378587
H    -0.094885  0.396431  -0.209163
H    1.209036  -0.532017  0.202649
H    -0.376270  0.877194  2.220349
C    -1.167836  -1.102632  1.749405
C    -1.963333  -1.302790  3.046779
C    -2.829252  -0.089428  3.474459
C    -2.628551  0.380737  4.907931
N    -1.306812  1.111726  5.080302
H    -0.754182  -2.065585  1.416832
H    -1.850805  -0.769859  0.952099
H    -1.283314  -1.596526  3.862286
H    -2.621273  -2.170447  2.910518
H    -3.894231  -0.342254  3.384697
H    -2.687777  0.763940  2.790454
H    -2.610197  -0.458571  5.614535
H    -3.410146  1.081732  5.224929
H    -0.482417  0.547379  4.740464
H    -1.141669  1.358690  6.063632
H    -1.306867  1.987646  4.542486
O    0.930490  -0.200193  4.034370
H    1.670265  -0.611929  4.527285
