25
Energy: -13537.450067 eV PBE+vdW (tier 2 basis)
N    0.308136  0.289798  0.922969
C    0.102860  -0.476527  2.159850
C    1.432357  -1.199211  2.463252
O    2.276121  -1.209281  1.463008
H    1.801801  -0.637279  0.767697
H    0.505375  1.274854  1.093669
H    -0.107815  0.182483  3.016350
C    -1.058000  -1.481967  1.957130
C    -1.313890  -2.578104  3.003121
C    -1.971276  -2.172834  4.334889
C    -1.165203  -1.332656  5.323080
N    0.167975  -1.960359  5.634609
H    -0.871680  -1.984082  0.994505
H    -1.974784  -0.886222  1.823300
H    -2.002569  -3.293807  2.532499
H    -0.395240  -3.158438  3.177939
H    -2.291825  -3.093119  4.849158
H    -2.899349  -1.615222  4.136870
H    -1.716953  -1.215525  6.263518
H    -0.943546  -0.328856  4.940713
H    0.634125  -1.485821  6.415135
H    0.817728  -1.883346  4.751344
H    0.065578  -2.948386  5.892716
O    1.698492  -1.740046  3.542292
H    -0.485301  0.229699  0.286565
