25
Energy: -13536.5562163 eV PBE+vdW (tier 2 basis)
N    1.761286  0.434440  0.073173
C    1.017907  0.475495  1.323091
C    1.576680  -0.470315  2.394941
O    1.940973  -1.606306  2.196068
H    1.898347  -0.533550  -0.225588
H    2.688852  0.843226  0.185612
H    1.074585  1.502018  1.712342
C    -0.452380  0.106160  1.026608
C    -1.399194  0.062948  2.234485
C    -1.548829  1.408425  2.958629
C    -2.460066  1.366758  4.173589
N    -3.887658  0.994100  3.774876
H    -0.459144  -0.882878  0.545351
H    -0.814274  0.822653  0.275330
H    -1.061172  -0.701306  2.953573
H    -2.375632  -0.287965  1.851476
H    -1.885355  2.193847  2.260977
H    -0.571227  1.740080  3.336940
H    -2.531879  2.334664  4.683361
H    -2.146297  0.606041  4.899773
H    -4.508882  0.914911  4.590177
H    -3.892652  0.092415  3.276824
H    -4.286034  1.697702  3.138267
O    1.604505  0.115298  3.632731
H    2.001736  -0.542106  4.239730
