25
Energy: -13537.268851 eV PBE+vdW (tier 2 basis)
N    -1.468639  -0.876841  0.678091
C    -0.286925  -0.514019  1.503827
C    1.019530  -1.028687  0.907508
O    2.104814  -0.760557  1.354933
H    -1.363308  -0.502246  -0.268712
H    -2.295441  -0.422346  1.074979
H    -0.167560  0.581499  1.521494
C    -0.446885  -0.971662  2.971057
C    -0.147071  -2.430244  3.354983
C    -1.118233  -3.562436  2.966639
C    -0.949441  -4.196826  1.582615
N    -1.775932  -3.520105  0.523113
H    -1.460613  -0.690562  3.300876
H    0.236990  -0.343751  3.556750
H    -0.093701  -2.432829  4.452586
H    0.870830  -2.697295  3.028374
H    -2.166653  -3.253468  3.117713
H    -0.961842  -4.377712  3.686397
H    -1.241682  -5.253662  1.599184
H    0.093868  -4.144144  1.248918
H    -2.768152  -3.747499  0.645502
H    -1.503926  -3.836916  -0.412866
H    -1.660186  -2.378715  0.567134
O    0.829415  -1.830703  -0.187943
H    1.724087  -2.055046  -0.516356
