25
Energy: -13536.4607626 eV PBE+vdW (tier 2 basis)
N    -0.102446  0.200416  -0.003750
C    -0.161763  0.099296  1.436843
C    1.271348  0.168467  1.956260
O    2.255863  -0.101219  1.315214
H    0.678344  -0.335441  -0.382928
H    -0.968566  -0.078889  -0.458228
H    -0.704668  0.978286  1.824345
C    -0.844015  -1.195406  2.017731
C    -1.952283  -1.006144  3.068530
C    -1.506018  -0.495084  4.448298
C    -1.541057  1.010940  4.649605
N    -2.451162  -1.112588  5.504013
H    -0.085688  -1.895047  2.402066
H    -1.306303  -1.708009  1.163805
H    -2.426817  -1.994949  3.190686
H    -2.735048  -0.337362  2.675047
H    -0.815967  1.481345  3.978953
H    -0.516365  -0.897204  4.706195
H    -2.534450  1.425570  4.425747
H    -1.254229  1.296974  5.671462
H    -2.425023  -2.140358  5.480865
H    -3.422876  -0.819795  5.329676
H    -2.200151  -0.804196  6.453046
O    1.320644  0.518383  3.280417
H    2.268762  0.520892  3.521304
