25
Energy: -13536.6137929 eV PBE+vdW (tier 2 basis)
N    -0.099205  0.426339  0.292965
C    -0.112830  -0.099136  1.653495
C    1.144906  0.273697  2.447926
O    2.212064  0.546627  1.944101
H    0.863420  0.412358  -0.055567
H    -0.382065  1.405986  0.288610
H    -0.983820  0.307876  2.188283
C    -0.229374  -1.642192  1.628248
C    -1.521478  -2.094015  0.945719
C    -1.546203  -3.604011  0.671821
C    -2.822709  -4.002141  -0.047959
N    -2.837450  -5.501669  -0.343795
H    -0.170764  -2.034737  2.653955
H    0.641491  -2.037725  1.079875
H    -1.615497  -1.537743  0.000436
H    -2.386768  -1.818173  1.569949
H    -1.460350  -4.163121  1.619231
H    -0.672593  -3.875138  0.055045
H    -2.927514  -3.501426  -1.018525
H    -3.722139  -3.803291  0.548072
H    -2.769368  -6.046270  0.526909
H    -2.034174  -5.764437  -0.931326
H    -3.694890  -5.792373  -0.832503
O    0.929134  0.228419  3.787037
H    1.777595  0.450188  4.220533
