25
Energy: -13536.5690134 eV PBE+vdW (tier 2 basis)
N    0.012066  -1.062741  0.167635
C    -0.261878  -0.373423  1.434439
C    0.999328  0.327110  1.955563
O    1.789244  -0.153702  2.745188
H    0.837931  -1.658864  0.250889
H    0.199726  -0.392139  -0.577893
H    -1.025435  0.391847  1.231054
C    -0.784053  -1.378055  2.464574
C    -1.286909  -0.724189  3.756999
C    -1.454802  -1.706897  4.927697
C    -2.476803  -2.793115  4.633834
N    -2.612645  -3.732308  5.829934
H    0.035892  -2.076683  2.700213
H    -1.576970  -1.952715  1.963998
H    -2.236859  -0.196617  3.576341
H    -0.568936  0.036801  4.092065
H    -1.761481  -1.149115  5.827899
H    -0.476841  -2.168244  5.146136
H    -2.191851  -3.426999  3.785860
H    -3.479766  -2.387819  4.449066
H    -1.709415  -4.176114  6.046924
H    -3.299748  -4.479265  5.661495
H    -2.906592  -3.214691  6.669803
O    1.171246  1.536357  1.367113
H    2.031470  1.886952  1.673411
