25
Energy: -13536.5416925 eV PBE+vdW (tier 2 basis)
N    -0.575124  0.034460  -0.027845
C    -0.111516  -0.151973  1.343521
C    1.399467  -0.395055  1.376694
O    1.978140  -1.108754  2.172973
H    0.039029  0.663220  -0.543167
H    -1.511714  0.436633  -0.042599
H    -0.246124  0.751297  1.985076
C    -0.892158  -1.314911  1.980506
C    -0.694941  -1.490823  3.490480
C    -1.549129  -2.632528  4.059181
C    -1.100113  -3.102395  5.433487
N    -1.083582  -1.937629  6.421143
H    -0.616110  -2.242777  1.458901
H    -1.959053  -1.145336  1.765999
H    -0.943848  -0.533731  3.987766
H    0.372867  -1.687687  3.674498
H    -1.476342  -3.513827  3.404008
H    -2.618067  -2.364161  4.078646
H    -0.072403  -3.486703  5.417415
H    -1.759426  -3.863619  5.866890
H    -0.736089  -2.219963  7.346388
H    -0.476845  -1.186058  6.062342
H    -2.025614  -1.541610  6.540846
O    2.043702  0.331315  0.436582
H    2.998865  0.145730  0.532788
