25
Energy: -13536.3375264 eV PBE+vdW (tier 2 basis)
N    -0.244479  -2.242580  0.839374
C    -0.154252  -1.078087  1.740226
C    1.118042  -1.345192  2.603172
O    1.440102  -0.553444  3.660820
H    -1.171249  -2.310227  0.420171
H    0.436154  -2.182895  0.080341
H    0.061229  -0.139981  1.202500
C    -1.457566  -0.934569  2.536221
C    -1.677857  0.430334  3.203780
C    -0.477698  0.988543  3.991869
C    0.439889  -0.053327  4.605576
N    0.923071  -2.869845  3.084782
H    -1.544952  -1.745329  3.278830
H    -2.290082  -1.110863  1.839188
H    -2.544694  0.333124  3.871414
H    -1.970557  1.162901  2.439301
H    -0.844272  1.632712  4.803470
H    0.144405  1.638457  3.359377
H    1.064440  0.380989  5.392533
H    -0.109420  -0.900656  5.049905
H    0.410477  -3.252969  2.235944
H    0.365144  -2.967420  3.937497
H    1.839497  -3.307987  3.207825
O    2.209457  -1.406599  1.757983
H    2.965442  -0.993748  2.215367
