25
Energy: -13537.1013731 eV PBE+vdW (tier 2 basis)
N    1.601487  -0.586444  2.954235
C    0.435321  0.139214  2.348025
C    0.969495  1.550563  2.011924
O    2.005182  1.944181  2.503124
H    2.082315  -1.156643  2.252364
H    2.262523  0.176840  3.216969
H    0.138673  -0.391978  1.432100
C    -0.755231  0.221411  3.318697
C    -1.335207  -1.157037  3.716586
C    -1.311913  -1.463287  5.223323
C    0.045832  -1.327275  5.913350
N    1.122257  -2.023088  5.153412
H    -1.533793  0.832555  2.842758
H    -0.441970  0.795861  4.203721
H    -0.809902  -1.955258  3.168604
H    -2.375583  -1.224764  3.374678
H    -1.695543  -2.484349  5.372790
H    -2.015698  -0.802222  5.750019
H    -0.025987  -1.711087  6.940653
H    0.345796  -0.272036  5.994536
H    0.864107  -3.000835  4.991418
H    1.374556  -1.257223  3.886600
H    1.980579  -2.048960  5.710095
O    0.237475  2.328261  1.207443
H    -0.549772  1.869598  0.861578
