25
Energy: -13536.5902882 eV PBE+vdW (tier 2 basis)
N    0.550523  -0.397474  -0.152909
C    0.071652  -0.255629  1.216202
C    1.128185  -0.054989  2.323499
O    0.995977  -0.428522  3.471477
H    1.383048  -0.984390  -0.204487
H    0.816346  0.506189  -0.540541
H    -0.535320  0.664593  1.251940
C    -0.855725  -1.424052  1.609806
C    -0.193792  -2.807072  1.499333
C    -0.938586  -3.959516  2.189279
C    -2.351125  -4.236234  1.692056
N    -3.330908  -3.185651  2.208859
H    -1.715396  -1.348385  0.916432
H    -1.187075  -1.240483  2.645728
H    0.804832  -2.760996  1.956823
H    -0.043819  -3.054388  0.437914
H    -0.955892  -3.808145  3.282517
H    -0.374766  -4.891248  2.036647
H    -2.735128  -5.202354  2.039767
H    -2.422116  -4.202643  0.597186
H    -2.993728  -2.243176  1.946821
H    -3.388758  -3.214867  3.235290
H    -4.277786  -3.317817  1.831301
O    2.211732  0.613661  1.870390
H    2.809047  0.742286  2.634245
