25
Energy: -13536.6743767 eV PBE+vdW (tier 2 basis)
N    -0.200027  0.899596  -0.569744
C    -0.178924  0.798212  0.872601
C    1.160112  1.284731  1.385862
O    2.199301  1.346269  0.794002
H    -1.007686  0.433700  -0.978684
H    0.649744  0.514193  -0.982913
H    -0.932017  1.505071  1.267164
C    -0.450260  -0.611355  1.495130
C    -1.935943  -0.947217  1.652362
C    -2.729031  -0.075051  2.642413
C    -2.178043  -0.006991  4.069677
N    -1.260740  1.186592  4.299377
H    0.059148  -0.713107  2.468824
H    0.030474  -1.355742  0.845408
H    -2.022680  -1.997978  1.967466
H    -2.441622  -0.892845  0.676348
H    -3.747052  -0.481530  2.715172
H    -2.868272  0.948023  2.254142
H    -1.597059  -0.898480  4.337043
H    -2.984361  0.105145  4.803607
H    -1.762151  2.062946  4.105403
H    -0.392549  1.202525  3.705090
H    -0.955938  1.225192  5.280288
O    1.067015  1.631562  2.742464
H    1.968810  1.886338  3.023734
