25
Energy: -13537.226895 eV PBE+vdW (tier 2 basis)
N    -0.500698  0.024647  0.153203
C    -0.476742  -0.285159  1.607371
C    0.907617  -0.076744  2.254173
O    1.229354  -0.538039  3.320191
H    0.108109  -0.636185  -0.339765
H    -0.083486  0.945988  -0.009511
H    -1.119630  0.463370  2.102416
C    -1.022195  -1.690326  1.909316
C    -2.528259  -1.823080  2.188198
C    -3.538045  -1.847208  1.027216
C    -3.907943  -0.522542  0.355755
N    -2.976102  -0.158241  -0.767333
H    -0.495901  -2.029202  2.810748
H    -0.712012  -2.380490  1.106235
H    -2.830171  -1.049809  2.913997
H    -2.657735  -2.775861  2.720462
H    -4.478510  -2.248115  1.430852
H    -3.228198  -2.578545  0.260578
H    -3.886282  0.310636  1.071049
H    -4.921498  -0.573526  -0.060694
H    -1.867196  -0.062205  -0.394029
H    -3.257899  0.726227  -1.203013
H    -3.012856  -0.873935  -1.501199
O    1.694238  0.733286  1.497878
H    2.530470  0.865457  1.988199
