25
Energy: -13537.1360158 eV PBE+vdW (tier 2 basis)
N    0.769125  -0.664741  0.467305
C    -0.012397  -0.032275  1.524281
C    0.931701  0.023447  2.732943
O    0.941592  -0.781910  3.671125
H    0.610808  -0.248738  -0.445698
H    0.620026  -1.669941  0.412531
H    -0.203058  1.010416  1.231738
C    -1.331115  -0.731251  1.873650
C    -2.162152  -0.033199  2.972998
C    -2.921850  -0.984923  3.914013
C    -2.144537  -1.469919  5.133650
N    -0.926590  -2.297935  4.783031
H    -1.095702  -1.773746  2.146102
H    -1.921725  -0.807420  0.950829
H    -2.886763  0.636044  2.492316
H    -1.522806  0.627805  3.581138
H    -3.323046  -1.844965  3.353085
H    -3.803018  -0.471031  4.324684
H    -2.777201  -2.086927  5.783316
H    -1.768618  -0.624392  5.724165
H    -0.198021  -1.720007  4.232258
H    -1.186934  -3.118930  4.225280
H    -0.463039  -2.640621  5.632383
O    1.806591  1.017425  2.657528
H    2.439353  0.942049  3.401029
