25
Energy: -13537.2544533 eV PBE+vdW (tier 2 basis)
N    1.121432  0.434546  0.735852
C    0.059059  -0.215905  1.524996
C    0.445085  -1.688803  1.670412
O    1.489471  -2.046035  0.954325
H    0.757339  0.987734  -0.038512
H    1.775784  -1.144144  0.552956
H    -0.014398  0.209574  2.536396
C    -1.341502  -0.146800  0.877499
C    -1.504357  -0.811880  -0.514665
C    -2.312956  -2.128874  -0.609112
C    -1.571128  -3.473852  -0.528653
N    -1.584042  -4.114087  0.841389
H    -1.603296  0.917694  0.804617
H    -2.054782  -0.578820  1.592369
H    -0.528136  -0.957002  -1.004569
H    -2.029687  -0.092931  -1.155665
H    -2.799582  -2.133052  -1.593775
H    -3.146970  -2.114728  0.112036
H    -0.514985  -3.378218  -0.810364
H    -2.034443  -4.199413  -1.206960
H    -0.999936  -3.532845  1.541640
H    -1.182175  -5.057750  0.807082
H    -2.541024  -4.198960  1.201817
O    -0.228633  -2.483496  2.331985
H    1.701864  1.048047  1.305902
