25
Energy: -13536.5105861 eV PBE+vdW (tier 2 basis)
N    -0.069811  -0.131546  -0.036938
C    0.069330  -0.091826  1.418607
C    1.551311  -0.190434  1.788053
O    2.011989  -0.877901  2.677927
H    0.581775  0.511780  -0.484998
H    -1.011397  0.143395  -0.315557
H    -0.264656  0.874099  1.867023
C    -0.754598  -1.235860  2.041554
C    -1.335634  -0.986858  3.442309
C    -0.312737  -0.818193  4.576072
C    -0.921902  -0.839924  5.967877
N    -1.428227  -2.242327  6.302613
H    -0.150731  -2.153908  2.035989
H    -1.598950  -1.421902  1.363900
H    -2.004786  -1.845045  3.648753
H    -1.994124  -0.102819  3.420202
H    0.206932  0.145189  4.481697
H    0.489592  -1.568773  4.497794
H    -1.791129  -0.176372  6.065274
H    -0.195328  -0.589677  6.749732
H    -1.893449  -2.282759  7.218245
H    -2.098441  -2.555915  5.585904
H    -0.649047  -2.914615  6.308389
O    2.307160  0.623370  1.017545
H    3.236403  0.510819  1.299680
