25
Energy: -13537.3906898 eV PBE+vdW (tier 2 basis)
N    -0.961962  -1.024583  1.026379
C    -0.126918  -0.143129  1.912129
C    1.277883  -0.165395  1.293320
O    1.525775  -0.759979  0.262225
H    -0.383463  -1.203277  0.182649
H    -1.820975  -0.550413  0.738398
H    -0.497114  0.889260  1.825102
C    -0.154888  -0.567446  3.386326
C    0.421316  -1.977880  3.655256
C    -0.561142  -2.983576  4.277455
C    -1.886695  -3.171024  3.538752
N    -1.680005  -3.366349  2.075432
H    -1.191058  -0.482046  3.745149
H    0.407819  0.190791  3.943921
H    1.285014  -1.892897  4.326064
H    0.836279  -2.400089  2.725316
H    -0.800696  -2.683704  5.308243
H    -0.052872  -3.956553  4.361702
H    -2.531883  -2.287242  3.652911
H    -2.434425  -4.017161  3.976527
H    -2.551243  -3.674782  1.636274
H    -1.249883  -2.075788  1.484296
H    -1.002100  -4.116068  1.909788
O    2.151861  0.544233  2.011183
H    3.018375  0.518094  1.556204
