25
Energy: -13537.0274353 eV PBE+vdW (tier 2 basis)
N    0.143950  -0.468344  -0.234572
C    -0.002243  -0.443492  1.212007
C    1.352627  -0.712408  1.848965
O    1.756841  -0.205757  2.900787
H    0.381160  -1.398022  -0.580749
H    -0.718387  -0.172983  -0.690629
H    -0.259079  0.590474  1.495336
C    -1.107828  -1.382403  1.802175
C    -1.644842  -1.041491  3.202399
C    -0.770553  -1.496246  4.397661
C    -0.473107  -0.425289  5.440696
N    0.225728  0.776054  4.826530
H    -0.770300  -2.429562  1.757798
H    -1.942394  -1.305558  1.090870
H    -2.638888  -1.495673  3.303060
H    -1.839467  0.045253  3.241251
H    0.180255  -1.921292  4.049342
H    -1.269581  -2.314023  4.934745
H    0.198275  -0.812894  6.215656
H    -1.382446  -0.055000  5.930129
H    0.760767  1.299240  5.527232
H    0.884980  0.459277  4.031216
H    -0.451689  1.425777  4.414412
O    2.085595  -1.597761  1.183417
H    2.937273  -1.717846  1.651252
