25
Energy: -13537.2298781 eV PBE+vdW (tier 2 basis)
N    0.537540  -0.841432  0.433847
C    0.232068  -0.289298  1.776794
C    1.408613  -0.253418  2.759026
O    1.342679  0.272535  3.842110
H    1.492290  -0.590729  0.162636
H    0.521527  -1.864734  0.458716
H    -0.038946  0.771715  1.638854
C    -0.950685  -1.024066  2.433159
C    -2.199973  -1.223739  1.561861
C    -2.832799  0.043293  0.937767
C    -2.696738  0.149349  -0.578164
N    -1.284961  0.452893  -1.018220
H    -1.206168  -0.465249  3.343159
H    -0.604604  -2.012902  2.773820
H    -2.946180  -1.712936  2.201021
H    -1.995737  -1.958024  0.765723
H    -2.455942  0.961641  1.417329
H    -3.912366  0.046810  1.139496
H    -3.348222  0.933978  -0.983042
H    -2.975975  -0.797969  -1.057133
H    -1.061587  1.435660  -0.827061
H    -1.182371  0.321350  -2.029844
H    -0.487207  -0.191955  -0.468815
O    2.510479  -0.874353  2.263770
H    3.210006  -0.808722  2.945074
