25
Energy: -13537.1792102 eV PBE+vdW (tier 2 basis)
N    -0.825367  0.743932  1.128015
C    -0.042167  -0.462574  1.360857
C    0.800138  -0.927953  0.161522
O    0.885861  -2.084142  -0.265938
H    -1.398028  0.683800  0.286667
H    -0.236851  1.570554  1.040404
H    0.703946  -0.212959  2.134807
C    -0.911802  -1.601558  1.906626
C    -2.095164  -2.007415  1.000588
C    -2.488703  -3.491818  1.098620
C    -1.768860  -4.415588  0.122270
N    -0.266229  -4.426793  0.311901
H    -1.299418  -1.274396  2.879700
H    -0.256769  -2.457962  2.127723
H    -1.881633  -1.773592  -0.055915
H    -2.963202  -1.391419  1.264481
H    -3.557921  -3.611795  0.872380
H    -2.366129  -3.858213  2.130915
H    -1.934152  -4.097721  -0.915309
H    -2.114353  -5.451736  0.222781
H    0.181083  -5.069693  -0.351591
H    0.164728  -3.452528  0.155831
H    -0.017822  -4.741500  1.256733
O    1.474593  0.068375  -0.410982
H    2.001271  -0.294042  -1.152212
