25
Energy: -13537.2260789 eV PBE+vdW (tier 2 basis)
N    0.011428  -0.181811  0.474757
C    0.287622  -0.162102  1.941364
C    1.778734  -0.061750  2.292008
O    2.184971  0.068660  3.418700
H    0.853486  -0.498477  -0.015629
H    -0.146826  0.771096  0.140734
H    -0.167966  0.747004  2.357894
C    -0.332097  -1.366615  2.676552
C    0.123172  -2.767062  2.195461
C    -0.937693  -3.622690  1.482488
C    -1.254959  -3.288431  0.028531
N    -1.896628  -1.935797  -0.136394
H    -1.428325  -1.274009  2.633471
H    -0.075061  -1.237579  3.735072
H    0.453275  -3.335686  3.073461
H    1.019197  -2.691982  1.557330
H    -1.870394  -3.630429  2.071585
H    -0.595617  -4.667878  1.473725
H    -1.929968  -4.040289  -0.398790
H    -0.342031  -3.271577  -0.583046
H    -1.123878  -1.109043  0.119843
H    -2.216660  -1.799170  -1.100791
H    -2.719243  -1.846649  0.469467
O    2.577732  -0.163861  1.193539
H    3.504154  -0.097528  1.501099
