25
Energy: -13536.5612159 eV PBE+vdW (tier 2 basis)
N    0.446407  -0.000739  0.043049
C    0.092896  0.091491  1.454283
C    1.221980  0.356040  2.469624
O    1.066054  0.336811  3.671618
H    0.737302  0.906261  -0.319407
H    1.242511  -0.626076  -0.089059
H    -0.578164  0.960569  1.569786
C    -0.684275  -1.161877  1.901223
C    -2.021330  -1.293590  1.171958
C    -2.739616  -2.608343  1.505403
C    -4.066861  -2.705054  0.774297
N    -4.778816  -4.015209  1.110241
H    -0.831550  -1.114011  2.988670
H    -0.059569  -2.048867  1.700833
H    -1.841679  -1.223355  0.088304
H    -2.669892  -0.444349  1.442959
H    -2.907344  -2.676440  2.593926
H    -2.096423  -3.459121  1.223212
H    -3.946810  -2.696434  -0.316224
H    -4.761229  -1.903886  1.056844
H    -4.200012  -4.823284  0.843096
H    -5.683252  -4.100580  0.627332
H    -4.952409  -4.086030  2.122349
O    2.408299  0.629572  1.871681
H    3.046239  0.805551  2.591815
