25
Energy: -13536.8202634 eV PBE+vdW (tier 2 basis)
N    0.862504  -1.080717  0.195077
C    0.194365  -0.448834  1.340207
C    1.230989  -0.061605  2.398052
O    1.153442  -0.292981  3.589131
H    1.614028  -0.480796  -0.147129
H    0.203162  -1.184239  -0.577861
H    -0.281580  0.520607  1.080344
C    -0.928562  -1.332088  1.908103
C    -0.664092  -2.841653  2.078211
C    0.459161  -3.213276  3.059530
C    1.806208  -3.493725  2.414512
N    0.040880  -4.488571  3.821663
H    -1.790196  -1.243027  1.230794
H    -1.249066  -0.900224  2.866034
H    -0.453007  -3.304312  1.103251
H    -1.617855  -3.272010  2.427375
H    0.550171  -2.446813  3.841023
H    2.064121  -2.660285  1.750579
H    2.606982  -3.618675  3.155332
H    1.763518  -4.386868  1.772314
H    -0.826831  -4.342160  4.353297
H    0.776012  -4.778117  4.480407
H    -0.115908  -5.268066  3.167732
O    2.254384  0.622303  1.841490
H    2.862154  0.884553  2.561416
