25
Energy: -13536.6401414 eV PBE+vdW (tier 2 basis)
N    -0.705333  -1.492813  0.566349
C    -0.217476  -0.598524  1.634085
C    0.998246  0.230119  1.223914
O    1.768886  0.736886  2.008070
H    -0.445248  -1.118012  -0.346725
H    -1.725412  -1.511730  0.579837
H    -0.970047  0.177373  1.875186
C    0.044257  -1.371185  2.946803
C    1.371501  -2.145957  3.067854
C    1.767635  -3.108741  1.933969
C    0.737794  -4.162020  1.562985
N    0.332337  -4.980464  2.785765
H    -0.828544  -2.032610  3.085996
H    0.010822  -0.662444  3.784857
H    1.366852  -2.679229  4.036296
H    2.187235  -1.418750  3.170756
H    2.726881  -3.587657  2.188035
H    1.954045  -2.549562  1.005921
H    1.117398  -4.881451  0.828031
H    -0.172695  -3.682230  1.175483
H    -0.047660  -4.361793  3.515192
H    1.140263  -5.470879  3.192644
H    -0.382780  -5.681611  2.556369
O    1.098841  0.371281  -0.123896
H    1.858213  0.964079  -0.292381
