25
Energy: -13536.3842902 eV PBE+vdW (tier 2 basis)
N    -0.265519  -0.215370  -0.128000
C    0.000502  -0.067915  1.294144
C    1.487131  0.119688  1.588153
O    1.901786  0.700472  2.568663
H    0.255303  -0.995379  -0.528697
H    -1.255688  -0.361761  -0.319536
H    -0.446166  0.886309  1.617271
C    -0.523850  -1.202248  2.226571
C    -2.025674  -1.106607  2.525448
C    -2.342294  0.009450  3.535408
C    -3.832525  0.126267  3.800295
N    -4.110744  1.231144  4.818335
H    0.031950  -1.188596  3.177077
H    -0.306758  -2.165818  1.744822
H    -2.379822  -2.067306  2.928546
H    -2.591049  -0.940004  1.592898
H    -1.957432  0.972963  3.162129
H    -1.809849  -0.201444  4.477851
H    -4.259379  -0.790917  4.225319
H    -4.401873  0.393322  2.901168
H    -3.763272  2.138201  4.476959
H    -5.115122  1.331855  5.017716
H    -3.629542  1.037207  5.707583
O    2.279730  -0.484507  0.674373
H    3.204551  -0.334652  0.954221
