25
Energy: -13536.8061407 eV PBE+vdW (tier 2 basis)
N    -0.072778  0.537824  1.249857
C    -0.620150  -0.225740  2.361140
C    0.536467  -0.706531  3.222807
O    1.610739  -0.179023  3.320839
H    0.748091  1.067706  1.544103
H    -0.759698  1.198610  0.889844
H    -1.216574  0.385014  3.076938
C    -1.536191  -1.355368  1.861955
C    -0.815351  -2.369678  0.961488
C    -1.506689  -3.736219  0.851575
C    -1.770309  -4.439872  2.179613
N    -0.525322  -4.456089  3.053038
H    -2.371104  -0.898789  1.311125
H    -1.997160  -1.829506  2.741557
H    0.225637  -2.505672  1.304960
H    -0.701044  -1.952151  -0.045606
H    -0.912381  -4.396476  0.201228
H    -2.485604  -3.635542  0.359228
H    -2.071987  -5.483607  2.034317
H    -2.540974  -3.940767  2.778178
H    -0.253351  -3.483936  3.350088
H    0.271443  -4.864650  2.547969
H    -0.675918  -5.014344  3.901682
O    0.233984  -1.840543  3.998670
H    0.990722  -1.906948  4.617045
