25
Energy: -13537.0773796 eV PBE+vdW (tier 2 basis)
N    1.113328  -0.171283  0.592051
C    0.538282  -0.422330  1.923065
C    1.759274  -0.447415  2.836839
O    2.324866  -1.442840  3.288572
H    1.469721  0.781499  0.516821
H    0.399685  -0.287197  -0.127644
H    -0.122394  0.388755  2.288151
C    -0.259983  -1.729207  1.889358
C    -1.139127  -2.055900  3.110097
C    -0.506862  -2.741946  4.335177
C    0.163028  -4.088043  4.038041
N    1.653137  -3.937120  3.791346
H    0.412764  -2.558377  1.615743
H    -0.938202  -1.632890  1.028352
H    -1.952888  -2.709361  2.761196
H    -1.637028  -1.136139  3.451933
H    -1.311165  -2.932541  5.058665
H    0.199770  -2.082409  4.861471
H    -0.261191  -4.555743  3.141166
H    0.050539  -4.795300  4.866674
H    1.884710  -2.961182  3.402189
H    2.175074  -4.012150  4.671438
H    2.016168  -4.659111  3.160524
O    2.220358  0.780677  3.069881
H    3.050393  0.716508  3.585656
