25
Energy: -13536.3770714 eV PBE+vdW (tier 2 basis)
N    -0.324807  -0.250793  -0.068362
C    0.125968  -0.368337  1.305825
C    1.593782  -0.791746  1.397796
O    2.278736  -0.613526  2.381207
H    -0.262225  -1.127757  -0.582783
H    -1.268155  0.121969  -0.145544
H    0.100946  0.637373  1.754937
C    -0.669816  -1.320772  2.245536
C    -2.103359  -0.851940  2.498829
C    -2.848485  -1.782593  3.467916
C    -4.260188  -1.290205  3.737453
N    -4.978717  -2.213741  4.720030
H    -0.128775  -1.385427  3.202207
H    -0.674847  -2.330615  1.803509
H    -2.659045  -0.798091  1.548505
H    -2.085821  0.168961  2.914660
H    -2.288339  -1.843238  4.416159
H    -2.881504  -2.801383  3.046634
H    -4.880284  -1.270365  2.832522
H    -4.275890  -0.292975  4.194830
H    -5.033781  -3.172071  4.348241
H    -5.937195  -1.897058  4.919767
H    -4.469722  -2.262474  5.613582
O    2.020104  -1.443265  0.289626
H    2.952850  -1.687750  0.451340
