25
Energy: -13536.552276 eV PBE+vdW (tier 2 basis)
N    0.067931  0.532164  0.282165
C    0.006546  0.239823  1.720764
C    1.412405  -0.082825  2.234160
O    1.916915  -1.188694  2.265291
H    0.500161  -0.240926  -0.227619
H    0.624831  1.367323  0.099527
H    -0.346501  1.155238  2.220019
C    -0.983881  -0.905006  1.955623
C    -1.472244  -1.107137  3.398828
C    -0.411458  -1.600749  4.397034
C    -0.991785  -2.149663  5.688729
N    -1.787745  -1.073162  6.427809
H    -0.541053  -1.843503  1.588133
H    -1.854655  -0.691778  1.321848
H    -2.293175  -1.843452  3.364248
H    -1.920211  -0.155976  3.744855
H    0.324336  -0.814886  4.630711
H    0.175725  -2.414682  3.947118
H    -0.220949  -2.491102  6.389661
H    -1.699478  -2.969842  5.511748
H    -2.536131  -0.706773  5.822722
H    -1.182587  -0.280208  6.680868
H    -2.217951  -1.432750  7.289485
O    2.080364  1.048063  2.590679
H    3.003864  0.786635  2.780001
