25
Energy: -13536.7692325 eV PBE+vdW (tier 2 basis)
N    0.916476  -1.985716  -0.145117
C    -0.174079  -1.554954  0.701171
C    0.260499  -1.332588  2.147544
O    -0.524163  -0.965358  3.031868
H    0.678545  -1.907910  -1.131677
H    1.206264  -2.945507  0.040031
H    -0.431107  -0.535085  0.364391
C    -1.485954  -2.411571  0.714079
C    -2.698134  -1.849536  -0.054356
C    -3.034428  -0.338602  0.011684
C    -2.958525  0.440904  1.339776
N    -3.090783  -0.406361  2.586669
H    -1.769946  -2.629297  1.753050
H    -1.235799  -3.390429  0.283831
H    -3.580363  -2.431437  0.255209
H    -2.586858  -2.074539  -1.124519
H    -4.047779  -0.228713  -0.396905
H    -2.385867  0.210909  -0.684993
H    -3.741579  1.205805  1.374635
H    -1.994898  0.949352  1.458152
H    -2.106987  -0.784800  2.817725
H    -3.759515  -1.174409  2.469405
H    -3.401173  0.158631  3.384638
O    1.538786  -1.563357  2.397872
H    1.704053  -1.385322  3.347287
