25
Energy: -13536.6379595 eV PBE+vdW (tier 2 basis)
N    0.251724  -0.597666  0.071558
C    -0.067883  -0.161665  1.436234
C    1.145790  0.497861  2.095669
O    1.478293  0.365510  3.255511
H    0.726166  0.149704  -0.435242
H    -0.609064  -0.794750  -0.440536
H    -0.830150  0.646555  1.464079
C    -0.628821  -1.317179  2.283762
C    0.062448  -2.678982  2.103601
C    1.574572  -2.681362  2.363700
C    2.205023  -4.061591  2.325472
N    1.707050  -4.907496  3.497447
H    -1.689665  -1.446800  2.026266
H    -0.598516  -1.009380  3.337638
H    -0.112225  -3.049531  1.082849
H    -0.463113  -3.377949  2.782993
H    1.822127  -2.174762  3.310632
H    2.071443  -2.098871  1.574066
H    3.296883  -4.031875  2.419357
H    1.940990  -4.621625  1.418985
H    2.074617  -5.866912  3.472502
H    1.981822  -4.481285  4.392838
H    0.678107  -4.953898  3.483143
O    1.791963  1.313858  1.227565
H    2.510525  1.752861  1.724121
