25
Energy: -13537.4065497 eV PBE+vdW (tier 2 basis)
N    -0.146257  -1.673676  0.142749
C    0.164067  -0.720688  1.230065
C    1.681291  -0.675883  1.383343
O    2.456751  -1.373762  0.754743
H    0.355793  -1.401393  -0.706035
H    -1.143686  -1.636339  -0.077970
H    -0.117821  0.309268  0.952302
C    -0.616038  -1.054599  2.537604
C    -1.013495  -2.518998  2.801137
C    0.030020  -3.521859  3.323711
C    1.266329  -3.800870  2.472077
N    0.929585  -4.022180  1.019717
H    -1.550558  -0.478768  2.498493
H    -0.055420  -0.644454  3.388457
H    -1.519122  -2.935875  1.915486
H    -1.803518  -2.485195  3.564558
H    -0.493786  -4.471751  3.512717
H    0.402352  -3.192441  4.305315
H    1.793096  -4.690139  2.839403
H    1.977811  -2.970419  2.483444
H    0.325460  -4.841665  0.894515
H    1.785650  -4.171080  0.474734
H    0.429838  -3.114414  0.595822
O    2.055853  0.249726  2.282252
H    3.033804  0.270452  2.306360
