25
Energy: -13536.6143651 eV PBE+vdW (tier 2 basis)
N    0.492288  -1.413488  -0.215054
C    0.064461  -0.675326  0.975738
C    1.202912  0.210745  1.493440
O    1.967213  -0.051466  2.409833
H    0.675299  -0.789032  -0.999875
H    1.342361  -1.950014  -0.035843
H    -0.752366  -0.006426  0.664598
C    -0.465160  -1.664647  2.020461
C    -0.948296  -1.028600  3.342156
C    0.037378  -1.268206  4.497582
C    -0.282631  -0.418851  5.712465
N    0.811367  -0.592051  6.764330
H    0.313321  -2.415473  2.226895
H    -1.285336  -2.206531  1.534733
H    -1.935234  -1.428639  3.613006
H    -1.091211  0.055867  3.204372
H    1.047964  -1.022194  4.132761
H    0.026661  -2.335998  4.772458
H    -1.226617  -0.687751  6.203353
H    -0.301429  0.652410  5.475019
H    1.725803  -0.332776  6.367665
H    0.877685  -1.574646  7.062840
H    0.648918  -0.015942  7.600661
O    1.322546  1.332894  0.744907
H    2.125932  1.802042  1.045614
