25
Energy: -13537.1217946 eV PBE+vdW (tier 2 basis)
N    1.596410  -0.999029  2.837408
C    0.636168  -0.055922  2.205049
C    1.208207  1.365808  2.401552
O    2.141166  1.567797  3.146928
H    2.116419  -1.506129  2.118655
H    2.286021  -0.396610  3.321798
H    0.582434  -0.270916  1.127225
C    -0.788562  -0.169993  2.793524
C    -0.957101  0.239599  4.278374
C    -1.201988  -0.888423  5.295210
C    0.002910  -1.706382  5.749286
N    0.546357  -2.591676  4.662527
H    -1.147924  -1.196608  2.621750
H    -1.448784  0.454311  2.174544
H    -1.822114  0.911516  4.341215
H    -0.101548  0.848203  4.611598
H    -1.993829  -1.564836  4.930127
H    -1.612155  -0.436898  6.210023
H    -0.266094  -2.338039  6.605162
H    0.829433  -1.052782  6.061312
H    -0.191269  -3.195309  4.284469
H    1.012481  -1.926071  3.801739
H    1.278459  -3.208687  5.029203
O    0.610359  2.377549  1.752409
H    -0.094454  2.064528  1.156914
