25
Energy: -13536.534418 eV PBE+vdW (tier 2 basis)
N    0.637162  -1.070315  0.109365
C    -0.058555  -0.461195  1.231975
C    0.951822  0.184717  2.177198
O    0.733857  1.174281  2.857444
H    1.266803  -1.814840  0.407236
H    -0.022057  -1.459168  -0.563631
H    -0.657400  0.375064  0.837928
C    -1.028496  -1.407694  2.019707
C    -2.232086  -0.743380  2.710507
C    -1.891741  0.033831  3.991040
C    -3.092380  0.780876  4.539997
N    -2.645941  1.692090  5.681890
H    -0.458706  -2.027016  2.730614
H    -1.427761  -2.105078  1.269866
H    -2.975465  -1.521375  2.942599
H    -2.716131  -0.061279  1.991601
H    -1.090996  0.756251  3.765329
H    -1.500947  -0.660818  4.753368
H    -3.872400  0.128456  4.952528
H    -3.546971  1.442148  3.791258
H    -1.916686  2.340149  5.350897
H    -2.235641  1.141981  6.448661
H    -3.420040  2.248128  6.068329
O    2.115960  -0.491372  2.228730
H    2.703143  -0.014460  2.847882
