25
Energy: -13536.6331124 eV PBE+vdW (tier 2 basis)
N    0.247004  -0.225314  0.328252
C    0.386487  -0.157328  1.788049
C    1.772856  -0.665923  2.183100
O    2.026713  -1.482642  3.049753
H    1.043771  0.215632  -0.130664
H    -0.585149  0.287712  0.034970
H    0.365230  0.882618  2.179592
C    -0.766066  -0.912547  2.470011
C    -0.914374  -2.392981  2.058701
C    -0.426974  -3.364898  3.144389
C    -0.322378  -4.783149  2.618189
N    0.286234  -5.689086  3.687534
H    -1.686798  -0.370883  2.211513
H    -0.661111  -0.815093  3.559834
H    -0.353693  -2.549374  1.123914
H    -1.964529  -2.613002  1.820658
H    -1.112740  -3.335117  4.007954
H    0.562514  -3.024545  3.488663
H    0.345399  -4.853224  1.750240
H    -1.290510  -5.227759  2.354395
H    1.211717  -5.333429  3.965608
H    0.398125  -6.659217  3.365247
H    -0.300995  -5.699624  4.532431
O    2.734616  -0.050926  1.458327
H    3.597576  -0.384222  1.774052
