25
Energy: -13536.5971357 eV PBE+vdW (tier 2 basis)
N    -0.321550  0.631167  0.234107
C    0.015332  0.184745  1.577696
C    1.513517  0.059646  1.899465
O    1.997822  0.181815  3.013797
H    0.032691  -0.016656  -0.471065
H    0.093265  1.540694  0.031215
H    -0.360692  0.943843  2.281606
C    -0.717540  -1.155506  1.871777
C    -1.241447  -1.345482  3.302860
C    -0.150570  -1.578623  4.358632
C    -0.718678  -1.637309  5.763460
N    0.426017  -1.712038  6.772361
H    -0.089120  -2.010046  1.574860
H    -1.584093  -1.157456  1.196785
H    -1.939305  -2.196857  3.305403
H    -1.836273  -0.459871  3.580416
H    0.591858  -0.765895  4.296961
H    0.385089  -2.516241  4.132785
H    -1.350717  -2.514967  5.949715
H    -1.286924  -0.734514  6.021578
H    0.093905  -1.720393  7.745679
H    1.055858  -0.905760  6.652947
H    0.989768  -2.559538  6.620993
O    2.259461  -0.219441  0.809496
H    3.188814  -0.287691  1.105655
