25
Energy: -13537.119097 eV PBE+vdW (tier 2 basis)
N    0.160511  0.055959  0.621716
C    0.579315  -0.515394  1.877520
C    2.005565  -1.048659  2.018151
O    2.506336  -1.298302  3.121489
H    0.727671  0.853284  0.338646
H    0.166815  -0.625142  -0.136848
H    0.542294  0.295700  2.625419
C    -0.414384  -1.632604  2.314475
C    -1.579582  -1.116926  3.171523
C    -1.389513  -1.168427  4.696479
C    -0.261637  -0.356029  5.339164
N    1.073467  -1.074171  5.357569
H    0.111561  -2.447808  2.834836
H    -0.804409  -2.079602  1.390260
H    -2.473411  -1.717167  2.953275
H    -1.832481  -0.093209  2.855248
H    -1.305470  -2.217885  5.029925
H    -2.317820  -0.802666  5.158631
H    -0.502744  -0.147305  6.388252
H    -0.095884  0.606106  4.838324
H    0.957462  -2.028826  5.718023
H    1.576025  -1.146432  4.397540
H    1.728919  -0.595801  5.986889
O    2.665718  -1.228457  0.882577
H    3.557943  -1.578393  1.087146
