25
Energy: -13536.8490695 eV PBE+vdW (tier 2 basis)
N    0.615378  -0.596293  -0.088127
C    0.113827  -0.323558  1.252724
C    1.285355  0.012579  2.175291
O    2.442089  0.076065  1.820881
H    1.575774  -0.256583  -0.169539
H    0.052696  -0.133156  -0.797962
H    -0.558846  0.550967  1.293379
C    -0.691667  -1.536475  1.790861
C    0.179885  -2.796803  1.821684
C    -0.627362  -4.086544  1.889019
C    -1.378029  -4.337397  3.186269
N    0.357500  -5.255026  1.668608
H    -1.539010  -1.687034  1.104742
H    -1.103746  -1.302170  2.780613
H    0.878544  -2.753844  2.675059
H    0.776015  -2.780237  0.891334
H    -1.308883  -4.149988  1.027649
H    -2.133428  -3.554499  3.320099
H    -1.908674  -5.299394  3.184947
H    -0.706943  -4.298018  4.056339
H    0.872088  -5.135428  0.785552
H    -0.124004  -6.163558  1.645885
H    1.050153  -5.284963  2.429748
O    0.875142  0.225187  3.450263
H    1.667027  0.478768  3.964795
