25
Energy: -13536.7136868 eV PBE+vdW (tier 2 basis)
N    -0.176675  -0.107900  0.182989
C    -0.786933  -0.046597  1.518515
C    0.270686  -0.400065  2.564610
O    0.497447  -1.524119  2.987480
H    0.284238  -1.006213  0.026733
H    0.525761  0.622231  0.063783
H    -1.104832  0.993449  1.682003
C    -2.008820  -0.971899  1.560178
C    -3.017270  -0.729345  2.695951
C    -2.585745  -1.045621  4.140912
C    -2.054971  -2.451195  4.384521
N    -3.066558  -3.505717  3.943423
H    -1.651124  -2.016684  1.546394
H    -2.530039  -0.819348  0.605806
H    -3.941822  -1.285742  2.457014
H    -3.335988  0.323187  2.674880
H    -3.428091  -0.840141  4.820895
H    -1.782458  -0.368027  4.464113
H    -1.862634  -2.641312  5.446731
H    -1.136849  -2.641429  3.813088
H    -2.709043  -4.456953  4.097153
H    -3.274159  -3.403862  2.940569
H    -3.955608  -3.413234  4.452975
O    1.005142  0.678163  2.914938
H    1.734436  0.368099  3.488800
