25
Energy: -13536.5972599 eV PBE+vdW (tier 2 basis)
N    0.055044  0.933949  0.430010
C    0.312651  0.124427  1.606408
C    1.762289  0.056640  2.108678
O    2.077365  -0.170502  3.266980
H    0.602940  0.621915  -0.371923
H    0.287119  1.913277  0.590410
H    -0.244562  0.565332  2.447955
C    -0.263944  -1.294232  1.370127
C    -0.209080  -2.250732  2.575299
C    1.080824  -3.100651  2.680297
C    1.690742  -3.141554  4.070802
N    0.691195  -3.695228  5.083974
H    0.234327  -1.754498  0.501929
H    -1.306468  -1.129716  1.070515
H    -1.079155  -2.920327  2.522368
H    -0.340258  -1.640512  3.487682
H    1.867992  -2.692862  2.031458
H    0.903128  -4.122394  2.310113
H    1.945870  -2.129896  4.411418
H    2.575063  -3.786718  4.131997
H    1.064879  -3.671479  6.041198
H    -0.171600  -3.132563  5.065282
H    0.433734  -4.666963  4.865519
O    2.671743  0.254218  1.130260
H    3.557612  0.214588  1.542784
