25
Energy: -13536.5940612 eV PBE+vdW (tier 2 basis)
N    0.062624  0.179277  0.149655
C    -0.019308  0.095022  1.611613
C    1.362990  -0.151879  2.229310
O    1.783076  -1.226137  2.614936
H    0.518424  -0.648786  -0.238213
H    0.608063  0.990617  -0.141113
H    -0.381719  1.071053  1.970750
C    -1.009398  -1.006665  1.995117
C    -1.265130  -1.135585  3.500482
C    -2.248531  -2.269033  3.819205
C    -2.375042  -2.590777  5.299018
N    -2.881488  -1.375971  6.074631
H    -0.625408  -1.968726  1.621585
H    -1.946268  -0.801722  1.457890
H    -1.647050  -0.164922  3.872624
H    -0.308783  -1.329766  4.011754
H    -1.904911  -3.197110  3.337803
H    -3.243759  -2.064449  3.390481
H    -1.407854  -2.847496  5.749591
H    -3.087480  -3.399226  5.501170
H    -2.930810  -1.555163  7.085702
H    -2.255828  -0.572742  5.918581
H    -3.819547  -1.100483  5.753479
O    2.104974  0.984539  2.237977
H    2.999166  0.742334  2.551183
