25
Energy: -13536.6583734 eV PBE+vdW (tier 2 basis)
N    -0.484821  -0.426570  0.097935
C    0.124473  -0.226968  1.411625
C    1.568120  -0.750884  1.484564
O    2.099639  -1.411582  0.621997
H    0.212373  -0.239600  -0.626714
H    -0.716233  -1.415535  -0.024987
H    0.201448  0.861067  1.594959
C    -0.711889  -0.858020  2.543823
C    -2.216434  -0.536812  2.556235
C    -2.583627  0.963992  2.509314
C    -2.860332  1.405250  1.078945
N    -3.020485  2.920773  0.992568
H    -0.264631  -0.552358  3.499366
H    -0.601986  -1.952816  2.494481
H    -2.633263  -0.966836  3.476040
H    -2.725423  -1.058895  1.732213
H    -1.762983  1.560967  2.942593
H    -3.471341  1.150750  3.132727
H    -3.799473  0.984290  0.698416
H    -2.046021  1.108621  0.396052
H    -3.229548  3.225963  0.032926
H    -3.780065  3.254163  1.602342
H    -2.158420  3.395878  1.291478
O    2.176261  -0.363045  2.633121
H    3.083076  -0.728992  2.616716
