25
Energy: -13537.2904135 eV PBE+vdW (tier 2 basis)
N    1.104844  -1.399046  2.300193
C    0.323832  -0.237634  1.822251
C    1.016415  1.075114  2.218206
O    1.687792  1.223473  3.224367
H    0.620735  -2.255381  2.020982
H    2.013667  -1.424856  1.830796
H    0.241658  -0.254908  0.719861
C    -1.124232  -0.244518  2.377174
C    -1.357532  -0.004362  3.879907
C    -1.026951  -1.170750  4.844252
C    0.180852  -0.993526  5.761392
N    1.470180  -0.840382  4.999812
H    -1.583186  -1.201263  2.079151
H    -1.680244  0.525338  1.822435
H    -2.427690  0.218092  3.980023
H    -0.852317  0.919487  4.202668
H    -0.928812  -2.115922  4.288946
H    -1.878058  -1.326268  5.521306
H    0.288941  -1.871365  6.409461
H    0.072195  -0.111838  6.405389
H    1.423358  -1.352954  4.061287
H    1.621536  0.130915  4.645284
H    2.284574  -1.127777  5.548831
O    0.800918  2.129037  1.418804
H    0.298526  1.880294  0.621221
