25
Energy: -13536.5859135 eV PBE+vdW (tier 2 basis)
N    0.093280  -0.147100  0.417756
C    0.263364  -0.384028  1.847923
C    1.644864  -0.838552  2.343063
O    2.051996  -0.643995  3.466969
H    0.300742  -0.996176  -0.111652
H    0.758007  0.554355  0.090671
H    0.100534  0.571384  2.370954
C    -0.770882  -1.411533  2.360496
C    -2.215716  -1.110263  1.944800
C    -2.694874  0.285649  2.368367
C    -4.151070  0.490538  1.995028
N    -4.606244  1.905084  2.351751
H    -0.686638  -1.469325  3.455080
H    -0.507055  -2.408660  1.975795
H    -2.870752  -1.877875  2.384952
H    -2.305927  -1.193226  0.852462
H    -2.076645  1.041932  1.857525
H    -2.561298  0.418226  3.455423
H    -4.827378  -0.188350  2.529475
H    -4.322647  0.381745  0.916705
H    -4.036356  2.604381  1.855968
H    -4.495292  2.080547  3.359886
H    -5.592236  2.069433  2.108386
O    2.341235  -1.509006  1.389625
H    3.185629  -1.783683  1.799234
