25
Energy: -13537.2164853 eV PBE+vdW (tier 2 basis)
N    -1.097464  1.651191  0.663546
C    -0.249744  0.947553  1.628591
C    1.214991  1.206106  1.286534
O    2.104803  0.361113  1.176441
H    -0.876843  2.646577  0.635196
H    -2.075973  1.573182  0.942763
H    -0.341178  1.334209  2.668488
C    -0.577298  -0.548606  1.666529
C    -0.517415  -1.248414  0.296869
C    -0.174704  -2.745222  0.356493
C    1.140895  -3.093554  1.049266
N    2.283112  -2.247237  0.530369
H    -1.580050  -0.667098  2.101991
H    0.104447  -1.013740  2.393720
H    0.194997  -0.726548  -0.361328
H    -1.478283  -1.138899  -0.220097
H    -0.164231  -3.153877  -0.665895
H    -0.960538  -3.300710  0.890096
H    1.408096  -4.144940  0.891576
H    1.107263  -2.912114  2.129999
H    2.356303  -2.310279  -0.492044
H    2.146957  -1.217994  0.792450
H    3.180927  -2.551678  0.923093
O    1.473240  2.507009  1.156662
H    2.424762  2.622761  0.958091
