25
Energy: -13536.6080825 eV PBE+vdW (tier 2 basis)
N    0.491507  -0.239888  0.515164
C    -0.101510  0.105054  1.820765
C    0.926896  0.773693  2.731871
O    0.984290  0.646500  3.935382
H    1.028478  0.553154  0.161997
H    -0.257601  -0.401604  -0.159882
H    -0.890519  0.881124  1.724476
C    -0.767912  -1.105859  2.496111
C    0.153500  -2.233633  2.984227
C    0.842080  -3.030525  1.863988
C    1.810323  -4.044237  2.442468
N    2.532602  -4.787167  1.319252
H    -1.520315  -1.507498  1.798529
H    -1.327704  -0.735084  3.364596
H    -0.445459  -2.921310  3.601101
H    0.912109  -1.804307  3.655485
H    1.362791  -2.324340  1.196164
H    0.080905  -3.545654  1.252828
H    1.320073  -4.815751  3.050384
H    2.596791  -3.572202  3.044944
H    3.034510  -4.120865  0.716231
H    1.859243  -5.287817  0.723673
H    3.212437  -5.471797  1.675563
O    1.756596  1.591529  2.030689
H    2.331883  2.036820  2.683697
