25
Energy: -13536.6049358 eV PBE+vdW (tier 2 basis)
N    -0.107575  -0.416580  -0.418584
C    -0.446369  -0.036890  0.942977
C    0.685982  0.506653  1.826809
O    0.544002  1.419724  2.620080
H    0.571065  -1.178928  -0.431707
H    0.306317  0.361249  -0.931766
H    -1.154181  0.805539  0.878999
C    -1.137247  -1.235668  1.632891
C    -1.535685  -1.067251  3.107273
C    -2.359803  0.185665  3.458921
C    -3.661721  0.282051  2.682960
N    -4.391776  1.567789  3.062023
H    -0.462076  -2.102074  1.567062
H    -2.004414  -1.494150  1.006466
H    -0.636421  -1.034590  3.738017
H    -2.085186  -1.967723  3.420395
H    -1.743184  1.080699  3.271676
H    -2.580103  0.164310  4.538702
H    -4.354885  -0.540296  2.901345
H    -3.511886  0.333795  1.597616
H    -5.277549  1.681287  2.551543
H    -3.800554  2.387095  2.862691
H    -4.601163  1.584211  4.069728
O    1.851059  -0.152947  1.647972
H    2.508956  0.247996  2.250419
