25
Energy: -13536.6720357 eV PBE+vdW (tier 2 basis)
N    0.632577  -1.121789  -0.110898
C    0.125631  -0.397308  1.060029
C    1.253121  0.320599  1.815562
O    2.418856  -0.005676  1.756761
H    1.549890  -1.508490  0.136296
H    0.825418  -0.455284  -0.860255
H    -0.592197  0.363966  0.719973
C    -0.602731  -1.330297  2.054387
C    -1.846956  -2.028663  1.483939
C    -1.517453  -3.248467  0.607516
C    -2.764752  -3.837281  -0.021921
N    -2.388247  -5.003647  -0.934120
H    -0.907074  -0.727901  2.920759
H    0.111449  -2.078610  2.435264
H    -2.431795  -1.302360  0.895971
H    -2.493029  -2.342544  2.318005
H    -1.012999  -4.012741  1.222965
H    -0.806131  -2.918897  -0.168873
H    -3.291345  -3.115835  -0.659691
H    -3.475603  -4.241509  0.710545
H    -1.733472  -4.688342  -1.663267
H    -3.206616  -5.420977  -1.396712
H    -1.913235  -5.743727  -0.399609
O    0.785618  1.337906  2.576804
H    1.551192  1.721653  3.049857
