25
Energy: -13536.3857374 eV PBE+vdW (tier 2 basis)
N    -0.255410  0.511720  0.288582
C    0.124180  -0.113820  1.544930
C    1.581505  -0.549045  1.424343
O    2.337391  -0.207027  0.546829
H    0.559753  0.924061  -0.166512
H    -0.959058  1.234831  0.422041
H    0.124058  0.595558  2.405089
C    -0.855141  -1.275387  1.889285
C    -1.396356  -1.309268  3.323664
C    -0.382877  -1.735556  4.397865
C    -1.042813  -1.810872  5.762935
N    -0.030243  -2.233990  6.826287
H    -0.408985  -2.245346  1.626487
H    -1.707817  -1.148267  1.210731
H    -2.249567  -2.005355  3.349387
H    -1.801691  -0.316527  3.582057
H    0.461189  -1.029131  4.426066
H    0.040768  -2.717352  4.129291
H    -1.850089  -2.553167  5.803159
H    -1.440944  -0.843259  6.093940
H    0.750999  -1.565278  6.870206
H    0.370259  -3.154714  6.599740
H    -0.450618  -2.293064  7.763433
O    1.979678  -1.363850  2.452510
H    2.920489  -1.558770  2.271414
