25
Energy: -13537.3363727 eV PBE+vdW (tier 2 basis)
N    0.442109  0.133064  0.347881
C    -0.001342  0.512663  1.697054
C    1.244496  0.522959  2.591394
O    1.267703  1.061578  3.700718
H    -0.221595  -0.480991  -0.122315
H    0.597822  0.942485  -0.252607
H    -0.437711  1.521926  1.743757
C    -1.048212  -0.506512  2.220794
C    -1.311797  -0.491328  3.737347
C    -0.450867  -1.496129  4.540604
C    -0.105872  -1.047177  5.961674
N    1.169035  -0.224144  5.986390
H    -0.731061  -1.515673  1.910799
H    -1.981189  -0.295160  1.681091
H    -2.368704  -0.729653  3.913312
H    -1.169390  0.529649  4.118526
H    0.481439  -1.742269  4.006291
H    -0.987382  -2.451340  4.616730
H    0.051844  -1.895070  6.637706
H    -0.897935  -0.419155  6.387013
H    1.993209  -0.835432  5.992247
H    1.257141  0.386171  5.104373
H    1.226021  0.372385  6.818606
O    2.271056  -0.131450  2.089815
H    1.939183  -0.360396  1.152800
