25
Energy: -13536.7909035 eV PBE+vdW (tier 2 basis)
N    -0.272422  1.000962  0.137410
C    -0.016011  0.435018  1.445958
C    1.377872  -0.186062  1.582761
O    2.001955  -0.765689  0.739356
H    0.407731  1.720509  -0.106778
H    -0.224763  0.284657  -0.588985
H    -0.089301  1.255744  2.180342
C    -1.088619  -0.634674  1.759295
C    -1.121924  -1.165901  3.196178
C    -1.616120  -0.143566  4.250436
C    -0.741940  -0.026545  5.490062
N    0.540630  0.734087  5.191872
H    -0.941492  -1.475996  1.065647
H    -2.055280  -0.180660  1.497044
H    -0.130924  -1.559376  3.475061
H    -1.782617  -2.041655  3.221171
H    -2.617826  -0.424191  4.602132
H    -1.747727  0.856690  3.804697
H    -0.436690  -1.009353  5.870707
H    -1.240506  0.518376  6.300719
H    0.332006  1.718666  4.983981
H    1.179752  0.721868  5.995829
H    1.057780  0.352247  4.353671
O    1.919623  -0.013519  2.875117
H    2.799310  -0.443983  2.850835
