25
Energy: -13537.1227932 eV PBE+vdW (tier 2 basis)
N    -0.035890  0.887176  0.721005
C    0.059833  0.147987  1.960728
C    1.503358  -0.183334  2.310816
O    1.873318  -0.453856  3.461790
H    0.363074  1.822453  0.780383
H    -1.002453  0.970844  0.411513
H    -0.321378  0.690886  2.853600
C    -0.745457  -1.172394  1.812567
C    -0.788466  -2.116872  3.017335
C    -1.534297  -1.583766  4.267958
C    -0.736404  -1.646354  5.564794
N    0.335882  -0.579534  5.616130
H    -0.343899  -1.703896  0.938638
H    -1.771994  -0.874144  1.545720
H    0.233338  -2.424734  3.287103
H    -1.278322  -3.041574  2.686149
H    -2.444332  -2.174453  4.437452
H    -1.894097  -0.553483  4.111258
H    -0.222424  -2.609938  5.671043
H    -1.375224  -1.502115  6.444600
H    0.968924  -0.723938  6.410866
H    0.935528  -0.543729  4.709520
H    -0.087542  0.348095  5.732228
O    2.345682  -0.194685  1.289980
H    3.231355  -0.445982  1.625849
