25
Energy: -13537.6749957 eV PBE+vdW (tier 2 basis)
N    -1.342708  -0.650894  1.825690
C    -0.194638  0.271863  1.668521
C    0.947840  -0.477503  0.985581
O    1.115845  -1.682834  1.047777
H    -1.595527  -1.069088  0.927190
H    -2.159371  -0.124045  2.142368
H    -0.451539  1.137789  1.040263
C    0.276748  0.813061  3.042236
C    1.037895  -0.149428  3.975356
C    0.287816  -1.317129  4.639664
C    -0.914209  -0.915322  5.487306
N    -0.167113  -2.312515  3.592788
H    -0.600330  1.240407  3.551833
H    0.940426  1.664362  2.840285
H    1.438918  0.452231  4.803476
H    1.926226  -0.547207  3.459854
H    -0.601015  -0.202733  6.259446
H    1.012344  -1.849118  5.272134
H    -1.705998  -0.439982  4.893949
H    -1.349886  -1.782265  6.001975
H    -0.815937  -1.776088  2.875596
H    -0.650485  -3.111126  4.015054
H    0.615029  -2.654073  3.018100
O    1.770467  0.368910  0.349882
H    2.506675  -0.150132  -0.034146
