25
Energy: -13536.7570923 eV PBE+vdW (tier 2 basis)
N    -0.410567  1.101903  0.873675
C    0.284165  0.030001  1.601182
C    1.328445  -0.589545  0.653685
O    1.074903  -0.350030  -0.640130
H    -1.379729  1.207637  1.172081
H    0.316941  0.310696  -0.604829
H    0.818226  0.382060  2.497342
C    -0.735066  -1.056053  2.019457
C    -0.153947  -2.265683  2.788491
C    -0.237849  -3.628308  2.072391
C    0.660165  -3.741552  0.848078
N    0.613991  -5.160354  0.284662
H    -1.278507  -1.384535  1.117624
H    -1.484464  -0.558463  2.651542
H    -0.699633  -2.379899  3.733374
H    0.892256  -2.072367  3.061049
H    -1.284373  -3.831307  1.787401
H    0.049710  -4.406440  2.799272
H    1.711194  -3.527078  1.070707
H    0.356571  -3.088695  0.020982
H    1.215475  -5.251121  -0.544980
H    -0.342209  -5.427160  0.013711
H    0.937076  -5.842984  0.983628
O    2.242904  -1.298559  1.030360
H    0.047919  2.004320  0.999775
