25
Energy: -13537.07794 eV PBE+vdW (tier 2 basis)
N    1.573694  -0.619186  2.957524
C    0.404805  0.154288  2.453337
C    0.975887  1.431147  1.794149
O    2.112586  1.785905  2.011071
H    1.827803  -1.351114  2.289481
H    2.357237  0.061664  2.936915
H    -0.125278  -0.446012  1.697862
C    -0.566249  0.534185  3.591664
C    -1.568294  -0.549905  4.018611
C    -1.034919  -1.868268  4.605744
C    -0.087889  -1.716981  5.801302
N    1.350436  -1.676154  5.358804
H    -1.152075  1.409685  3.275976
H    0.032014  0.896343  4.444001
H    -2.212347  -0.795297  3.160199
H    -2.236798  -0.093182  4.764281
H    -0.552253  -2.487116  3.831322
H    -1.902108  -2.456387  4.934315
H    -0.204009  -2.544216  6.510887
H    -0.288734  -0.788320  6.350309
H    1.718513  -2.628962  5.276886
H    1.463566  -1.161996  4.262159
H    1.940358  -1.194887  6.044062
O    0.160601  2.152878  1.008574
H    -0.705548  1.723887  0.886567
