25
Energy: -13536.6753822 eV PBE+vdW (tier 2 basis)
N    0.194180  -0.733377  -0.688292
C    -0.636675  -0.379424  0.450200
C    -0.111234  0.733494  1.364715
O    -0.816405  1.597892  1.865221
H    0.386343  0.072948  -1.281734
H    1.093697  -1.112595  -0.390771
H    -1.584290  0.017628  0.051432
C    -0.927436  -1.658800  1.267224
C    -1.884049  -1.545358  2.461640
C    -3.318559  -1.066236  2.115139
C    -3.550989  0.361063  2.586344
N    -4.911476  0.876404  2.122104
H    0.031110  -2.059661  1.630732
H    -1.313220  -2.393556  0.545255
H    -1.453984  -0.893971  3.238478
H    -1.952066  -2.538218  2.923329
H    -4.059344  -1.734231  2.580270
H    -3.476595  -1.133222  1.025648
H    -2.795746  1.058794  2.193733
H    -3.560782  0.436171  3.680898
H    -5.083883  1.835177  2.452223
H    -4.964530  0.885662  1.094641
H    -5.677639  0.280147  2.463743
O    1.215576  0.656265  1.579859
H    1.463025  1.392796  2.173875
