25
Energy: -13536.7554754 eV PBE+vdW (tier 2 basis)
N    0.346127  0.183278  -0.605177
C    -0.318825  0.226683  0.690579
C    0.663768  0.754714  1.732725
O    1.732637  1.264810  1.474580
H    -0.326657  0.278634  -1.364487
H    1.011585  0.954377  -0.678779
H    -1.148077  0.963069  0.739529
C    -0.959016  -1.137055  1.044412
C    -0.111534  -2.394073  0.781155
C    1.161923  -2.536495  1.630696
C    2.448572  -2.059452  0.977330
N    1.352907  -4.036290  1.949780
H    -1.862787  -1.241613  0.427332
H    -1.305893  -1.113438  2.086350
H    0.167493  -2.432775  -0.281398
H    -0.777532  -3.252481  0.971726
H    1.022371  -2.076551  2.620113
H    2.354119  -1.006501  0.693382
H    3.312892  -2.149921  1.649904
H    2.649898  -2.615551  0.049884
H    0.551599  -4.421224  2.466447
H    2.203948  -4.191525  2.506593
H    1.451543  -4.572244  1.076156
O    0.186715  0.627603  2.999598
H    0.817300  1.094913  3.583008
