25
Energy: -13536.8636013 eV PBE+vdW (tier 2 basis)
N    0.614766  -0.312512  0.015433
C    -0.211286  -0.595882  1.164889
C    0.450354  -0.702721  2.549364
O    -0.172151  -1.000723  3.575124
H    1.312880  -1.037741  -0.147525
H    1.102192  0.578879  0.090482
H    -0.884431  0.271637  1.289067
C    -1.073435  -1.867205  0.936979
C    -2.541770  -1.649269  0.528317
C    -3.378774  -0.537914  1.207939
C    -3.288601  -0.284381  2.726370
N    -2.816035  -1.466305  3.547838
H    -1.019823  -2.508226  1.826912
H    -0.587123  -2.448213  0.142162
H    -3.059087  -2.615244  0.639222
H    -2.585370  -1.431700  -0.547341
H    -4.427927  -0.737089  0.952118
H    -3.148470  0.427983  0.737055
H    -4.265217  0.018558  3.118746
H    -2.575866  0.513207  2.964722
H    -1.740177  -1.446483  3.551615
H    -3.160253  -2.359226  3.179914
H    -3.130687  -1.387583  4.521055
O    1.747476  -0.421039  2.569988
H    2.069488  -0.494487  3.492514
