25
Energy: -13536.6234291 eV PBE+vdW (tier 2 basis)
N    -0.481745  0.096231  -0.021425
C    -0.498154  -0.015691  1.435704
C    0.136172  1.122591  2.252812
O    0.091140  1.181577  3.461125
H    -1.136152  0.813668  -0.332250
H    0.438441  0.403649  -0.340815
H    -1.551213  -0.033068  1.760589
C    0.152985  -1.344154  1.877545
C    -0.612771  -2.550395  1.331953
C    0.139054  -3.873760  1.503413
C    -0.607453  -5.074561  0.943074
N    -0.832614  -4.897323  -0.556384
H    0.200076  -1.374905  2.974229
H    1.192279  -1.364194  1.508926
H    -0.806192  -2.323125  0.265466
H    -1.595844  -2.617335  1.826933
H    0.312088  -4.082091  2.569821
H    1.141809  -3.813960  1.047470
H    -1.606749  -5.183612  1.383345
H    -0.061321  -6.017268  1.064275
H    -1.278021  -3.982984  -0.730559
H    -1.428602  -5.634668  -0.952744
H    0.061465  -4.900554  -1.065317
O    0.762154  2.040857  1.473559
H    1.134031  2.712898  2.079149
