25
Energy: -13537.0591309 eV PBE+vdW (tier 2 basis)
N    0.639357  -0.679155  0.278965
C    0.048029  -0.305158  1.563110
C    1.151451  -0.008868  2.596705
O    1.521409  -0.793356  3.469374
H    1.321307  -1.432610  0.368105
H    1.074890  0.095025  -0.219333
H    -0.534177  0.618459  1.405009
C    -0.887005  -1.415357  2.048697
C    -1.633237  -1.084834  3.352424
C    -1.998048  -2.302606  4.218159
C    -0.833664  -3.207033  4.617922
N    0.318580  -2.421703  5.203010
H    -0.280019  -2.328258  2.153937
H    -1.595729  -1.624047  1.237754
H    -2.561825  -0.546214  3.119926
H    -1.046655  -0.375746  3.959462
H    -2.717446  -2.945365  3.689231
H    -2.518014  -1.957376  5.125024
H    -0.415872  -3.751404  3.762960
H    -1.148185  -3.944824  5.365264
H    0.011752  -1.837674  5.989909
H    1.053861  -3.045681  5.554059
H    0.764504  -1.780537  4.464759
O    1.818628  1.145910  2.485903
H    1.451949  1.698530  1.771171
