25
Energy: -13537.2987794 eV PBE+vdW (tier 2 basis)
N    -0.064275  0.036984  0.035684
C    -0.048739  -0.286625  1.467647
C    1.339480  -0.859869  1.802298
O    2.123551  -1.036414  0.773171
H    -0.851641  -0.379140  -0.457480
H    1.551020  -0.700210  0.001571
H    -0.136504  0.635774  2.063902
C    -1.161680  -1.279835  1.896672
C    -2.311463  -0.657879  2.709091
C    -2.197532  -0.717500  4.242142
C    -1.057782  0.032845  4.940228
N    0.211228  -0.775471  5.067171
H    -0.721959  -2.120738  2.452629
H    -1.564886  -1.734952  0.980871
H    -3.242672  -1.181970  2.453624
H    -2.468648  0.385099  2.391230
H    -2.189247  -1.770347  4.573390
H    -3.128261  -0.302593  4.654455
H    -1.359167  0.298730  5.960356
H    -0.790122  0.963524  4.423470
H    0.868000  -0.316478  5.709030
H    0.761801  -0.921923  4.118646
H    0.009821  -1.701204  5.462306
O    1.685314  -1.134220  2.957582
H    -0.058638  1.037413  -0.152685
