25
Energy: -13536.4801004 eV PBE+vdW (tier 2 basis)
N    0.732098  -0.428914  -0.211380
C    0.377189  -0.024305  1.149701
C    1.724340  0.232454  1.832175
O    2.379599  -0.610943  2.415534
H    -0.064700  -0.366312  -0.842375
H    1.090254  -1.383725  -0.235129
H    -0.143896  0.941771  1.073788
C    -0.495848  -1.035058  1.917861
C    -1.076374  -0.581111  3.268327
C    -0.044153  -0.451296  4.402430
C    -0.721944  -0.309910  5.753067
N    0.327410  -0.191763  6.857447
H    -1.340893  -1.283244  1.259854
H    0.079039  -1.964539  2.053711
H    -1.837577  -1.318394  3.568884
H    -1.609519  0.375601  3.146632
H    0.608191  0.419027  4.230932
H    0.611347  -1.337329  4.401003
H    -1.334783  -1.182801  6.011145
H    -1.344805  0.590556  5.827627
H    0.944653  -1.015926  6.857861
H    -0.095307  -0.109913  7.791666
H    0.924828  0.632498  6.705426
O    2.125661  1.516385  1.688317
H    3.043643  1.569564  2.021655
