25
Energy: -13536.6406496 eV PBE+vdW (tier 2 basis)
N    -0.240519  0.508986  0.384044
C    0.204229  0.112539  1.710680
C    1.698162  0.378592  1.784129
O    2.328308  1.091462  1.053818
H    0.257661  1.339299  0.062076
H    -1.239020  0.711596  0.375802
H    -0.203008  0.754750  2.526925
C    -0.229592  -1.353383  2.007154
C    -1.016376  -1.566489  3.313005
C    -0.315811  -1.259841  4.648227
C    0.629190  -2.325149  5.188326
N    1.778771  -2.617808  4.233754
H    0.633617  -2.029800  1.906466
H    -0.881215  -1.638521  1.171498
H    -1.402593  -2.598771  3.332049
H    -1.911835  -0.929387  3.263032
H    -1.082323  -1.140416  5.428059
H    0.208621  -0.293141  4.607444
H    0.119910  -3.280635  5.365811
H    1.088964  -2.000015  6.128992
H    2.569087  -3.060336  4.716086
H    1.480772  -3.250728  3.482776
H    2.099075  -1.729600  3.766574
O    2.338681  -0.244596  2.871162
H    3.253471  0.103323  2.836484
