25
Energy: -13537.1435867 eV PBE+vdW (tier 2 basis)
N    -0.029491  0.913816  0.539464
C    0.153349  0.249428  1.819033
C    1.630252  0.095126  2.133987
O    2.101650  0.104623  3.277368
H    0.279811  0.331580  -0.239315
H    -1.011616  1.139575  0.386532
H    -0.239747  0.929338  2.591792
C    -0.546470  -1.138322  1.973254
C    -0.446102  -1.829416  3.339886
C    -1.159113  -1.102086  4.509701
C    -0.288600  -0.831975  5.731877
N    0.674499  0.312886  5.501152
H    -0.144727  -1.808120  1.198302
H    -1.604454  -0.973457  1.716992
H    0.611067  -2.006032  3.591852
H    -0.878783  -2.832896  3.236391
H    -2.002420  -1.710062  4.862992
H    -1.619389  -0.157567  4.175023
H    0.323058  -1.706319  5.987484
H    -0.891487  -0.569796  6.609808
H    1.349308  0.392481  6.270422
H    1.234640  0.212300  4.574897
H    0.167888  1.204290  5.452977
O    2.390772  -0.122380  1.069733
H    3.318632  -0.238387  1.360751
