25
Energy: -13536.583485 eV PBE+vdW (tier 2 basis)
N    0.813722  -2.358377  -0.727563
C    0.151833  -2.074979  0.535571
C    0.395259  -3.126304  1.628878
O    0.705439  -4.276113  1.424967
H    1.825126  -2.400490  -0.597209
H    0.543991  -3.288536  -1.057200
H    0.555289  -1.124882  0.925587
C    -1.375150  -1.938380  0.332904
C    -1.782230  -0.993852  -0.806984
C    -1.196178  0.426371  -0.740833
C    -1.614778  1.176957  0.512016
N    -1.037835  2.590806  0.499831
H    -1.834659  -1.642505  1.287952
H    -1.786575  -2.933869  0.105833
H    -2.880869  -0.937705  -0.846797
H    -1.455445  -1.420833  -1.762814
H    -1.532738  0.983993  -1.630179
H    -0.096866  0.362994  -0.797638
H    -1.247187  0.712146  1.434973
H    -2.703246  1.294684  0.588852
H    -0.009901  2.562628  0.452792
H    -1.365013  3.109957  -0.326691
H    -1.302476  3.127585  1.336630
O    0.195920  -2.600621  2.870666
H    0.334624  -3.326782  3.511271
