25
Energy: -13536.7944774 eV PBE+vdW (tier 2 basis)
N    -0.034758  0.599644  1.076449
C    0.374798  -0.449112  1.979356
C    1.732047  -1.089066  1.682709
O    2.392059  -1.009957  0.686617
H    -0.035995  0.275294  0.108314
H    0.587102  1.406110  1.121151
H    0.479167  0.003258  2.981651
C    -0.706616  -1.560504  2.036334
C    -1.885849  -1.230806  2.954271
C    -1.570779  -1.153452  4.457718
C    -0.923331  -2.398105  5.071267
N    0.597476  -2.319654  5.109430
H    -0.256990  -2.527827  2.313431
H    -1.077291  -1.708464  1.012072
H    -2.668839  -1.988811  2.801763
H    -2.324498  -0.272142  2.644498
H    -2.513277  -0.986488  4.996852
H    -0.958701  -0.266254  4.694437
H    -1.170631  -3.312871  4.518086
H    -1.229341  -2.538931  6.114334
H    0.993005  -3.158077  5.553368
H    0.896131  -1.512231  5.671148
H    1.062126  -2.217476  4.171172
O    2.162323  -1.851149  2.786518
H    3.019381  -2.248742  2.531923
