25
Energy: -13536.8315815 eV PBE+vdW (tier 2 basis)
N    -0.084006  0.614535  0.250004
C    0.344649  -0.045531  1.466481
C    1.547174  -0.973269  1.267364
O    1.786945  -1.661548  0.315751
H    -0.350676  -0.065721  -0.463709
H    0.652724  1.196466  -0.148000
H    0.650205  0.741839  2.172728
C    -0.847792  -0.853342  2.036801
C    -0.661302  -1.626853  3.351364
C    -0.787622  -0.827041  4.660626
C    0.243596  0.256463  4.951084
N    1.657251  -0.299180  4.973681
H    -1.136614  -1.572521  1.255502
H    -1.684457  -0.144767  2.122163
H    0.275956  -2.207996  3.335682
H    -1.447345  -2.393258  3.393068
H    -0.803736  -1.531240  5.508734
H    -1.765564  -0.322527  4.685287
H    0.068076  0.709926  5.934041
H    0.244820  1.057721  4.203599
H    2.326800  0.403270  5.309595
H    1.718066  -1.110870  5.601224
H    1.967430  -0.601663  4.010225
O    2.425161  -0.952067  2.372209
H    3.158488  -1.559141  2.140802
