25
Energy: -13536.7860277 eV PBE+vdW (tier 2 basis)
N    -0.432506  0.669528  -0.073823
C    -0.344058  0.330625  1.337599
C    1.115335  0.398090  1.754518
O    1.982529  1.024505  1.210287
H    0.267831  1.367585  -0.325149
H    -1.350876  1.045790  -0.303098
H    -0.829653  1.072418  2.011720
C    -0.997919  -1.033910  1.615295
C    -0.348373  -2.202002  0.847719
C    -0.508653  -3.573199  1.523823
C    0.584644  -3.934056  2.520951
N    0.667643  -2.961971  3.689501
H    -2.058805  -0.960044  1.336581
H    -1.012366  -1.194639  2.704657
H    0.723418  -2.003230  0.677430
H    -0.779729  -2.241509  -0.158323
H    -0.474579  -4.370354  0.766906
H    -1.499634  -3.665199  1.998258
H    1.576491  -3.914523  2.051300
H    0.426507  -4.927993  2.956782
H    1.376310  -3.265433  4.368280
H    0.916709  -1.987982  3.375524
H    -0.230734  -2.908685  4.185456
O    1.395439  -0.318630  2.931424
H    2.317018  -0.068079  3.147974
