25
Energy: -13537.387043 eV PBE+vdW (tier 2 basis)
N    -0.570911  -2.607078  0.781440
C    -0.142470  -1.273389  1.287243
C    1.338524  -1.397265  1.664215
O    1.941562  -2.451171  1.621438
H    -0.878210  -2.544048  -0.190066
H    0.278174  -3.197029  0.792949
H    -0.214427  -0.529453  0.479535
C    -0.982598  -0.781250  2.480537
C    -2.484660  -0.552564  2.177067
C    -3.482204  -1.518086  2.839989
C    -3.662392  -2.891891  2.202391
N    -2.422593  -3.735403  2.278408
H    -0.531679  0.161344  2.812667
H    -0.853188  -1.475989  3.326479
H    -2.658340  -0.537627  1.088753
H    -2.745315  0.456895  2.519118
H    -4.478301  -1.052578  2.823125
H    -3.237484  -1.634543  3.909261
H    -3.910397  -2.799783  1.135553
H    -4.483899  -3.433003  2.688925
H    -2.607255  -4.685997  1.942557
H    -1.559819  -3.248544  1.603430
H    -2.099201  -3.820703  3.247587
O    1.862351  -0.224046  2.044331
H    2.803463  -0.370131  2.269900
