25
Energy: -13536.5930082 eV PBE+vdW (tier 2 basis)
N    1.057366  0.430050  1.071857
C    0.373686  -0.161552  2.214978
C    1.226351  -0.770709  3.340776
O    0.803213  -0.991244  4.453845
H    1.709186  -0.238848  0.657831
H    1.621710  1.227754  1.363805
H    -0.194477  0.635626  2.719124
C    -0.614998  -1.255974  1.751043
C    -1.573048  -0.791959  0.645835
C    -2.461802  0.388086  1.056286
C    -3.380331  0.886577  -0.045955
N    -4.365247  -0.203382  -0.467235
H    -1.173593  -1.614658  2.627107
H    -0.042125  -2.116065  1.371606
H    -2.182158  -1.671902  0.365235
H    -0.985807  -0.502872  -0.238712
H    -1.828773  1.247378  1.321002
H    -3.047573  0.152717  1.961007
H    -2.825924  1.153758  -0.954635
H    -3.991206  1.743011  0.262691
H    -4.963087  0.095001  -1.248371
H    -3.851735  -1.048196  -0.756696
H    -4.975084  -0.469465  0.317748
O    2.489552  -1.059059  2.938139
H    2.944705  -1.458912  3.705908
