25
Energy: -13537.2280381 eV PBE+vdW (tier 2 basis)
N    -1.282661  0.510708  -0.142687
C    -1.094227  0.626736  1.318466
C    0.394012  0.938745  1.535754
O    0.897214  1.159847  2.635403
H    -1.824403  -0.312582  -0.401280
H    -1.750513  1.326158  -0.536872
H    -1.690060  1.445651  1.743862
C    -1.433833  -0.686911  2.073862
C    -0.341835  -1.786191  2.066168
C    0.520331  -1.810916  3.357471
C    2.023171  -2.008700  3.193119
N    2.701876  -0.817647  2.529972
H    -2.366144  -1.071846  1.637652
H    -1.678646  -0.429509  3.112315
H    0.288094  -1.686125  1.167350
H    -0.825386  -2.763978  1.952015
H    0.180595  -2.631637  4.004382
H    0.356304  -0.892906  3.938256
H    2.274346  -2.894643  2.596696
H    2.494793  -2.117272  4.176552
H    2.183348  0.092964  2.742173
H    3.682942  -0.735922  2.815135
H    2.684680  -0.885942  1.505040
O    1.119309  0.796851  0.433529
H    0.375736  0.608048  -0.263226
