25
Energy: -13537.3664879 eV PBE+vdW (tier 2 basis)
N    1.705784  -1.446644  2.482701
C    0.490055  -0.636248  2.186501
C    0.708579  0.743531  2.820404
O    1.598696  0.964488  3.616762
H    2.208005  -0.921582  3.220556
H    2.332370  -1.449818  1.674223
H    0.391267  -0.503090  1.099836
C    -0.795606  -1.284937  2.738238
C    -1.412528  -2.393557  1.871916
C    -0.602945  -3.675822  1.612782
C    -0.095451  -4.391948  2.868658
N    1.289841  -3.932657  3.239570
H    -1.551538  -0.495261  2.840226
H    -0.597684  -1.632367  3.766235
H    -1.693723  -1.962895  0.898997
H    -2.361137  -2.683549  2.349043
H    0.243000  -3.487322  0.930944
H    -1.252690  -4.372359  1.066274
H    -0.068759  -5.478666  2.727924
H    -0.748235  -4.191921  3.727743
H    1.988196  -4.490533  2.738729
H    1.473755  -4.066252  4.238150
H    1.478505  -2.768985  2.920553
O    -0.199854  1.637629  2.406993
H    -0.021903  2.485766  2.862042
