25
Energy: -13536.6819732 eV PBE+vdW (tier 2 basis)
N    -0.113513  -0.100718  0.406233
C    -0.468939  -0.390721  1.791668
C    0.704912  -0.628288  2.755544
O    0.704628  -1.411649  3.691208
H    0.695158  -0.636343  0.093207
H    0.125832  0.880822  0.281604
H    -0.943813  0.518846  2.197633
C    -1.540113  -1.501715  1.881122
C    -1.287716  -2.756601  1.030486
C    -0.132435  -3.691457  1.432269
C    -0.170646  -4.217484  2.860353
N    -1.498533  -4.910647  3.150635
H    -2.476197  -1.057088  1.518725
H    -1.701074  -1.741574  2.944202
H    -1.117205  -2.438472  -0.007944
H    -2.230042  -3.331697  0.974720
H    0.836344  -3.179950  1.336654
H    -0.087165  -4.533900  0.723486
H    -0.078473  -3.402645  3.589923
H    0.609949  -4.963176  3.050377
H    -1.545769  -5.244425  4.121369
H    -1.648715  -5.715950  2.528234
H    -2.278681  -4.256151  3.000023
O    1.755735  0.169128  2.473662
H    2.433606  0.011174  3.160770
