25
Energy: -13536.5926246 eV PBE+vdW (tier 2 basis)
N    -1.408516  0.906304  1.232241
C    -0.675118  0.264139  2.308424
C    0.716436  0.815711  2.661869
O    1.275468  0.611334  3.724131
H    -0.862840  0.927032  0.370170
H    -1.629271  1.874248  1.463043
H    -1.261326  0.384113  3.233442
C    -0.572427  -1.251462  2.013140
C    0.022823  -2.089480  3.148828
C    -0.066541  -3.598846  2.890526
C    0.768770  -4.424841  3.857308
N    0.389540  -4.109550  5.302737
H    0.017728  -1.403096  1.094724
H    -1.595885  -1.582591  1.785502
H    -0.515039  -1.823204  4.077648
H    1.072961  -1.799424  3.311698
H    0.310613  -3.836200  1.884232
H    -1.113724  -3.941873  2.904735
H    1.838035  -4.190994  3.778731
H    0.630838  -5.505103  3.731450
H    0.971124  -4.625461  5.975153
H    0.502817  -3.100935  5.483570
H    -0.595188  -4.344881  5.486437
O    1.272289  1.529106  1.656175
H    2.149284  1.827952  1.969396
