25
Energy: -13537.1789679 eV PBE+vdW (tier 2 basis)
N    -1.241530  0.133776  -0.089995
C    -0.604370  0.192149  1.252830
C    0.785702  0.853542  1.263662
O    1.506581  0.868859  2.229332
H    -0.787317  -0.588456  -0.656503
H    -1.074749  1.013916  -0.586707
H    -1.228420  0.860242  1.873632
C    -0.538692  -1.181983  1.933524
C    -1.871977  -1.842024  2.321768
C    -2.691720  -2.479985  1.172476
C    -3.993368  -1.779488  0.790619
N    -3.792690  -0.322344  0.438709
H    0.061868  -1.036777  2.840516
H    0.044946  -1.869979  1.298477
H    -2.487735  -1.126298  2.893282
H    -1.628722  -2.631686  3.043707
H    -2.984575  -3.500489  1.454784
H    -2.062626  -2.605576  0.278339
H    -4.724682  -1.829576  1.606952
H    -4.441821  -2.263671  -0.084594
H    -4.446936  -0.024660  -0.290049
H    -2.681189  -0.115452  0.103570
H    -3.972403  0.272937  1.252155
O    1.076120  1.442783  0.074152
H    1.951027  1.870730  0.168618
