25
Energy: -13536.5814277 eV PBE+vdW (tier 2 basis)
N    -0.006636  0.166455  0.004481
C    -0.004227  0.139662  1.468926
C    1.389699  0.464622  2.017083
O    2.213587  -0.346248  2.405021
H    0.717588  -0.443237  -0.378693
H    0.159108  1.107181  -0.352118
H    -0.687151  0.934020  1.807357
C    -0.528241  -1.219828  1.945997
C    -0.608379  -1.388964  3.481291
C    0.463880  -2.341190  4.032406
C    0.575024  -2.369289  5.543784
N    -0.727881  -2.860211  6.181694
H    0.104635  -2.013026  1.519824
H    -1.518535  -1.341057  1.491558
H    -1.620535  -1.751280  3.733372
H    -0.506942  -0.405504  3.971583
H    1.444875  -2.017399  3.652305
H    0.309156  -3.363076  3.647302
H    0.753556  -1.372401  5.967007
H    1.358053  -3.049689  5.898753
H    -0.685346  -2.853280  7.208754
H    -0.941638  -3.819717  5.877734
H    -1.513808  -2.263953  5.887385
O    1.640421  1.794466  1.954843
H    2.573308  1.927850  2.216174
