25
Energy: -13537.1466676 eV PBE+vdW (tier 2 basis)
N    0.291584  -0.933445  0.514691
C    0.122602  -0.156510  1.756903
C    1.198124  -0.630193  2.739596
O    1.689146  -1.855605  2.399195
H    1.279570  -1.984816  1.469521
H    0.881913  -0.444115  -0.158594
H    0.239927  0.926941  1.612817
C    -1.257420  -0.411041  2.414420
C    -1.572240  -1.882822  2.793787
C    -1.723311  -2.188888  4.297050
C    -0.539967  -1.929483  5.223005
N    0.673947  -2.792571  4.908371
H    -2.018011  -0.037580  1.714554
H    -1.323397  0.243045  3.294869
H    -2.525307  -2.170830  2.331777
H    -0.838723  -2.568087  2.341776
H    -2.053333  -3.234044  4.412660
H    -2.545559  -1.581835  4.706473
H    -0.811364  -2.154874  6.261312
H    -0.178581  -0.896662  5.174443
H    0.460945  -3.792736  5.005742
H    1.445209  -2.564766  5.548266
H    1.044407  -2.622978  3.942690
O    1.493565  -0.089517  3.781743
H    -0.596727  -1.128587  0.053932
