25
Energy: -13536.6079975 eV PBE+vdW (tier 2 basis)
N    0.444605  0.039887  0.219678
C    0.068740  -0.093739  1.623231
C    1.320483  -0.300893  2.473333
O    2.452872  -0.323549  2.042094
H    1.456806  0.161190  0.148789
H    0.000299  0.849301  -0.206862
H    -0.412119  0.816381  2.022969
C    -0.937329  -1.257660  1.814400
C    -0.343425  -2.598324  1.379173
C    -1.396993  -3.707475  1.266980
C    -0.761434  -5.005663  0.801194
N    -1.810774  -6.107560  0.657650
H    -1.814403  -1.021700  1.192754
H    -1.275168  -1.293579  2.859656
H    0.439941  -2.910254  2.088908
H    0.143695  -2.448581  0.402549
H    -2.176646  -3.397131  0.550710
H    -1.892498  -3.860583  2.240919
H    -0.017108  -5.388088  1.510759
H    -0.288421  -4.907988  -0.183925
H    -2.287309  -6.276601  1.554110
H    -1.398921  -6.997191  0.345483
H    -2.531936  -5.836268  -0.024769
O    1.017476  -0.466722  3.786703
H    1.868471  -0.551983  4.260150
