25
Energy: -13536.5751269 eV PBE+vdW (tier 2 basis)
N    0.646325  -1.419389  -0.319077
C    0.162742  -0.500436  0.701709
C    1.346500  0.096776  1.461021
O    2.510194  -0.106314  1.196131
H    1.657605  -1.316560  -0.422652
H    0.215655  -1.236602  -1.221905
H    -0.375322  0.364821  0.274831
C    -0.821849  -1.215152  1.665529
C    -0.156695  -2.391927  2.384000
C    -1.131288  -3.370333  3.055677
C    -1.924226  -2.719478  4.177582
N    -2.836874  -3.743439  4.850318
H    -1.656368  -1.581723  1.046806
H    -1.231172  -0.475420  2.369273
H    0.566530  -2.027992  3.131644
H    0.419918  -2.955832  1.636640
H    -0.561353  -4.223810  3.459535
H    -1.824736  -3.772113  2.297311
H    -2.582333  -1.916487  3.825114
H    -1.277678  -2.321690  4.970062
H    -2.286500  -4.523113  5.236221
H    -3.385038  -3.332138  5.617540
H    -3.496367  -4.144893  4.169563
O    0.941771  0.895318  2.485384
H    1.754430  1.267806  2.881030
