25
Energy: -13536.6816741 eV PBE+vdW (tier 2 basis)
N    0.751673  -0.728000  0.073094
C    -0.043216  -0.231330  1.176590
C    0.655655  0.306638  2.440142
O    0.036336  0.726735  3.406366
H    1.373435  -1.482824  0.363897
H    1.334124  0.001089  -0.336134
H    -0.576725  0.660303  0.803810
C    -1.092511  -1.292910  1.601880
C    -2.464992  -1.146342  0.932376
C    -3.200720  0.186677  1.185111
C    -3.173981  0.709841  2.615588
N    -3.715076  -0.325589  3.597687
H    -1.182459  -1.276627  2.700448
H    -0.686882  -2.282576  1.351548
H    -3.102124  -1.991420  1.244578
H    -2.353705  -1.267656  -0.154113
H    -4.239845  0.104447  0.830131
H    -2.756811  0.989482  0.577919
H    -3.800554  1.600887  2.738449
H    -2.155268  0.930109  2.967618
H    -3.704868  0.033132  4.560964
H    -3.128719  -1.171669  3.573683
H    -4.678259  -0.603274  3.367696
O    1.995747  0.292812  2.366039
H    2.341846  0.677738  3.196715
