25
Energy: -13536.6774881 eV PBE+vdW (tier 2 basis)
N    0.165238  -0.897416  0.499990
C    -0.160095  -0.527129  1.875815
C    1.132803  -0.413595  2.679237
O    2.246333  -0.680417  2.269034
H    1.003358  -0.405361  0.189994
H    -0.595188  -0.636685  -0.126955
H    -0.623163  0.473679  1.970687
C    -1.166318  -1.532879  2.506207
C    -0.934105  -3.002829  2.128515
C    0.485213  -3.500367  2.430860
C    0.704153  -4.916306  1.935242
N    2.183313  -5.277404  2.058763
H    -2.175815  -1.257762  2.169997
H    -1.164259  -1.399426  3.596602
H    -1.117166  -3.126008  1.051777
H    -1.676905  -3.620690  2.655466
H    0.694103  -3.440553  3.512212
H    1.195586  -2.838006  1.911736
H    0.458524  -5.020044  0.870726
H    0.151786  -5.675921  2.502369
H    2.390626  -6.218840  1.700575
H    2.755656  -4.599432  1.535332
H    2.488875  -5.235515  3.040413
O    0.895199  0.052274  3.927732
H    1.762695  0.152694  4.366542
