25
Energy: -13536.6076362 eV PBE+vdW (tier 2 basis)
N    -0.182722  0.301756  0.669779
C    0.069059  -0.107421  2.041560
C    1.522194  -0.532135  2.290305
O    2.293614  -0.872532  1.423395
H    0.396732  -0.256274  0.037389
H    0.091425  1.272486  0.524804
H    -0.152216  0.734535  2.715150
C    -0.859238  -1.291631  2.418419
C    -2.335795  -0.899373  2.315600
C    -3.320870  -2.076791  2.300061
C    -3.249014  -3.003396  3.505502
N    -3.505312  -2.221389  4.791034
H    -0.585565  -1.645993  3.425944
H    -0.647746  -2.120982  1.723194
H    -2.463674  -0.336001  1.380104
H    -2.592966  -0.175118  3.113079
H    -3.128129  -2.708351  1.419751
H    -4.353030  -1.709503  2.180096
H    -2.259766  -3.460401  3.628675
H    -4.003289  -3.798227  3.474356
H    -3.410322  -2.808750  5.629122
H    -2.837411  -1.440197  4.864299
H    -4.450686  -1.814939  4.791234
O    1.831288  -0.513413  3.615471
H    2.761629  -0.805986  3.693316
