25
Energy: -13536.7664995 eV PBE+vdW (tier 2 basis)
N    0.935706  -0.097202  0.068421
C    -0.266205  -0.220386  0.902477
C    0.042300  0.412431  2.283248
O    -0.642332  0.217065  3.272297
H    1.549872  -0.908120  0.152219
H    1.474618  1.116487  1.354309
H    -1.021479  0.448410  0.455267
C    -0.874531  -1.640177  1.040233
C    -2.406591  -1.729592  0.913116
C    -3.268563  -1.007347  1.964396
C    -3.085093  -1.444190  3.409066
N    -3.406675  -2.926147  3.592458
H    -0.527342  -2.086982  1.985172
H    -0.453705  -2.260418  0.236757
H    -2.686221  -2.798277  0.860258
H    -2.702677  -1.334307  -0.070419
H    -4.329542  -1.091616  1.677772
H    -3.046719  0.069196  1.966614
H    -3.757407  -0.904769  4.086141
H    -2.051833  -1.290800  3.742785
H    -3.267413  -3.220448  4.567343
H    -2.798025  -3.504430  2.998238
H    -4.379811  -3.136621  3.333092
O    1.106174  1.207437  2.281547
H    0.718689  0.032076  -0.917757
