25
Energy: -13537.3571735 eV PBE+vdW (tier 2 basis)
N    1.555193  -2.039215  0.284826
C    0.987807  -0.865098  0.958299
C    1.689087  -0.675303  2.292276
O    2.111093  -1.587914  3.000853
H    2.550995  -1.897756  0.103169
H    1.117850  -2.128810  -0.634261
H    1.127584  0.070532  0.391246
C    -0.542948  -1.012246  1.198678
C    -1.048206  -1.912882  2.344280
C    -1.217007  -3.426171  2.110859
C    0.005340  -4.274792  1.780414
N    1.123755  -4.100708  2.781650
H    -0.990158  -1.323941  0.241199
H    -0.922239  0.001574  1.384909
H    -2.051490  -1.547503  2.604665
H    -0.455695  -1.733828  3.255906
H    -1.924715  -3.590634  1.283690
H    -1.712711  -3.845389  3.001279
H    0.451351  -3.993080  0.822378
H    -0.258906  -5.339195  1.768292
H    1.891934  -4.750336  2.581732
H    1.531846  -3.110328  2.752270
H    0.805966  -4.284037  3.740645
O    1.768944  0.605085  2.651129
H    2.183719  0.657097  3.537093
