25
Energy: -13536.3754196 eV PBE+vdW (tier 2 basis)
N    -0.238297  0.566300  0.516300
C    -0.232980  -0.327330  1.660445
C    1.179411  -0.783725  2.032350
O    1.479998  -1.176852  3.138217
H    0.164804  0.135379  -0.314752
H    -1.168015  0.913844  0.290151
H    -0.558312  0.251177  2.539259
C    -1.103971  -1.615452  1.557895
C    -2.616257  -1.355967  1.562563
C    -3.139527  -0.864021  2.919979
C    -4.641559  -0.641031  2.980453
N    -5.393330  -1.959111  2.801493
H    -0.848106  -2.285657  2.393302
H    -0.831825  -2.140117  0.630506
H    -3.106892  -2.304275  1.273451
H    -2.881996  -0.629336  0.775803
H    -2.681798  0.102459  3.176658
H    -2.830243  -1.551406  3.725586
H    -5.000645  0.017726  2.179405
H    -4.969640  -0.236075  3.944978
H    -5.164073  -2.616382  3.559674
H    -6.412720  -1.825244  2.794366
H    -5.120921  -2.406785  1.914592
O    2.027463  -0.759629  0.978860
H    2.890858  -1.085500  1.302148
