18
Energy: -99119.3708607 eV PBE+vdW (tier 2 basis)
N    0.468579  -0.359230  -0.059279
C    -0.082156  0.031926  1.290431
C    1.081689  0.567559  2.132848
O    2.213113  0.776586  1.569015
H    1.365515  0.130572  -0.217116
H    -0.178333  -0.177155  -0.834925
H    -0.814019  0.841518  1.167891
C    -0.749927  -1.218667  1.911927
O    0.255389  -2.227328  1.707202
C    -2.091849  -1.568883  1.286286
H    -0.871987  -1.009582  2.986280
H    -0.109658  -3.107483  1.900134
H    -2.496545  -2.475008  1.756228
H    -2.020553  -1.763430  0.206353
H    -2.823926  -0.767823  1.453675
O    0.883794  0.811845  3.361827
H    0.656340  -1.384913  0.015799
Sr    3.108532  1.527494  3.670422
