18
Energy: -99118.4660423 eV PBE+vdW (tier 2 basis)
N    -0.540627  0.202876  -0.024781
C    -0.163300  0.139340  1.428360
C    1.338307  0.481203  1.436171
O    1.982481  0.414411  0.407813
H    -1.218022  -0.558768  -0.204723
H    -0.947674  1.104793  -0.298361
H    -0.753900  0.873108  1.990355
C    -0.456385  -1.312776  1.932092
O    -1.709509  -1.737877  1.416579
C    -0.426823  -1.388435  3.453875
H    0.332906  -1.964553  1.512784
H    0.360476  0.080019  -0.548716
H    0.529277  -1.051038  3.871848
H    -0.555316  -2.431615  3.778841
H    -1.221739  -0.768202  3.892736
O    1.782527  0.808466  2.641955
H    2.743352  1.005393  2.595779
Sr    -3.337029  -3.046343  1.814393
