18
Energy: -99119.2793023 eV PBE+vdW (tier 2 basis)
N    0.138005  1.388923  1.540493
C    0.364180  0.231130  2.445855
C    1.882026  0.082722  2.632791
O    2.647294  0.366718  1.701450
H    0.374933  2.256637  2.033293
H    -0.865532  1.465236  1.345170
H    -0.132074  0.354940  3.422035
C    -0.199329  -1.064901  1.800191
O    0.367333  -1.114420  0.435305
C    -1.715492  -1.128278  1.765428
H    0.201975  -1.927675  2.354226
H    0.097267  -1.959316  0.033449
H    -2.119870  -1.115658  2.786446
H    -2.046051  -2.069108  1.305179
H    -2.167845  -0.303299  1.198713
O    2.381907  -0.396596  3.743334
H    1.725218  -0.542387  4.453710
Sr    1.738055  0.742333  -0.452069
