18
Energy: -99118.2189098 eV PBE+vdW (tier 2 basis)
N    0.724159  -0.366430  0.039583
C    0.320621  0.030317  1.347588
C    1.525537  0.321910  2.257838
O    2.690384  0.479544  1.817270
H    1.079411  -1.313675  -0.054924
H    0.057795  -0.148355  -0.695213
H    -0.168038  1.020197  1.262162
C    -0.718243  -0.903507  2.042980
O    -1.029662  -0.196886  3.375581
C    -0.301664  -2.331851  2.293546
H    -1.663493  -0.838003  1.492380
H    -1.500314  -0.782992  4.003348
H    -1.090815  -2.889635  2.815985
H    0.631640  -2.412019  2.867643
H    -0.161117  -2.842627  1.331660
O    1.307510  0.474086  3.549580
H    -0.059055  0.116864  3.724205
Sr    3.638672  1.224227  3.816185
