18
Energy: -99119.512234 eV PBE+vdW (tier 2 basis)
N    -0.552306  -0.210025  0.008253
C    -0.116945  -0.095683  1.427628
C    1.390220  -0.346549  1.469908
O    1.940383  -1.134919  0.682955
H    -1.572580  -0.116349  -0.029625
H    -0.199664  0.596485  -0.518339
H    -0.325771  0.890237  1.868211
C    -0.839712  -1.158261  2.294982
O    -0.625164  -2.453692  1.603693
C    -2.318068  -0.888529  2.501289
H    -0.325015  -1.212656  3.265814
H    -1.005607  -3.154061  2.163053
H    -2.456001  0.061210  3.035171
H    -2.764364  -1.672608  3.127674
H    -2.885856  -0.849117  1.561734
O    2.007427  0.306721  2.418153
H    2.966956  0.091553  2.445175
Sr    0.475296  -2.536658  -0.596953
