18
Energy: -99118.2584068 eV PBE+vdW (tier 2 basis)
N    0.554092  -0.454244  0.023803
C    0.355564  0.031892  1.354160
C    1.597953  0.108659  2.262826
O    2.766498  0.150800  1.794535
H    1.213886  -1.223098  -0.063104
H    0.772296  0.267101  -0.657187
H    0.013648  1.081989  1.296233
C    -0.808162  -0.767888  2.004243
O    -0.996891  -0.112612  3.386688
C    -0.615812  -2.255815  2.149560
H    -1.730316  -0.517359  1.470126
H    -1.556693  -0.658937  3.975955
H    -1.482697  -2.723062  2.636290
H    0.292705  -2.519851  2.708423
H    -0.552463  -2.698441  1.146687
O    1.432665  0.175623  3.566756
H    -0.004138  0.012354  3.749454
Sr    3.838865  0.540889  3.843555
