18
Energy: -99118.2801378 eV PBE+vdW (tier 2 basis)
N    0.755029  -0.734540  0.049420
C    0.165240  -0.129815  1.224879
C    1.266972  0.236908  2.227726
O    1.935361  1.304433  2.125360
H    1.197765  -0.074406  -0.584834
H    1.350052  -1.543548  0.212625
H    -0.319689  0.809800  0.922936
C    -0.939063  -0.998426  1.855622
O    -0.166800  -2.173997  2.494814
C    -1.963263  -1.553349  0.908865
H    -1.394394  -0.464010  2.702209
H    -0.738481  -2.722793  3.068887
H    -2.526191  -0.714969  0.474285
H    -2.689940  -2.184755  1.436635
H    -1.499663  -2.113194  0.090582
O    1.602159  -0.629805  3.165252
H    0.646413  -1.695971  3.004183
Sr    3.417494  0.867439  3.872557
