18
Energy: -99119.0174038 eV PBE+vdW (tier 2 basis)
N    0.012648  0.658919  -0.002368
C    0.254089  0.155338  1.397470
C    1.665737  -0.514763  1.293802
O    2.103096  -1.044342  2.384221
H    -0.789583  0.234607  -0.482849
H    0.935651  0.338557  -0.471973
H    0.304936  1.020761  2.070191
C    -0.858969  -0.805269  1.883163
O    -0.589734  -1.075987  3.317695
C    -0.961946  -2.110459  1.114523
H    -1.815522  -0.261981  1.853197
H    -1.450248  -1.058024  3.771394
H    -0.019139  -2.674292  1.128363
H    -1.223193  -1.942049  0.059402
H    -1.762359  -2.736317  1.527326
O    2.210975  -0.488376  0.195983
H    -0.080557  1.679741  -0.058646
Sr    1.563118  -1.890065  4.327106
