18
Energy: -99118.9467739 eV PBE+vdW (tier 2 basis)
N    -0.053787  0.494928  -0.089638
C    0.248851  0.098081  1.283930
C    1.594204  -0.656713  1.221650
O    2.093928  -1.228858  2.222541
H    -0.272734  1.485119  -0.191867
H    -0.788575  -0.051535  -0.539589
H    0.438032  1.002162  1.884436
C    -0.866828  -0.711329  1.992165
O    -0.493031  -0.859024  3.438209
C    -1.155309  -2.078941  1.404467
H    -1.768767  -0.084532  1.980360
H    -1.286820  -0.638649  3.956330
H    -1.488359  -1.998894  0.360279
H    -1.969491  -2.572166  1.948886
H    -0.271473  -2.733746  1.412522
O    2.168238  -0.645190  0.076913
H    1.483434  -0.110974  -0.497441
Sr    1.566489  -1.840737  4.324847
