10
Energy: -7742.45449803 eV PBE+vdW (tier 2 basis)
N    -0.343515  -1.129951  0.454331
C    0.483874  0.045207  0.684088
C    1.326581  -0.129592  1.927338
O    1.134245  -0.960768  2.789947
H    -1.232729  -0.876753  0.029714
H    -0.536406  -1.582208  1.349993
H    1.159396  0.232403  -0.165410
H    -0.079014  0.987679  0.838139
O    2.330836  0.785886  1.986541
H    2.793733  0.624097  2.831319
