10
Energy: -7742.44468147 eV PBE+vdW (tier 2 basis)
N    -0.867380  0.394837  0.937488
C    0.518748  0.199630  0.551186
C    1.600144  0.034146  1.619219
O    2.778811  -0.114820  1.376409
H    -0.970075  1.229914  1.513003
H    -1.201138  -0.386441  1.500810
H    0.599875  -0.688410  -0.094130
H    0.848291  1.039290  -0.079170
O    1.106819  0.068182  2.890750
H    1.881905  -0.048328  3.474434
