10
Energy: -7742.42559437 eV PBE+vdW (tier 2 basis)
N    -0.170409  -1.109978  0.170814
C    0.310750  0.183880  0.668756
C    1.259156  0.036520  1.850232
O    0.925877  -0.060727  3.013499
H    -0.624107  -1.629240  0.923770
H    0.610857  -1.678862  -0.157399
H    0.807426  0.717326  -0.151197
H    -0.549169  0.777173  1.002345
O    2.561473  -0.058989  1.446193
H    3.084145  -0.222103  2.255987
