10
Energy: -7742.38713612 eV PBE+vdW (tier 2 basis)
N    -0.742265  0.744160  1.239380
C    0.338828  -0.106492  0.749991
C    1.561250  -0.119940  1.645061
O    2.688046  -0.363765  1.270883
H    -1.029707  0.458714  2.175173
H    -1.556630  0.656977  0.632470
H    0.074767  -1.177684  0.616169
H    0.677152  0.251356  -0.230632
O    1.249371  0.112225  2.951356
H    2.092188  0.049449  3.441149
