25
Energy: -167645.599593 eV PBE+vdW (tier 2 basis)
N    2.144145  -2.785779  2.350779
C    0.922941  -2.252887  1.925234
C    0.959791  -2.104800  0.276089
O    0.456900  -3.064098  -0.358247
H    2.314270  -3.782168  2.255029
H    2.975815  -2.201660  2.349371
H    0.124963  -2.988279  2.084696
C    0.590718  -0.897596  2.568202
C    -0.796581  -0.355016  2.202438
C    -1.164420  0.980072  2.882672
C    -1.438906  0.846030  4.378082
N    -1.911220  2.171434  4.964597
H    1.370499  -0.169048  2.298894
H    0.671658  -1.075260  3.651304
H    -1.569723  -1.105654  2.431431
H    -0.853324  -0.180235  1.118670
H    -2.066769  1.372974  2.388148
H    -0.361908  1.716252  2.712823
H    -0.551720  0.564163  4.957573
H    -2.236813  0.122487  4.588100
H    -2.776127  2.496241  4.508067
H    -2.105198  2.093378  5.973490
O    1.533551  -1.108552  -0.219464
H    -1.205372  2.911848  4.841715
Cd    1.226829  -2.131847  -2.312693
