25
Energy: -167645.489753 eV PBE+vdW (tier 2 basis)
N    0.287203  0.508935  0.222667
C    0.089734  0.079501  1.656966
C    1.224069  -0.856685  2.170667
O    2.414113  -0.827930  1.626419
H    -0.177951  -0.151610  -0.412312
H    -0.153592  1.419847  0.056632
H    0.193790  0.998616  2.257804
C    -1.328343  -0.501914  1.848894
C    -1.772827  -0.638253  3.329273
C    -2.139344  -2.081825  3.744516
C    -1.804928  -2.410099  5.196086
N    -0.322951  -2.737283  5.341135
H    -1.379531  -1.478097  1.342444
H    -2.029144  0.158627  1.319911
H    -2.639416  0.011148  3.505546
H    -0.980650  -0.245852  3.981347
H    -1.645387  -2.817112  3.090008
H    -3.215879  -2.248317  3.607058
H    -2.355453  -3.283288  5.563311
H    -2.012505  -1.569057  5.868691
H    0.010759  -2.607468  6.304338
H    -0.141215  -3.716525  5.085649
O    1.012660  -1.583872  3.138637
H    0.253628  -2.158462  4.691172
Cd    2.540334  0.383561  -0.082853
