25
Energy: -167645.513919 eV PBE+vdW (tier 2 basis)
N    0.382424  1.801477  1.244409
C    1.284460  0.791919  1.606713
C    1.405406  -0.329575  0.403236
O    2.491165  -0.300320  -0.228246
H    -2.292947  -0.003047  6.389552
H    0.719741  2.555337  0.652771
H    2.295051  1.211223  1.643703
C    0.990131  0.066232  2.935610
C    -0.465304  -0.320444  3.228688
C    -0.555416  -1.129181  4.535293
C    -1.953970  -1.552049  4.970037
N    -2.760300  -0.396178  5.559789
H    1.351712  0.751563  3.718609
H    1.635214  -0.823278  2.990387
H    -0.878189  -0.919642  2.401881
H    -1.071368  0.600039  3.294602
H    -0.056760  -0.594406  5.361410
H    0.012449  -2.064612  4.419624
H    -1.913976  -2.310445  5.760674
H    -2.554124  -1.947309  4.140755
H    -3.697819  -0.706469  5.853494
H    -2.887196  0.369615  4.884503
O    0.439240  -1.092806  0.175791
H    -0.594116  1.566507  1.094026
Cd    1.735490  -1.923152  -1.634309
