25
Energy: -167645.417093 eV PBE+vdW (tier 2 basis)
N    1.618696  -0.480540  -1.246618
C    0.595692  -0.109985  -0.372455
C    1.289731  0.409376  1.048506
O    1.584756  1.628597  1.070198
H    -2.332343  -3.070781  2.740467
H    2.141257  0.233278  -1.744867
H    0.106593  0.801780  -0.737733
C    -0.420646  -1.230718  -0.116565
C    -1.593384  -0.845247  0.803524
C    -2.909851  -1.573819  0.470063
C    -2.963445  -3.081094  0.698877
N    -3.113360  -3.433683  2.177674
H    0.110697  -2.119387  0.255076
H    -0.805523  -1.483753  -1.116863
H    -1.805699  0.229482  0.698759
H    -1.311710  -0.980593  1.860754
H    -3.139693  -1.424160  -0.595577
H    -3.746448  -1.096072  1.005438
H    -2.066684  -3.608283  0.350645
H    -3.834833  -3.526863  0.205084
H    -3.982320  -3.036765  2.563776
H    -3.151156  -4.453315  2.319593
O    1.534257  -0.431411  1.941172
H    2.090538  -1.372927  -1.133152
Cd    2.681879  1.331885  3.056224
