25
Energy: -167645.380859 eV PBE+vdW (tier 2 basis)
N    0.275620  -1.117510  0.520708
C    0.160330  -0.264172  1.694496
C    1.561968  0.241725  2.207280
O    1.600331  1.423515  2.667069
H    -0.922689  -2.611902  0.469691
H    0.271055  -0.571931  -0.343017
H    -0.387495  0.645081  1.422384
C    -0.570613  -0.938823  2.886015
C    -0.210551  -2.416185  3.145446
C    -1.407315  -3.390243  3.120094
C    -2.325795  -3.332895  1.902695
N    -1.563907  -3.448930  0.594559
H    -1.639709  -0.829603  2.650637
H    -0.424466  -0.328263  3.786191
H    0.267357  -2.517915  4.127303
H    0.555594  -2.762064  2.434360
H    -2.056290  -3.206889  3.989420
H    -1.030377  -4.416131  3.248123
H    -2.884984  -2.391847  1.833144
H    -3.055202  -4.150775  1.927227
H    -2.208321  -3.485409  -0.205959
H    -0.996452  -4.306383  0.568312
O    2.561814  -0.529766  2.170304
H    1.141167  -1.662528  0.531752
Cd    3.770278  1.175726  3.112542
