25
Energy: -167645.494951 eV PBE+vdW (tier 2 basis)
N    -0.652513  0.367881  -0.080623
C    -0.247030  -0.269811  1.226179
C    1.294253  -0.450978  1.346740
O    2.117178  0.320888  0.684311
H    -0.810543  -0.354861  -0.793424
H    -1.543187  0.865562  0.021812
H    -0.502321  0.469879  2.003809
C    -1.038265  -1.583704  1.475809
C    -1.537094  -1.813950  2.918777
C    -0.495501  -2.048745  4.023365
C    0.293361  -3.357533  3.868116
N    1.751331  -3.154334  4.229200
H    -0.441641  -2.432087  1.111992
H    -1.940604  -1.555950  0.847737
H    -2.224190  -2.673076  2.880341
H    -2.162765  -0.960609  3.220371
H    -1.018008  -2.052056  4.989497
H    0.202672  -1.199800  4.062547
H    0.303421  -3.721910  2.834972
H    -0.092986  -4.158441  4.508074
H    1.863783  -2.818764  5.195011
H    2.295285  -4.022750  4.138436
O    1.728917  -1.296786  2.123362
H    2.143587  -2.444172  3.580137
Cd    1.165862  1.609107  -0.675549
