25
Energy: -167644.748232 eV PBE+vdW (tier 2 basis)
N    0.710588  -0.578416  0.137653
C    0.322423  -0.018866  1.501717
C    1.629683  0.164867  2.292962
O    1.577928  0.841801  3.358941
H    -0.024159  -1.193266  -0.239951
H    0.895774  0.160120  -0.554326
H    -0.131467  0.966959  1.339497
C    -0.642383  -0.972285  2.227962
C    -2.047083  -1.095321  1.612448
C    -2.933605  0.149056  1.770459
C    -4.383435  -0.079880  1.296943
N    -5.103253  -1.008355  2.116600
H    -0.722493  -0.603053  3.260194
H    -0.170021  -1.965743  2.295324
H    -2.534357  -1.948595  2.106707
H    -1.999348  -1.386925  0.546249
H    -2.541875  1.004683  1.199578
H    -2.945095  0.465795  2.825644
H    -4.413866  -0.436955  0.258127
H    -4.893047  0.908832  1.296897
H    -5.224130  -0.803385  3.106017
H    -5.859815  -1.548097  1.704983
O    2.676854  -0.394638  1.846103
H    1.593899  -1.111173  0.259920
Cd    3.795315  0.485073  3.742551
