25
Energy: -167644.236991 eV PBE+vdW (tier 2 basis)
N    0.293135  -0.056723  0.202006
C    0.121962  -0.072233  1.680344
C    1.503844  -0.024127  2.361641
O    2.527146  -0.501557  1.849937
H    -0.484248  -0.545069  -0.252840
H    0.292296  0.901699  -0.164160
H    -0.436550  0.829763  1.981214
C    -0.657561  -1.340709  2.117239
C    -0.941935  -1.451983  3.622443
C    -1.840702  -2.640562  4.020879
C    -3.339025  -2.471434  3.719036
N    -3.686068  -2.618304  2.330823
H    -0.103738  -2.232318  1.776716
H    -1.613746  -1.327391  1.567092
H    -1.406923  -0.519296  3.985577
H    0.001649  -1.573190  4.175943
H    -1.748173  -2.779720  5.106022
H    -1.468124  -3.573875  3.569624
H    -3.714012  -1.501172  4.074774
H    -3.875919  -3.238949  4.322302
H    -3.487267  -3.519640  1.898287
H    -4.577775  -2.227875  2.030889
O    1.612672  0.494256  3.559220
H    0.780401  0.878425  3.900274
Cd    2.376046  -1.050469  -0.315203
