25
Energy: -167644.755507 eV PBE+vdW (tier 2 basis)
N    0.457784  -0.155333  0.309326
C    -0.016059  0.274950  1.692987
C    1.147891  1.051480  2.344901
O    1.036181  1.366663  3.562362
H    0.866567  -1.100360  0.335644
H    -0.305825  -0.157451  -0.379657
H    -0.800819  1.027479  1.520446
C    -0.598865  -0.884790  2.503629
C    0.361152  -2.031901  2.853997
C    -0.346657  -3.097900  3.705410
C    0.577526  -4.268904  4.089575
N    -0.095963  -5.261459  4.862152
H    -1.476135  -1.270221  1.959850
H    -0.994794  -0.435255  3.425261
H    1.230585  -1.637769  3.403969
H    0.758175  -2.516440  1.942922
H    -1.219360  -3.488389  3.158367
H    -0.730574  -2.641267  4.629368
H    1.451092  -3.921401  4.659566
H    0.983387  -4.722702  3.155404
H    -0.984921  -5.644499  4.551976
H    0.413084  -5.818558  5.541519
O    2.120418  1.385959  1.601209
H    1.206469  0.498361  0.009251
Cd    2.967181  2.594572  3.454879
