25
Energy: -167645.377633 eV PBE+vdW (tier 2 basis)
N    0.299126  -0.918995  0.098318
C    0.014173  -0.321001  1.388577
C    1.319420  0.066460  2.192759
O    1.261796  1.134970  2.873104
H    -1.104371  -2.044513  -0.406622
H    0.528490  -0.218485  -0.609619
H    -0.504102  0.631450  1.224948
C    -0.875887  -1.194040  2.305671
C    -0.469277  -2.643696  2.608735
C    -0.565726  -3.717423  1.500959
C    -1.860075  -3.731814  0.683966
N    -1.736577  -2.884464  -0.576564
H    -1.880897  -1.155127  1.851843
H    -0.989821  -0.656818  3.257743
H    -1.119575  -2.967931  3.434606
H    0.550221  -2.675597  3.022691
H    -0.486667  -4.695596  1.994030
H    0.298589  -3.689575  0.818451
H    -2.713054  -3.338780  1.250370
H    -2.120703  -4.742207  0.351586
H    -1.307291  -3.430515  -1.334339
H    -2.652195  -2.567061  -0.918894
O    2.331729  -0.687342  2.152186
H    1.078391  -1.579961  0.143960
Cd    3.354320  0.797111  3.572464
