25
Energy: -167646.053156 eV PBE+vdW (tier 2 basis)
N    0.229045  1.262990  0.841357
C    0.285569  0.405083  2.095611
C    0.883962  -0.949780  1.730709
O    1.504987  -1.576984  2.632206
H    -0.407882  2.064999  0.960477
H    1.155201  1.635238  0.583249
H    0.933204  0.915367  2.817793
C    -1.150182  0.220477  2.659935
C    -1.308717  -0.908887  3.705471
C    -1.620051  -2.300257  3.094540
C    -0.989656  -3.491768  3.839773
N    -0.452067  -4.539678  2.888396
H    -1.842491  0.042943  1.820843
H    -1.436869  1.178355  3.116878
H    -2.123410  -0.620852  4.380114
H    -0.406463  -0.956017  4.331645
H    -1.290277  -2.322699  2.039654
H    -2.707526  -2.436795  3.026878
H    -1.715356  -3.982313  4.503059
H    -0.143098  -3.169689  4.458834
H    -0.018413  -5.304683  3.418518
H    -1.218024  -4.969566  2.356286
O    0.581604  -1.454256  0.596463
H    -0.105494  0.685415  0.050506
Cd    0.984202  -3.491718  1.544791
