25
Energy: -167645.430456 eV PBE+vdW (tier 2 basis)
N    -1.431326  1.175580  0.576905
C    -0.928345  0.122108  1.527693
C    0.488646  0.441311  2.058460
O    1.367364  1.041336  1.297259
H    -2.168355  0.797453  -0.028799
H    -1.845773  1.964745  1.086121
H    -1.591314  0.117336  2.407328
C    -0.961048  -1.257354  0.826769
C    -0.946384  -2.518823  1.715819
C    0.387851  -2.897086  2.409573
C    0.333090  -2.785459  3.941889
N    1.635034  -2.250351  4.504204
H    -0.144541  -1.314784  0.085619
H    -1.900645  -1.297897  0.252605
H    -1.243520  -3.345725  1.058946
H    -1.754924  -2.441894  2.458347
H    1.203014  -2.269925  2.020689
H    0.656723  -3.925408  2.138303
H    0.142731  -3.750925  4.423820
H    -0.431131  -2.075200  4.273845
H    1.761455  -1.282902  4.142511
H    1.618174  -2.212615  5.532283
O    0.788549  0.043072  3.182366
H    2.442960  -2.824123  4.229145
Cd    0.489714  1.872532  -0.432699
