25
Energy: -167646.036252 eV PBE+vdW (tier 2 basis)
N    1.152976  0.275993  0.389081
C    0.192357  -0.021140  1.533579
C    0.931668  -0.923978  2.517955
O    0.492277  -0.994150  3.707788
H    0.653855  0.565274  -0.464177
H    1.816692  1.025430  0.633630
H    -0.073115  0.936937  1.994748
C    -1.083336  -0.742625  1.023541
C    -0.949623  -2.232203  0.625466
C    -1.132783  -3.231876  1.799679
C    -0.220111  -4.472305  1.747262
N    0.330507  -4.840064  3.109239
H    -1.467150  -0.156987  0.173695
H    -1.839174  -0.623815  1.812501
H    0.016441  -2.415460  0.129090
H    -1.706700  -2.438287  -0.140634
H    -2.183323  -3.546842  1.847170
H    -0.976215  -2.704732  2.756653
H    0.649014  -4.299971  1.099899
H    -0.752843  -5.349161  1.354351
H    -0.429861  -5.131537  3.735469
H    0.950176  -5.654701  3.028283
O    1.832366  -1.689224  2.055200
H    1.711855  -0.573821  0.195235
Cd    1.347956  -3.029540  3.904260
