25
Energy: -167644.688254 eV PBE+vdW (tier 2 basis)
N    1.418227  0.442350  0.429408
C    0.667356  0.047163  1.695533
C    1.712060  -0.505548  2.687654
O    1.287994  -1.042025  3.749676
H    1.437886  -0.338557  -0.242473
H    0.990304  1.253295  -0.036739
H    0.316922  0.989240  2.144818
C    -0.533287  -0.856319  1.406054
C    -0.231214  -2.206453  0.739118
C    -1.506236  -3.061912  0.631208
C    -1.294560  -4.416577  -0.064440
N    -1.057454  -4.303088  -1.474596
H    -1.253288  -0.281665  0.801995
H    -1.023443  -1.018428  2.376773
H    0.526009  -2.756136  1.321695
H    0.183553  -2.074647  -0.276884
H    -2.294037  -2.501791  0.102688
H    -1.898887  -3.261860  1.638393
H    -2.207117  -5.026652  0.121357
H    -0.463825  -4.977664  0.386478
H    -0.574615  -5.063346  -1.947072
H    -1.767390  -3.850624  -2.047467
O    2.938835  -0.330347  2.412699
H    2.400220  0.657659  0.684697
Cd    3.420976  -1.239311  4.538833
