25
Energy: -167645.382872 eV PBE+vdW (tier 2 basis)
N    -1.031624  0.835483  0.030107
C    -0.662580  -0.047948  1.201608
C    0.756213  0.259825  1.754346
O    1.315901  1.429428  1.573775
H    -0.768906  0.376737  -0.851081
H    -2.047523  0.968495  -0.013407
H    -1.346826  0.242524  2.016446
C    -0.910174  -1.532794  0.824864
C    -1.209432  -2.547089  1.955019
C    0.000212  -3.226266  2.637276
C    0.272987  -2.757499  4.073926
N    1.761181  -2.598455  4.319265
H    -0.074279  -1.892810  0.205241
H    -1.798336  -1.534035  0.175713
H    -1.814178  -3.333930  1.486821
H    -1.874855  -2.090658  2.704204
H    0.894620  -3.064145  2.019320
H    -0.162973  -4.311660  2.648559
H    -0.103475  -3.461814  4.824203
H    -0.157477  -1.771959  4.279251
H    2.279159  -3.462317  4.110561
H    2.103249  -1.841304  3.698226
O    1.321748  -0.595788  2.428793
H    1.966431  -2.342367  5.294209
Cd    0.240936  2.704347  0.296753
