25
Energy: -167644.651204 eV PBE+vdW (tier 2 basis)
N    0.544224  -0.606711  -0.020695
C    0.208843  -0.335642  1.442989
C    1.376117  -0.919713  2.262341
O    1.502274  -0.552418  3.465015
H    -0.303369  -0.716277  -0.594298
H    1.116968  0.140693  -0.436904
H    0.187085  0.752607  1.580403
C    -1.151968  -0.975616  1.791341
C    -1.703248  -0.617158  3.183258
C    -2.282277  0.802749  3.332715
C    -3.718466  0.968857  2.803903
N    -4.684377  0.259842  3.586768
H    -1.061132  -2.068751  1.697454
H    -1.868269  -0.652455  1.016242
H    -0.917119  -0.764578  3.935926
H    -2.485768  -1.351259  3.422415
H    -1.650734  1.556364  2.838022
H    -2.269178  1.078509  4.397451
H    -3.823754  0.649422  1.756055
H    -3.950564  2.058308  2.803989
H    -5.581009  0.017707  3.173677
H    -4.709142  0.407999  4.593477
O    2.136563  -1.755725  1.684836
H    1.108266  -1.478629  -0.055410
Cd    3.330628  -1.910328  3.720353
