25
Energy: -167645.58822 eV PBE+vdW (tier 2 basis)
N    1.511820  -1.769589  0.072979
C    0.482359  -0.909776  0.753003
C    1.038029  -0.094526  1.944248
O    2.045693  -0.528800  2.651811
H    1.074467  -2.588703  -0.364337
H    1.988080  -1.256860  -0.677414
H    0.142067  -0.159739  0.023551
C    -0.699016  -1.797509  1.212980
C    -1.768040  -1.110812  2.076145
C    -2.596245  -0.012847  1.371581
C    -3.148265  1.035154  2.335654
N    -2.089701  2.076752  2.681473
H    -0.292760  -2.645953  1.791092
H    -1.163636  -2.226630  0.310934
H    -1.291464  -0.717816  2.986317
H    -2.453444  -1.893135  2.429554
H    -3.452514  -0.469126  0.857150
H    -2.023158  0.497412  0.581750
H    -3.472440  0.585974  3.282248
H    -3.997644  1.582005  1.912013
H    -2.059413  2.815527  1.967307
H    -2.281276  2.534914  3.581359
O    0.449750  0.943034  2.249643
H    -1.131338  1.656842  2.706745
Cd    2.987192  -2.191647  1.765327
