25
Energy: -167644.83021 eV PBE+vdW (tier 2 basis)
N    0.080244  0.622991  0.606121
C    0.083057  0.194529  2.069723
C    1.560953  0.012496  2.473962
O    1.820659  -0.095073  3.704718
H    -0.776625  0.315684  0.125488
H    0.156878  1.643446  0.497155
H    -0.342938  1.020274  2.654751
C    -0.725400  -1.094194  2.276579
C    -2.237322  -0.931827  2.047417
C    -2.994290  -2.230364  2.374820
C    -4.518593  -2.122410  2.174815
N    -5.165826  -1.274353  3.128692
H    -0.541671  -1.401243  3.316058
H    -0.311529  -1.894042  1.640606
H    -2.456955  -0.658724  0.998911
H    -2.624198  -0.111105  2.671569
H    -2.785303  -2.531325  3.413423
H    -2.635125  -3.051446  1.737854
H    -4.921227  -3.157899  2.246636
H    -4.769511  -1.771037  1.164397
H    -6.036686  -0.818575  2.869727
H    -5.094296  -1.505144  4.117348
O    2.423630  -0.040023  1.546354
H    0.916047  0.205540  0.153834
Cd    4.043014  -0.359634  3.255270
