25
Energy: -167645.537474 eV PBE+vdW (tier 2 basis)
N    1.308531  -0.521672  0.047731
C    0.083138  -0.315860  0.895341
C    0.311236  0.665229  2.070156
O    1.482930  0.783139  2.631036
H    1.282757  -1.436006  -0.417936
H    1.371916  0.184129  -0.694438
H    -0.681616  0.156561  0.261084
C    -0.397049  -1.689121  1.417266
C    -1.557921  -1.735056  2.429922
C    -2.996154  -1.539389  1.910816
C    -3.480433  -0.151498  1.495602
N    -3.365822  0.866173  2.611584
H    0.468256  -2.180427  1.897628
H    -0.653416  -2.306915  0.541366
H    -1.343975  -1.073666  3.282888
H    -1.532612  -2.746810  2.857701
H    -3.679244  -1.919651  2.686838
H    -3.169926  -2.194212  1.043114
H    -4.536709  -0.197436  1.205334
H    -2.923497  0.273551  0.651833
H    -3.873559  1.730853  2.384184
H    -3.749269  0.508887  3.496421
O    -0.660631  1.282066  2.506852
H    -2.351860  1.110388  2.740701
Cd    3.003451  -0.192177  1.549315
