25
Energy: -167644.279994 eV PBE+vdW (tier 2 basis)
N    0.288186  0.771827  0.446905
C    0.101654  0.459846  1.888975
C    1.476711  0.306839  2.568202
O    2.486456  -0.083989  1.968593
H    0.306262  1.784906  0.287041
H    -0.493330  0.404444  -0.104365
H    -0.425864  1.300997  2.369235
C    -0.737800  -0.835064  2.059817
C    -1.141750  -1.149973  3.510571
C    -2.251233  -2.204013  3.661461
C    -1.788718  -3.670622  3.344982
N    -2.785357  -4.639081  3.644520
H    -0.187139  -1.676355  1.609077
H    -1.651607  -0.687420  1.461974
H    -1.530985  -0.230101  3.979887
H    -0.265404  -1.460864  4.100274
H    -3.114595  -1.960031  3.025700
H    -2.606385  -2.183456  4.700212
H    -0.893121  -3.886692  3.947751
H    -1.528220  -3.755869  2.279848
H    -3.504941  -4.888653  2.973062
H    -2.904787  -4.996145  4.588053
O    1.586023  0.546612  3.853331
H    0.765976  0.891764  4.258920
Cd    2.372176  -0.108639  -0.284762
