25
Energy: -167645.621254 eV PBE+vdW (tier 2 basis)
N    -1.455006  -0.323753  2.892489
C    -0.349674  -0.407349  2.023913
C    0.782273  0.723325  2.385343
O    0.465337  1.932896  2.310937
H    -4.289033  -1.905649  -2.138708
H    -1.348158  -0.714589  3.825264
H    0.175853  -1.354557  2.193447
C    -0.682597  -0.216157  0.532111
C    -1.408795  -1.417359  -0.109905
C    -2.898109  -1.547911  0.244062
C    -3.595664  -2.778953  -0.322757
N    -3.745260  -2.729028  -1.843277
H    0.261784  -0.062972  -0.008049
H    -1.263065  0.710519  0.405413
H    -0.880406  -2.347946  0.154008
H    -1.280554  -1.296644  -1.199027
H    -3.448963  -0.638250  -0.048158
H    -3.015046  -1.621333  1.335463
H    -4.614942  -2.878716  0.068229
H    -3.049190  -3.706075  -0.107541
H    -2.832819  -2.684889  -2.317240
H    -4.234445  -3.564039  -2.196363
O    1.905582  0.275127  2.730545
H    -1.990716  0.542206  2.884116
Cd    2.616612  2.424094  3.064687
