25
Energy: -167644.716712 eV PBE+vdW (tier 2 basis)
N    0.224105  0.095173  0.600504
C    -0.001689  -0.518859  1.916130
C    1.269690  -0.683442  2.797140
O    2.394427  -0.859825  2.307087
H    -1.461699  0.275156  -0.482562
H    0.439862  1.090579  0.762638
H    -0.682063  0.153251  2.472218
C    -0.617404  -1.942652  1.804479
C    -1.709809  -2.100642  0.742895
C    -2.974388  -1.227624  0.925151
C    -3.428862  -0.577162  -0.373059
N    -2.445306  0.516865  -0.785122
H    -0.996133  -2.236046  2.794978
H    0.187408  -2.663141  1.577043
H    -2.001336  -3.159005  0.730691
H    -1.261938  -1.923728  -0.247246
H    -2.838021  -0.449220  1.693627
H    -3.808773  -1.839322  1.292121
H    -4.414134  -0.104503  -0.291615
H    -3.460643  -1.299164  -1.197911
H    -2.460663  0.683298  -1.799424
H    -2.689311  1.406535  -0.331952
O    1.161533  -0.717325  4.102622
H    0.253098  -0.551881  4.423961
Cd    2.213302  -0.624475  0.066692
