25
Energy: -167645.556495 eV PBE+vdW (tier 2 basis)
N    -0.064237  1.149303  0.496116
C    0.634139  0.482397  1.513526
C    1.946399  -0.283896  0.884448
O    1.757259  -1.295653  0.170487
H    -1.908967  -0.840401  7.082005
H    0.280468  2.048782  0.174205
H    1.074460  1.219168  2.195661
C    -0.205367  -0.565095  2.265651
C    -1.378855  0.078229  3.026461
C    -2.323095  -0.948828  3.682646
C    -1.909231  -1.487677  5.048174
N    -2.205758  -0.484707  6.161996
H    0.457884  -1.120285  2.945961
H    -0.588139  -1.297683  1.538630
H    -1.965425  0.680445  2.320175
H    -0.993038  0.801587  3.767011
H    -2.433484  -1.822453  3.023423
H    -3.339389  -0.529015  3.756583
H    -0.837655  -1.711678  5.120297
H    -2.468885  -2.391906  5.314500
H    -3.215500  -0.287152  6.219030
H    -1.726836  0.413199  6.006738
O    3.057260  0.246339  1.136634
H    -0.531062  0.597953  -0.220018
Cd    4.054053  -1.298973  -0.242337
