25
Energy: -167644.783543 eV PBE+vdW (tier 2 basis)
N    1.342326  -0.580400  0.532599
C    1.102493  -0.750911  2.029758
C    1.771456  -2.091116  2.419566
O    1.590865  -2.536389  3.588777
H    0.534053  -0.903962  -0.017429
H    1.534013  0.395364  0.271134
H    1.691622  0.036291  2.525711
C    -0.385820  -0.603530  2.374018
C    -0.645299  -0.434136  3.878423
C    -2.122769  -0.365450  4.282646
C    -2.839897  0.959698  3.834513
N    -4.174324  1.054654  4.308805
H    -0.940621  -1.472038  1.982957
H    -0.753368  0.284586  1.831674
H    -0.110781  0.455674  4.247626
H    -0.209022  -1.293914  4.411580
H    -2.188614  -0.422269  5.376904
H    -2.681279  -1.224952  3.883534
H    -2.853627  0.999199  2.732238
H    -2.267624  1.818940  4.209500
H    -4.387974  1.514429  5.188288
H    -4.921769  0.505792  3.895385
O    2.504292  -2.643541  1.545902
H    2.151474  -1.186808  0.282371
Cd    3.001632  -4.313577  3.181532
