25
Energy: -167644.721022 eV PBE+vdW (tier 2 basis)
N    0.252562  0.361875  0.478777
C    -0.060371  -0.100072  1.898535
C    1.241806  0.043355  2.708870
O    1.158194  -0.059400  3.965438
H    -0.345679  -0.110342  -0.213086
H    0.127037  1.377016  0.364581
H    -0.805519  0.594390  2.309085
C    -0.603745  -1.537044  1.920233
C    -1.961648  -1.685091  1.209842
C    -2.708496  -2.992991  1.524727
C    -2.072139  -4.269708  0.933084
N    -2.891334  -5.417461  1.149711
H    -0.712583  -1.794656  2.983763
H    0.154125  -2.222464  1.508496
H    -1.850453  -1.599515  0.113395
H    -2.617739  -0.856595  1.519213
H    -3.730743  -2.895509  1.130347
H    -2.807383  -3.118927  2.612864
H    -1.080055  -4.475495  1.357522
H    -1.921246  -4.108055  -0.158975
H    -3.866474  -5.417108  0.863059
H    -2.479357  -6.327887  1.325941
O    2.319216  0.240731  2.070652
H    1.252705  0.158576  0.291598
Cd    3.401758  0.276497  4.192061
