25
Energy: -167645.380427 eV PBE+vdW (tier 2 basis)
N    -0.755332  0.265658  -0.390001
C    -0.484686  -0.045950  1.059500
C    0.923625  0.448650  1.503587
O    1.413479  1.571363  1.012342
H    -0.320949  -0.436988  -0.999664
H    -1.760943  0.234801  -0.586199
H    -1.208118  0.560250  1.630130
C    -0.684702  -1.536608  1.402077
C    -1.023968  -1.755493  2.896029
C    -0.528764  -3.090156  3.483856
C    0.961610  -3.062660  3.812100
N    1.388960  -4.354218  4.501497
H    0.227622  -2.079281  1.115127
H    -1.502226  -1.941478  0.788790
H    -2.113644  -1.712642  3.022708
H    -0.611766  -0.936782  3.501323
H    -0.756249  -3.919960  2.794911
H    -1.096283  -3.283449  4.407898
H    1.214205  -2.250598  4.504462
H    1.602709  -2.960961  2.929067
H    1.220646  -5.177247  3.905614
H    2.391294  -4.342353  4.738366
O    1.547680  -0.179253  2.344002
H    0.866494  -4.500888  5.377434
Cd    0.337305  2.279240  -0.634956
