25
Energy: -167645.507734 eV PBE+vdW (tier 2 basis)
N    0.710520  -1.735741  3.282869
C    0.246855  -1.766286  1.908941
C    1.355796  -2.251850  0.887933
O    0.959652  -2.976451  -0.074206
H    0.797263  -2.672587  3.682611
H    1.624807  -1.281137  3.359221
H    -0.558658  -2.506105  1.821856
C    -0.253609  -0.392601  1.416233
C    -1.604360  -0.007532  2.075180
C    -1.617276  1.283856  2.909983
C    -0.665524  1.354671  4.099011
N    -0.791919  0.136641  4.994899
H    -0.379153  -0.434912  0.327037
H    0.527962  0.359579  1.603489
H    -1.976384  -0.851326  2.679097
H    -2.357884  0.110691  1.286715
H    -2.646691  1.454828  3.261748
H    -1.380293  2.148757  2.272873
H    -0.868874  2.239210  4.713290
H    0.389619  1.389454  3.799072
H    -0.288942  0.268994  5.881552
H    -1.774013  -0.064094  5.225480
O    2.553655  -1.886193  1.046418
H    -0.370003  -0.693072  4.488387
Cd    3.050454  -3.043792  -0.861691
