25
Energy: -167644.732938 eV PBE+vdW (tier 2 basis)
N    0.672442  0.648208  1.280083
C    0.007889  0.121982  2.496523
C    0.969224  -0.083774  3.692269
O    2.124118  0.369659  3.739463
H    0.819654  -0.622855  -0.267638
H    0.070249  1.387461  0.898937
H    -0.734996  0.845342  2.881170
C    -0.739655  -1.191898  2.133017
C    0.189336  -2.344573  1.697580
C    -0.253414  -3.096875  0.431227
C    -0.469398  -2.234993  -0.808857
N    0.714323  -1.313345  -1.062737
H    -1.456208  -0.919326  1.346318
H    -1.387289  -1.499146  2.969690
H    0.281872  -3.079117  2.507548
H    1.213376  -1.961416  1.554109
H    -1.201981  -3.624572  0.609665
H    0.482863  -3.883934  0.209823
H    -1.342776  -1.576343  -0.729069
H    -0.598297  -2.851791  -1.705624
H    0.589011  -0.788949  -1.938389
H    1.586093  -1.852426  -1.151866
O    0.546142  -0.741009  4.745070
H    -0.374493  -1.057147  4.659690
Cd    2.465439  1.643393  1.947133
