25
Energy: -167645.528567 eV PBE+vdW (tier 2 basis)
N    0.513646  0.524588  0.331269
C    -0.241391  0.040395  1.543149
C    0.702446  -0.333819  2.726477
O    1.842834  0.289434  2.881114
H    0.822425  -0.263851  -0.249302
H    -0.091521  1.101148  -0.262644
H    -0.801968  0.917714  1.906863
C    -1.251575  -1.078651  1.228736
C    -0.642172  -2.458241  0.908083
C    -1.522788  -3.655961  1.317959
C    -1.931074  -3.755637  2.786854
N    -0.745662  -3.744096  3.735087
H    -1.906570  -0.744340  0.411560
H    -1.902647  -1.131194  2.110640
H    0.347193  -2.558750  1.381850
H    -0.459635  -2.554428  -0.171609
H    -1.014018  -4.584197  1.016962
H    -2.463706  -3.642957  0.747536
H    -2.477522  -4.688931  2.965564
H    -2.573900  -2.928337  3.110794
H    -1.047862  -3.913915  4.703536
H    -0.062304  -4.475011  3.497805
O    0.337329  -1.170875  3.548897
H    -0.266072  -2.811181  3.711397
Cd    2.323793  1.551832  1.273035
