25
Energy: -167644.791746 eV PBE+vdW (tier 2 basis)
N    1.296296  -0.417193  0.488316
C    0.660238  -0.368465  1.874333
C    1.559234  -1.240930  2.795589
O    1.171430  -1.476614  3.973184
H    0.868172  -1.152817  -0.091834
H    1.205798  0.475168  -0.014764
H    0.787425  0.664940  2.233447
C    -0.820322  -0.740727  1.813967
C    -1.583400  -0.452856  3.110622
C    -3.092195  -0.735585  3.028065
C    -3.888711  0.283270  2.190931
N    -3.638929  0.199246  0.775022
H    -0.926047  -1.801962  1.533562
H    -1.290116  -0.152871  0.997102
H    -1.418028  0.592590  3.416854
H    -1.169373  -1.074676  3.920283
H    -3.505725  -0.708304  4.044644
H    -3.276458  -1.755270  2.654158
H    -3.688625  1.311262  2.523124
H    -4.963944  0.093060  2.401963
H    -3.852321  1.028798  0.224266
H    -3.943794  -0.656591  0.312750
O    2.665661  -1.627575  2.313638
H    2.299846  -0.661214  0.606237
Cd    3.111505  -2.628423  4.418012
