25
Energy: -167645.617408 eV PBE+vdW (tier 2 basis)
N    -0.309066  -3.258166  1.527050
C    -0.650231  -2.142686  0.756275
C    0.625181  -1.717990  -0.214248
O    1.616748  -1.147273  0.292346
H    -0.378944  -4.180283  1.107361
H    0.398627  -3.177879  2.250556
H    -1.410716  -2.430672  0.023143
C    -1.138796  -0.906306  1.535628
C    -0.345560  -0.499848  2.782568
C    -1.007825  0.696114  3.494238
C    -0.273059  1.063021  4.778468
N    -0.961726  2.215865  5.500618
H    -2.173033  -1.153803  1.824227
H    -1.209576  -0.063550  0.832361
H    0.690456  -0.246941  2.510454
H    -0.299593  -1.344800  3.487612
H    -2.055192  0.443703  3.728188
H    -1.030232  1.564416  2.815906
H    0.756550  1.393593  4.593478
H    -0.247867  0.232610  5.495166
H    -0.468849  2.466215  6.370087
H    -1.000330  3.061090  4.912964
O    0.496111  -2.058320  -1.415532
H    -1.931082  1.975381  5.753953
Cd    2.604004  -1.307492  -1.865866
