25
Energy: -167645.642611 eV PBE+vdW (tier 2 basis)
N    0.721579  -3.036758  2.297741
C    0.221825  -2.096698  1.384862
C    1.253578  -1.932517  0.114302
O    0.866060  -2.456502  -0.960140
H    0.587677  -4.024658  2.103007
H    1.577223  -2.821702  2.803359
H    -0.688413  -2.491255  0.918411
C    -0.022619  -0.700344  1.984067
C    -1.212367  -0.734154  2.959222
C    -1.668145  0.635725  3.498758
C    -0.712948  1.244096  4.520351
N    -1.310141  2.507961  5.130243
H    -0.230460  0.001353  1.162501
H    0.905772  -0.357895  2.466572
H    -0.989843  -1.411302  3.797391
H    -2.079021  -1.173791  2.444525
H    -2.651700  0.490847  3.973816
H    -1.821371  1.337545  2.662740
H    0.249375  1.545515  4.089362
H    -0.522658  0.565928  5.361852
H    -1.500730  3.220515  4.411019
H    -2.203744  2.306689  5.602642
O    2.345916  -1.349712  0.299930
H    -0.680386  2.930958  5.827150
Cd    2.867540  -1.903848  -1.921684
