25
Energy: -167644.70229 eV PBE+vdW (tier 2 basis)
N    0.667119  -0.434488  0.031308
C    0.066244  -0.188468  1.410856
C    1.248330  0.043403  2.377577
O    0.995671  0.101461  3.613128
H    0.069995  -0.073439  -0.724202
H    0.817348  -1.440437  -0.132041
H    -0.449686  0.781774  1.346486
C    -0.928768  -1.275926  1.824325
C    -0.352165  -2.698010  1.921640
C    -1.275753  -3.702884  2.632317
C    -2.581289  -4.033065  1.878032
N    -3.325384  -5.063120  2.526923
H    -1.781934  -1.234132  1.129984
H    -1.319320  -0.961840  2.802966
H    0.591994  -2.673216  2.488239
H    -0.104299  -3.096904  0.921132
H    -1.533687  -3.330000  3.634465
H    -0.711099  -4.634988  2.781412
H    -2.315346  -4.348237  0.842131
H    -3.236436  -3.157050  1.775376
H    -4.339697  -5.073943  2.486696
H    -2.881212  -5.943785  2.772837
O    2.396857  0.223713  1.868812
H    1.597331  0.025300  0.000196
Cd    3.170529  0.660346  4.063760
