25
Energy: -167645.667992 eV PBE+vdW (tier 2 basis)
N    1.155068  1.486151  1.935619
C    1.333440  0.100231  2.086522
C    2.161999  -0.528827  0.818698
O    3.306600  -0.975208  1.086708
H    -3.779915  0.138723  6.236547
H    1.935084  2.096153  2.163703
H    1.993168  -0.091251  2.940870
C    0.020859  -0.693730  2.201477
C    -0.707996  -0.421232  3.529405
C    -2.001958  -1.243998  3.642985
C    -2.690302  -1.210557  5.002365
N    -3.308855  0.149714  5.320440
H    0.250084  -1.766856  2.124766
H    -0.622310  -0.448659  1.342430
H    -0.909517  0.660428  3.601145
H    -0.040399  -0.674122  4.368996
H    -1.777389  -2.306856  3.463835
H    -2.717857  -0.963343  2.852755
H    -1.998938  -1.425339  5.827090
H    -3.518634  -1.927304  5.048793
H    -4.012200  0.413731  4.615790
H    -2.600385  0.895497  5.347697
O    1.628879  -0.505444  -0.314813
H    0.598063  1.812900  1.149110
Cd    3.606412  -1.429800  -1.136933
