25
Energy: -167645.661091 eV PBE+vdW (tier 2 basis)
N    -0.576870  -1.232054  1.141544
C    0.516434  -0.376158  1.380687
C    1.770901  -0.687500  0.373067
O    2.160028  0.284894  -0.324122
H    -3.610039  -0.703364  5.279244
H    -1.155407  -1.028238  0.330220
H    0.237140  0.653159  1.126492
C    1.099166  -0.456991  2.804178
C    0.238683  0.228097  3.882992
C    -1.006067  -0.549438  4.347985
C    -1.689781  0.194154  5.491277
N    -2.903635  -0.564454  6.015649
H    2.078166  0.042015  2.798296
H    1.293469  -1.510353  3.058115
H    -0.056094  1.231062  3.535855
H    0.895730  0.393466  4.750572
H    -0.703184  -1.553946  4.686811
H    -1.706363  -0.685689  3.509141
H    -2.060072  1.180382  5.184447
H    -1.025079  0.328335  6.354021
H    -3.358985  -0.057795  6.788750
H    -2.641373  -1.495549  6.369701
O    2.256827  -1.841904  0.357379
H    -0.414974  -2.229853  1.265796
Cd    3.723382  -1.077278  -1.284098
