25
Energy: -167645.457929 eV PBE+vdW (tier 2 basis)
N    -0.532289  1.386596  0.498929
C    -0.448688  0.135196  1.119207
C    0.997949  0.032111  1.916932
O    0.962249  0.316413  3.139466
H    -2.070747  -4.619756  -0.702439
H    -0.751481  2.206837  1.055941
H    -1.178001  0.085874  1.936910
C    -0.570656  -1.038675  0.133135
C    -0.700196  -2.426944  0.782809
C    -2.091762  -2.761193  1.357156
C    -3.173280  -3.114718  0.339411
N    -2.982676  -4.516399  -0.235978
H    0.301058  -1.023821  -0.535254
H    -1.447308  -0.815792  -0.494272
H    0.039343  -2.537519  1.589517
H    -0.393942  -3.180671  0.038692
H    -2.484842  -1.908799  1.931017
H    -2.010698  -3.575381  2.094972
H    -3.193425  -2.436546  -0.522912
H    -4.170168  -3.118963  0.795262
H    -3.033155  -5.231659  0.503903
H    -3.710811  -4.739496  -0.929862
O    2.022579  -0.245945  1.252786
H    0.015934  1.567272  -0.338005
Cd    3.265015  0.200979  3.180678
