25
Energy: -167643.962614 eV PBE+vdW (tier 2 basis)
N    0.872338  -0.520604  0.048026
C    0.993973  -0.511590  1.467673
C    2.074435  -1.564994  1.951311
O    3.167137  -1.164860  2.355684
H    0.459552  -1.330325  -0.408504
H    1.601875  -0.072539  -0.500962
H    1.416048  0.451936  1.779230
C    -0.337971  -0.765636  2.192181
C    -1.328122  0.421548  2.080462
C    -1.940332  0.617780  0.701795
C    -3.036139  1.786418  0.643036
N    -4.260458  1.459284  1.257168
H    -0.137688  -0.948220  3.258164
H    -0.814472  -1.682192  1.798839
H    -0.823848  1.343351  2.409409
H    -2.113283  0.219570  2.823620
H    -2.414147  -0.302919  0.331872
H    -1.188388  0.932620  -0.038268
H    -3.204945  1.986128  -0.423284
H    -2.596947  2.672405  1.123134
H    -4.442671  1.651319  2.237449
H    -5.008896  1.010259  0.737162
O    1.834810  -2.860707  1.881775
H    0.920312  -3.076155  1.610005
Cd    4.993684  -2.504010  2.990739
