25
Energy: -167644.75582 eV PBE+vdW (tier 2 basis)
N    0.672117  -0.231167  0.363385
C    -0.026052  -0.121652  1.659786
C    0.824519  0.369804  2.865450
O    2.064288  0.344657  2.891720
H    0.002903  -1.600593  -0.836999
H    0.534636  0.649925  -0.149947
H    -0.830970  0.628018  1.551431
C    -0.640370  -1.495211  2.038534
C    -1.861044  -1.845027  1.152817
C    -1.854919  -3.243100  0.515731
C    -0.660848  -3.566443  -0.377283
N    -0.376128  -2.443080  -1.360280
H    -0.931303  -1.511039  3.097368
H    0.161294  -2.245877  1.950754
H    -1.975417  -1.081532  0.366132
H    -2.777166  -1.759048  1.750579
H    -2.784188  -3.366366  -0.060769
H    -1.885923  -4.022344  1.291348
H    -0.837173  -4.477351  -0.960581
H    0.269498  -3.705164  0.187407
H    0.312053  -2.733674  -2.066054
H    -1.228342  -2.166347  -1.866304
O    0.211281  0.787970  3.945068
H    -0.762461  0.817086  3.859103
Cd    2.791839  -0.132701  0.840895
