25
Energy: -167645.484514 eV PBE+vdW (tier 2 basis)
N    -0.355761  -1.838263  2.612226
C    -0.228742  -0.629643  1.829574
C    1.075304  0.223919  2.145719
O    1.617080  0.140704  3.282090
H    -3.470387  -3.331448  1.863663
H    0.451177  -2.457296  2.508872
H    -0.101133  -0.904313  0.774187
C    -1.413725  0.351162  2.011257
C    -2.827187  -0.260497  2.041091
C    -3.411363  -0.871247  0.756032
C    -2.801431  -2.165610  0.221013
N    -2.608326  -3.191999  1.320062
H    -1.341799  1.108495  1.218424
H    -1.279958  0.885181  2.964700
H    -3.496165  0.565878  2.320339
H    -2.911451  -0.964893  2.884099
H    -3.367730  -0.141616  -0.066198
H    -4.484629  -1.042381  0.932605
H    -1.811203  -2.023953  -0.228450
H    -3.448721  -2.615690  -0.540658
H    -2.335049  -4.106342  0.938316
H    -1.837623  -2.843911  1.961937
O    1.489659  0.984207  1.219592
H    -0.466384  -1.646143  3.611531
Cd    3.125549  1.692700  2.578977
