25
Energy: -167644.767226 eV PBE+vdW (tier 2 basis)
N    -0.182492  0.695726  0.374424
C    -0.145439  0.099028  1.779511
C    1.329479  0.147246  2.236010
O    1.630177  -0.421823  3.321237
H    -0.172212  -0.038060  -0.347779
H    -1.007452  1.287156  0.214144
H    -0.686192  0.808398  2.425341
C    -0.790493  -1.286873  1.849523
C    -2.297109  -1.275127  1.548727
C    -2.975666  -2.655803  1.580748
C    -3.137449  -3.244529  3.024463
N    -3.881534  -4.457157  3.043354
H    -0.592170  -1.652773  2.866655
H    -0.258113  -1.973954  1.170067
H    -2.484004  -0.869770  0.539044
H    -2.807747  -0.592953  2.247803
H    -2.423842  -3.378552  0.961954
H    -3.977765  -2.563097  1.141527
H    -3.655900  -2.501812  3.648756
H    -2.145192  -3.436282  3.459463
H    -3.442978  -5.351360  2.847693
H    -4.896244  -4.450172  3.077053
O    2.144928  0.794515  1.510756
H    0.687250  1.256979  0.262275
Cd    3.800259  0.303103  3.145677
