25
Energy: -167645.642051 eV PBE+vdW (tier 2 basis)
N    1.302884  -2.871877  2.228369
C    0.354154  -2.088822  1.556469
C    0.882091  -1.764604  0.031597
O    0.329254  -2.428613  -0.880624
H    2.202048  -2.461196  2.466936
H    1.327128  -3.872194  2.054871
H    -0.552745  -2.681108  1.387129
C    0.035047  -0.753744  2.252892
C    -0.678797  -1.000713  3.593744
C    -0.898420  0.247642  4.470156
C    -1.975914  1.191203  3.946053
N    -2.250064  2.305522  4.950576
H    -0.582872  -0.149547  1.572362
H    0.974138  -0.199241  2.404848
H    -0.078316  -1.706258  4.183553
H    -1.644260  -1.502029  3.420512
H    0.052037  0.792584  4.590409
H    -1.191086  -0.103703  5.472750
H    -2.935083  0.679576  3.795837
H    -1.696701  1.692650  3.011568
H    -2.980189  2.951057  4.616831
H    -2.565411  1.922498  5.853952
O    1.811394  -0.938414  -0.115479
H    -1.403801  2.863043  5.136144
Cd    1.788483  -1.504714  -2.389453
