25
Energy: -167644.369249 eV PBE+vdW (tier 2 basis)
N    0.426004  -0.077509  -0.027787
C    0.180475  0.020334  1.436586
C    1.521608  0.173208  2.177642
O    2.586109  -0.296815  1.755375
H    -0.302998  -0.640978  -0.476324
H    0.397624  0.846248  -0.473167
H    -0.426885  0.918892  1.636333
C    -0.573225  -1.241749  1.932013
C    -1.005690  -1.232737  3.407298
C    -1.882011  -2.453731  3.738683
C    -2.292508  -2.530795  5.221852
N    -3.233764  -1.528789  5.614760
H    0.050068  -2.128587  1.729767
H    -1.470158  -1.330207  1.298065
H    -1.570444  -0.312056  3.629864
H    -0.123600  -1.242796  4.066343
H    -1.339101  -3.380632  3.503788
H    -2.786482  -2.457370  3.110303
H    -1.420396  -2.476250  5.888322
H    -2.730772  -3.543279  5.380131
H    -3.271672  -1.239194  6.588952
H    -4.121475  -1.461808  5.120723
O    1.542610  0.781068  3.340185
H    0.679293  1.162831  3.594637
Cd    2.578603  -1.005683  -0.383335
