25
Energy: -167644.865735 eV PBE+vdW (tier 2 basis)
N    0.771566  -0.583998  0.081691
C    0.110131  -0.263309  1.420030
C    1.255668  0.084761  2.403723
O    0.958336  0.269008  3.614199
H    0.886721  -1.599048  -0.045891
H    0.242889  -0.220114  -0.720808
H    -0.450263  0.672082  1.267088
C    -0.819386  -1.376180  1.898702
C    -2.059852  -1.582284  1.010037
C    -3.025081  -2.600265  1.633724
C    -4.306234  -2.800047  0.750142
N    -5.226346  -3.725801  1.312210
H    -1.128150  -1.094076  2.915389
H    -0.249359  -2.314240  2.005099
H    -1.771336  -1.929718  0.003118
H    -2.575818  -0.617790  0.876115
H    -3.341371  -2.262160  2.630836
H    -2.533734  -3.575731  1.760927
H    -3.996159  -3.160820  -0.242244
H    -4.806159  -1.828079  0.629178
H    -5.938972  -3.430601  1.971728
H    -5.132173  -4.725122  1.162355
O    2.420869  0.204003  1.918016
H    1.723149  -0.162895  0.104704
Cd    3.138923  0.780914  4.117486
