25
Energy: -167645.753534 eV PBE+vdW (tier 2 basis)
N    2.430806  -0.924033  3.099357
C    1.412435  -1.045049  2.142901
C    2.009334  -0.788065  0.631208
O    2.382700  0.367557  0.326560
H    -4.201847  0.876901  6.192363
H    3.058923  -1.708946  3.244386
H    1.070067  -2.085700  2.103966
C    0.238796  -0.071279  2.343665
C    -0.560130  -0.409665  3.613026
C    -1.742909  0.550117  3.834831
C    -2.508999  0.183816  5.101474
N    -3.685408  1.124838  5.335959
H    -0.414959  -0.121828  1.460513
H    0.631030  0.956291  2.387172
H    0.112030  -0.379229  4.483384
H    -0.936395  -1.442640  3.545206
H    -2.420606  0.512666  2.966220
H    -1.370722  1.584872  3.910565
H    -1.884030  0.252633  6.000576
H    -2.935846  -0.825732  5.052530
H    -4.353902  1.095045  4.552788
H    -3.373050  2.101394  5.435525
O    2.076038  -1.805926  -0.102400
H    2.860138  -0.012980  3.241536
Cd    3.088507  -0.527057  -1.715311
