25
Energy: -167644.679289 eV PBE+vdW (tier 2 basis)
N    -0.690303  0.456303  0.362907
C    -0.370335  0.484438  1.854807
C    1.133911  0.790935  1.976562
O    1.570748  1.117232  3.117559
H    -1.519046  -0.123548  0.169249
H    -0.862229  1.397875  -0.016295
H    -0.932989  1.318195  2.295955
C    -0.731621  -0.844424  2.542499
C    -2.220022  -1.062077  2.864738
C    -3.170343  -1.297667  1.680323
C    -4.586096  -1.730363  2.137411
N    -4.598692  -3.011696  2.778230
H    -0.177485  -0.846666  3.491495
H    -0.322604  -1.681719  1.952034
H    -2.585958  -0.222120  3.475926
H    -2.267702  -1.947629  3.515926
H    -2.767235  -2.072324  1.004823
H    -3.325836  -0.380614  1.083882
H    -5.241860  -1.737062  1.241812
H    -5.005965  -0.989076  2.829624
H    -4.381866  -3.841982  2.232075
H    -5.244006  -3.172778  3.546265
O    1.852861  0.676734  0.938036
H    0.136208  0.078910  -0.135927
Cd    3.684952  1.284779  2.310992
