25
Energy: -167646.018483 eV PBE+vdW (tier 2 basis)
N    0.279412  0.607902  0.433669
C    -0.301774  0.325757  1.784104
C    0.802797  0.548515  2.827120
O    2.000094  0.390205  2.547690
H    -0.375169  0.315578  -0.300233
H    0.426223  1.615556  0.303840
H    -1.120874  1.034592  1.982225
C    -0.890053  -1.119588  1.855018
C    -0.056514  -2.284227  1.278842
C    1.109681  -2.865103  2.123256
C    2.202682  -3.526774  1.276877
N    3.162987  -2.519066  0.654502
H    -1.846172  -1.082881  1.313388
H    -1.156477  -1.329055  2.901228
H    0.275770  -2.038387  0.247369
H    -0.763494  -3.103859  1.087535
H    0.703130  -3.630556  2.797883
H    1.570724  -2.128020  2.800420
H    1.765256  -4.104472  0.453209
H    2.803081  -4.214381  1.885178
H    3.984868  -2.417777  1.261239
H    3.524051  -2.877122  -0.236176
O    0.485547  0.859594  4.058054
H    -0.468078  1.027838  4.199590
Cd    2.218514  -0.548650  0.509677
