25
Energy: -167644.328327 eV PBE+vdW (tier 2 basis)
N    0.316634  0.371912  0.118910
C    0.212349  0.004562  1.554509
C    1.612341  -0.254405  2.151172
O    2.669976  -0.049082  1.543492
H    0.113187  -0.436349  -0.478090
H    -0.372406  1.091025  -0.118360
H    -0.151782  0.901290  2.083756
C    -0.795086  -1.150247  1.820506
C    -0.394601  -2.539029  1.302018
C    -1.450423  -3.588890  1.680506
C    -1.069955  -5.018622  1.156493
N    -2.025755  -6.012780  1.497739
H    -1.759021  -0.838252  1.391329
H    -0.986993  -1.193885  2.906022
H    0.583828  -2.835296  1.714061
H    -0.278760  -2.527267  0.204543
H    -2.432059  -3.316057  1.267218
H    -1.561298  -3.643198  2.773079
H    -0.095121  -5.302171  1.578589
H    -0.980058  -4.971157  0.059737
H    -2.852904  -6.172941  0.931012
H    -1.942254  -6.563379  2.346595
O    1.699932  -0.683793  3.388841
H    0.831921  -0.810850  3.819587
Cd    2.534817  1.039232  -0.423391
