25
Energy: -167645.464969 eV PBE+vdW (tier 2 basis)
N    -0.170956  0.408907  1.168895
C    0.463608  -0.876045  1.354164
C    1.105148  -1.495395  0.041898
O    2.027157  -2.349501  0.214216
H    0.463838  1.103273  0.769178
H    -0.988299  0.354841  0.555194
H    1.324168  -0.748901  2.025872
C    -0.499251  -1.959097  1.898021
C    -1.399076  -1.497092  3.054572
C    -0.683943  -1.000952  4.335493
C    -1.196330  0.346002  4.826225
N    -0.735387  1.470323  3.903444
H    0.109027  -2.822246  2.200799
H    -1.152290  -2.304644  1.081980
H    -2.042128  -2.350019  3.308291
H    -2.095618  -0.729145  2.684015
H    0.410307  -0.956809  4.211948
H    -0.840874  -1.716103  5.153497
H    -0.836492  0.593570  5.831347
H    -2.292466  0.378940  4.837238
H    -1.358772  2.285946  3.954738
H    0.202564  1.792532  4.172393
O    0.669745  -1.152562  -1.092066
H    -0.670718  1.142049  2.895756
Cd    2.156038  -2.611871  -2.005108
