25
Energy: -167645.588918 eV PBE+vdW (tier 2 basis)
N    -0.180250  -1.414015  2.931677
C    0.327356  -0.844450  1.748218
C    1.215208  0.500203  2.055240
O    0.658913  1.465948  2.627509
H    -2.161170  -4.029098  -1.354921
H    0.467043  -1.943536  3.510249
H    1.055172  -1.528943  1.296297
C    -0.742252  -0.411797  0.729169
C    -1.466188  -1.569517  0.011103
C    -2.494418  -2.336425  0.859472
C    -3.500998  -3.161058  0.064279
N    -2.861283  -4.340002  -0.667674
H    -0.249522  0.202839  -0.037097
H    -1.471503  0.245109  1.227733
H    -0.709247  -2.252748  -0.411003
H    -1.982677  -1.116011  -0.850320
H    -3.107879  -1.619238  1.426659
H    -2.003239  -2.963272  1.619542
H    -4.003853  -2.568535  -0.710765
H    -4.265567  -3.599442  0.716371
H    -2.391940  -4.979465  -0.010962
H    -3.569282  -4.887682  -1.177748
O    2.417842  0.454271  1.689492
H    -0.826445  -0.848879  3.479458
Cd    2.715181  2.551741  2.558022
