25
Energy: -167644.753334 eV PBE+vdW (tier 2 basis)
N    0.174493  -0.469475  -0.038859
C    -0.087420  -0.162638  1.433592
C    1.277852  0.204735  2.054283
O    1.332297  0.372591  3.303960
H    0.278116  -1.481295  -0.199737
H    -0.572658  -0.125595  -0.655099
H    -0.687531  0.760564  1.449582
C    -0.828960  -1.295759  2.145824
C    -2.247316  -1.539556  1.603517
C    -3.005546  -2.687580  2.292259
C    -3.468514  -2.376504  3.734825
N    -4.286032  -3.417413  4.265767
H    -0.854920  -1.011074  3.206584
H    -0.225420  -2.217931  2.093670
H    -2.207259  -1.792462  0.530853
H    -2.834083  -0.609100  1.675064
H    -2.395498  -3.602904  2.308495
H    -3.892566  -2.917864  1.684265
H    -4.037093  -1.419088  3.712665
H    -2.624575  -2.223164  4.420297
H    -5.117769  -3.725506  3.769227
H    -4.226960  -3.682438  5.243596
O    2.259404  0.356779  1.264258
H    1.079224  -0.020636  -0.288751
Cd    3.542819  0.962223  3.165860
