25
Energy: -167645.667583 eV PBE+vdW (tier 2 basis)
N    0.184824  0.195036  -0.141671
C    -0.222092  0.385461  1.188324
C    0.986651  1.062165  2.072122
O    0.798727  2.252608  2.428479
H    -4.804258  -2.055013  1.065498
H    0.177339  0.993739  -0.769353
H    -1.013922  1.142949  1.222590
C    -0.638897  -0.907518  1.908804
C    -1.914660  -1.526821  1.310424
C    -2.286686  -2.840989  2.016539
C    -3.410157  -3.644718  1.372581
N    -4.776825  -2.977866  1.519752
H    -0.791262  -0.683951  2.974987
H    0.192816  -1.626709  1.856423
H    -1.755477  -1.712934  0.237340
H    -2.734408  -0.791121  1.384313
H    -2.512916  -2.668090  3.081844
H    -1.416055  -3.514828  2.013223
H    -3.513987  -4.631054  1.839935
H    -3.259991  -3.785448  0.294688
H    -5.518117  -3.552564  1.093710
H    -5.022217  -2.844656  2.511200
O    2.010250  0.377359  2.301687
H    0.931057  -0.470932  -0.328310
Cd    2.907260  2.263895  3.335872
