25
Energy: -167644.363048 eV PBE+vdW (tier 2 basis)
N    0.490034  0.605821  1.002575
C    -0.224879  0.136877  2.216082
C    0.792024  -0.039215  3.358059
O    1.971457  -0.352709  3.150108
H    -0.109437  0.522343  0.175686
H    0.746089  1.596111  1.081558
H    -0.971761  0.889403  2.515746
C    -0.972058  -1.203726  1.954364
C    -0.115552  -2.454714  1.700687
C    -0.892063  -3.669097  1.179155
C    -1.906501  -4.266417  2.242870
N    -2.517543  -5.451980  1.770807
H    -1.654783  -1.027703  1.108034
H    -1.619896  -1.385091  2.824047
H    0.451092  -2.732612  2.602318
H    0.656416  -2.263779  0.896479
H    -0.184524  -4.466615  0.919615
H    -1.450991  -3.416478  0.267137
H    -2.686944  -3.522359  2.456057
H    -1.355086  -4.482648  3.168572
H    -2.064106  -6.354671  1.875211
H    -3.316042  -5.421000  1.144289
O    0.391440  0.071396  4.601902
H    -0.527699  0.392168  4.697110
Cd    2.434702  -0.714517  0.957648
