25
Energy: -167644.279731 eV PBE+vdW (tier 2 basis)
N    0.452470  -0.864633  -0.407606
C    0.133185  -0.409050  0.971202
C    1.331158  -0.686753  1.894784
O    2.109186  -1.634423  1.726475
H    0.922397  -0.130179  -0.948088
H    -0.406358  -1.100629  -0.914900
H    -0.052242  0.677268  0.955784
C    -1.119968  -1.167447  1.484918
C    -1.645944  -0.833843  2.891468
C    -2.216287  0.581687  3.065613
C    -2.912707  0.744376  4.435704
N    -3.481085  2.040089  4.619921
H    -0.900240  -2.247466  1.443673
H    -1.918424  -0.979006  0.749306
H    -0.878452  -1.040085  3.653883
H    -2.444891  -1.563344  3.090744
H    -2.941694  0.793534  2.263948
H    -1.439183  1.361539  2.991358
H    -2.218300  0.546818  5.263946
H    -3.705749  -0.034897  4.507601
H    -4.151401  2.406637  3.948461
H    -3.530897  2.445733  5.550365
O    1.511002  0.071987  2.950715
H    0.889070  0.825082  2.990993
Cd    1.918066  -2.721767  -0.240172
