25
Energy: -167645.923362 eV PBE+vdW (tier 2 basis)
N    0.463511  0.454780  0.401529
C    -0.571554  0.044503  1.439396
C    0.154303  -0.395201  2.703207
O    -0.542638  -0.571243  3.739224
H    0.074383  0.442439  -0.552203
H    0.822480  1.404504  0.580068
H    -1.213949  0.913817  1.622416
C    -1.424130  -1.167572  0.981879
C    -0.703055  -2.541609  0.902529
C    -1.430603  -3.719413  1.587466
C    -1.560069  -3.762359  3.111574
N    -0.261525  -4.054644  3.862098
H    -1.887983  -0.915864  0.016395
H    -2.255985  -1.199735  1.698638
H    0.331254  -2.472389  1.275029
H    -0.589311  -2.821595  -0.152988
H    -0.965915  -4.657445  1.244023
H    -2.462248  -3.768071  1.205686
H    -2.251564  -4.575310  3.372962
H    -1.980817  -2.837863  3.527722
H    -0.497482  -4.512811  4.749674
H    0.290806  -4.746770  3.341262
O    1.366989  -0.787354  2.588276
H    1.274042  -0.185883  0.453749
Cd    0.908682  -2.212218  4.292531
