25
Energy: -167645.452874 eV PBE+vdW (tier 2 basis)
N    -0.775021  -1.198201  0.785611
C    0.305280  -0.668783  1.512540
C    1.667514  -0.544971  0.600924
O    2.156096  0.609281  0.495560
H    -2.899281  0.600647  6.032878
H    -1.217500  -0.603443  0.090204
H    0.097460  0.376275  1.772980
C    0.714042  -1.513079  2.733314
C    -0.382669  -1.772801  3.781490
C    -0.854315  -0.584267  4.652149
C    -2.104811  0.110212  4.122905
N    -2.657559  1.088001  5.157324
H    1.583735  -1.036696  3.209922
H    1.063383  -2.489714  2.367131
H    0.035132  -2.525077  4.463383
H    -1.248343  -2.256034  3.305419
H    -0.038833  0.144900  4.783892
H    -1.080904  -0.979096  5.655256
H    -2.914692  -0.602849  3.924931
H    -1.933333  0.697921  3.213405
H    -3.509243  1.560811  4.822305
H    -1.970402  1.817061  5.396711
O    2.125987  -1.585068  0.074089
H    -0.705564  -2.169598  0.487173
Cd    3.783843  -0.276434  -0.867497
