25
Energy: -167644.295886 eV PBE+vdW (tier 2 basis)
N    0.984337  0.185361  0.041578
C    1.396250  -0.569723  1.252085
C    2.471250  -1.611979  0.890529
O    2.595732  -2.097943  -0.242000
H    0.008199  0.486255  0.123922
H    1.545115  1.034543  -0.083194
H    1.841695  0.131334  1.977262
C    0.189153  -1.310230  1.882514
C    -0.868687  -0.416392  2.555161
C    -0.432766  0.201108  3.891699
C    -1.569044  0.966345  4.602606
N    -2.615812  0.116367  5.079923
H    0.569149  -2.036514  2.616342
H    -0.284518  -1.916317  1.091635
H    -1.754361  -1.046741  2.722724
H    -1.213037  0.379386  1.871115
H    0.394975  0.914267  3.757557
H    -0.057582  -0.586955  4.564590
H    -2.010120  1.730548  3.947761
H    -1.110573  1.519982  5.452724
H    -2.393968  -0.628514  5.737181
H    -3.558979  0.486709  5.163767
O    3.263210  -2.062595  1.832691
H    3.146616  -1.619365  2.696379
Cd    1.328110  -1.201320  -1.856389
