25
Energy: -167645.491542 eV PBE+vdW (tier 2 basis)
N    -1.323301  1.362731  3.095651
C    -1.031341  0.242303  2.313510
C    0.617640  0.045213  2.282882
O    1.082099  -0.744457  3.140407
H    -4.216798  -2.577327  -1.698806
H    -1.292246  1.294544  4.108069
H    -1.371150  -0.661488  2.832968
C    -1.564645  0.359205  0.876586
C    -1.511093  -0.918528  0.022119
C    -2.534147  -1.991241  0.435597
C    -2.601582  -3.218189  -0.468150
N    -3.250760  -2.915260  -1.817241
H    -1.015423  1.161726  0.365745
H    -2.608267  0.696514  0.966319
H    -0.496978  -1.349566  0.024724
H    -1.688759  -0.595712  -1.017127
H    -3.539837  -1.548354  0.531542
H    -2.297010  -2.383361  1.435828
H    -3.211118  -4.012978  -0.022607
H    -1.610043  -3.628844  -0.697162
H    -2.733269  -2.195809  -2.340721
H    -3.290499  -3.757465  -2.409280
O    1.279588  0.740796  1.480072
H    -1.182322  2.294732  2.715154
Cd    3.207264  -0.051186  2.542921
