25
Energy: -167644.707802 eV PBE+vdW (tier 2 basis)
N    0.413248  -0.209818  -0.400759
C    -0.079706  -0.045333  1.032797
C    1.149039  0.349189  1.883831
O    1.016585  0.369825  3.138402
H    -0.296913  0.065798  -1.091691
H    0.682913  -1.185782  -0.590025
H    -0.727815  0.844384  1.028084
C    -0.871210  -1.257580  1.529798
C    -0.096637  -2.583676  1.580920
C    -0.819387  -3.713553  2.334289
C    -2.097446  -4.237120  1.637535
N    -2.703278  -5.309074  2.355653
H    -1.776445  -1.345583  0.908197
H    -1.220903  -0.988638  2.536953
H    0.865753  -2.425553  2.093388
H    0.148780  -2.943834  0.565298
H    -1.067640  -3.373635  3.351813
H    -0.128817  -4.560241  2.444985
H    -1.876635  -4.584512  0.618966
H    -2.823066  -3.398376  1.537655
H    -2.969276  -5.200649  3.330128
H    -3.096478  -6.108371  1.869623
O    2.203982  0.687774  1.265005
H    1.265187  0.372849  -0.513847
Cd    3.133645  1.223375  3.376184
