25
Energy: -167644.228609 eV PBE+vdW (tier 2 basis)
N    0.502143  0.760423  -0.151817
C    0.885366  0.287832  1.209858
C    2.350733  -0.201399  1.198731
O    3.146832  0.028603  0.276268
H    0.010387  0.016152  -0.659730
H    -0.151558  1.546660  -0.088958
H    0.892282  1.179369  1.859918
C    -0.133970  -0.754332  1.764236
C    -0.549003  -0.615938  3.247059
C    0.477144  -1.031168  4.302005
C    -0.145123  -1.191010  5.739270
N    -0.616438  0.027486  6.306498
H    0.217846  -1.774781  1.545953
H    -1.057753  -0.629187  1.180228
H    -1.438545  -1.254747  3.356734
H    -0.893108  0.411183  3.444299
H    1.295721  -0.294987  4.402628
H    0.906066  -2.023208  4.071407
H    0.649611  -1.623757  6.371471
H    -0.969600  -1.912392  5.683840
H    -1.593939  0.128800  6.560030
H    0.024512  0.634516  6.809235
O    2.804556  -0.867944  2.227296
H    2.130332  -1.020519  2.929191
Cd    2.418431  1.269604  -1.433871
