25
Energy: -167644.759184 eV PBE+vdW (tier 2 basis)
N    -0.634415  -0.138585  -0.069284
C    -0.059702  -0.337409  1.271913
C    1.488120  -0.459933  1.337498
O    2.188300  -0.807922  0.375374
H    -2.366800  -0.675898  -0.210351
H    -0.635369  0.871308  -0.272655
H    -0.306103  0.553058  1.878598
C    -0.646735  -1.621346  1.934319
C    -1.828930  -1.377251  2.888668
C    -3.103016  -0.710261  2.346217
C    -3.804270  -1.442819  1.198619
N    -3.420735  -0.859871  -0.151280
H    0.128876  -2.150375  2.506342
H    -0.918050  -2.310363  1.117797
H    -1.479214  -0.782985  3.746602
H    -2.100338  -2.355867  3.312931
H    -2.925206  0.341620  2.063835
H    -3.814324  -0.648856  3.180903
H    -4.894769  -1.364745  1.268330
H    -3.548449  -2.509267  1.167946
H    -3.713702  -1.473958  -0.921669
H    -3.894755  0.041530  -0.293098
O    2.095277  -0.254200  2.480380
H    1.497919  0.044472  3.194624
Cd    0.899772  -0.853958  -1.448833
