25
Energy: -167645.962259 eV PBE+vdW (tier 2 basis)
N    0.336661  0.050415  -0.137595
C    -0.159812  0.113002  1.302015
C    0.446041  -1.075075  2.051076
O    0.340686  -2.217812  1.506558
H    -0.196572  0.690225  -0.745574
H    1.333364  0.302235  -0.217095
H    0.184958  1.062144  1.728703
C    -1.702422  -0.009011  1.290400
C    -2.460075  0.107471  2.634827
C    -2.270535  -0.957756  3.737616
C    -2.572005  -2.414259  3.351930
N    -1.753708  -3.391092  4.172324
H    -1.962585  -0.948291  0.777103
H    -2.082125  0.808818  0.657110
H    -3.524804  0.151326  2.363921
H    -2.237545  1.084054  3.087732
H    -2.923366  -0.668617  4.573016
H    -1.251394  -0.876883  4.145709
H    -2.346162  -2.629533  2.299822
H    -3.633602  -2.652701  3.509106
H    -2.048067  -4.353565  3.969751
H    -1.933991  -3.249762  5.173703
O    0.866814  -0.893459  3.233714
H    0.225250  -0.912720  -0.497878
Cd    0.394998  -3.038154  3.670002
