25
Energy: -167644.671295 eV PBE+vdW (tier 2 basis)
N    1.110864  -0.931659  0.361433
C    0.457536  -0.703973  1.720439
C    1.537893  -0.977769  2.783945
O    1.301560  -0.591762  3.964592
H    0.403019  -1.130279  -0.360986
H    1.663652  -0.118978  0.054855
H    0.174589  0.355953  1.774095
C    -0.769021  -1.609269  1.922308
C    -2.059323  -1.188812  1.193485
C    -2.098832  -1.380622  -0.329901
C    -3.529432  -1.150525  -0.887018
N    -3.614254  -1.342175  -2.301434
H    -0.972804  -1.591384  3.001911
H    -0.497343  -2.651223  1.683325
H    -2.297745  -0.144684  1.449345
H    -2.864105  -1.792615  1.638701
H    -1.775391  -2.399993  -0.599376
H    -1.446218  -0.663804  -0.861753
H    -3.869928  -0.135167  -0.648524
H    -4.208124  -1.851977  -0.358038
H    -3.510925  -2.275680  -2.690337
H    -4.178371  -0.708384  -2.859394
O    2.586435  -1.593591  2.424950
H    1.769795  -1.726235  0.445250
Cd    3.278730  -1.441878  4.686511
