25
Energy: -167645.418464 eV PBE+vdW (tier 2 basis)
N    -0.953930  0.668737  -0.135931
C    -0.482270  0.120584  1.188856
C    1.027328  0.396436  1.430392
O    1.588945  1.490276  0.951299
H    -0.758085  -0.000533  -0.889848
H    -1.970400  0.801969  -0.130126
H    -1.008673  0.712558  1.956340
C    -0.868186  -1.367432  1.344612
C    -0.826827  -1.905879  2.800786
C    0.257281  -2.972715  3.028634
C    0.317338  -3.388032  4.493305
N    1.411690  -4.422935  4.725372
H    -0.221023  -1.971947  0.691277
H    -1.890991  -1.481064  0.960289
H    -1.810928  -2.327732  3.047041
H    -0.666314  -1.074908  3.502838
H    1.229407  -2.559212  2.719909
H    0.044970  -3.852590  2.399701
H    -0.615047  -3.849122  4.842972
H    0.557576  -2.544175  5.152251
H    2.335950  -4.053995  4.458884
H    1.463105  -4.705443  5.714623
O    1.680681  -0.367555  2.123187
H    1.248814  -5.274083  4.168611
Cd    0.380585  2.522788  -0.407277
