25
Energy: -167645.394881 eV PBE+vdW (tier 2 basis)
N    0.635040  0.471331  -0.679768
C    -0.031671  0.187550  0.521305
C    1.069771  0.076353  1.736046
O    1.193113  1.105206  2.447468
H    -2.891487  -2.535391  -1.029776
H    0.926426  1.427004  -0.863235
H    -0.642401  1.050652  0.812118
C    -0.874620  -1.100662  0.466179
C    -1.682449  -1.368396  1.741215
C    -2.521808  -2.659161  1.760077
C    -3.789617  -2.693964  0.906303
N    -3.545409  -3.153341  -0.531302
H    -0.215106  -1.951966  0.235088
H    -1.538522  -0.943533  -0.401718
H    -2.339903  -0.510447  1.953385
H    -0.993289  -1.436768  2.595688
H    -2.868747  -2.810497  2.792210
H    -1.895018  -3.541346  1.545068
H    -4.277778  -1.713775  0.833642
H    -4.517197  -3.408364  1.308675
H    -3.149715  -4.104097  -0.552026
H    -4.424310  -3.175355  -1.069113
O    1.748582  -0.972720  1.835945
H    1.230232  -0.239732  -1.096674
Cd    2.969884  0.127421  3.507197
