25
Energy: -167644.68404 eV PBE+vdW (tier 2 basis)
N    0.588262  -1.508872  -0.233599
C    0.118203  -0.454902  0.764256
C    1.360326  0.353002  1.193260
O    1.230786  1.182030  2.136635
H    0.835420  -2.385554  0.249104
H    -0.132424  -1.724104  -0.935348
H    -0.501300  0.248960  0.187603
C    -0.714079  -1.064587  1.898019
C    0.035186  -2.018976  2.836462
C    -0.854945  -2.748446  3.861288
C    -1.490829  -1.859947  4.945456
N    -2.617887  -1.094209  4.488167
H    -1.578929  -1.572191  1.439895
H    -1.131669  -0.219190  2.462297
H    0.829845  -1.472612  3.368305
H    0.546804  -2.814568  2.263269
H    -0.235749  -3.494530  4.376529
H    -1.642685  -3.319480  3.344404
H    -0.754770  -1.172604  5.386634
H    -1.803720  -2.536394  5.772331
H    -3.414924  -1.608079  4.116048
H    -2.889991  -0.280210  5.035164
O    2.430671  0.181015  0.531611
H    1.445638  -1.163507  -0.702552
Cd    3.387505  1.895450  1.816562
