25
Energy: -167644.278766 eV PBE+vdW (tier 2 basis)
N    0.189820  0.323928  0.190661
C    0.031474  0.234801  1.666557
C    1.408148  0.404517  2.339263
O    2.465470  0.039174  1.808743
H    -0.553815  -0.198144  -0.282800
H    0.120101  1.294290  -0.134782
H    -0.621657  1.055181  2.007955
C    -0.599901  -1.128529  2.051976
C    -0.853938  -1.335643  3.555041
C    -1.541840  -2.668092  3.904407
C    -3.048456  -2.725858  3.583735
N    -3.647960  -3.933960  4.045409
H    0.048227  -1.937008  1.673356
H    -1.547917  -1.190630  1.494957
H    -1.454342  -0.499730  3.952550
H    0.103303  -1.323427  4.095964
H    -1.410643  -2.835671  4.983487
H    -1.037732  -3.505945  3.399901
H    -3.261435  -2.630517  2.508814
H    -3.540754  -1.849747  4.069170
H    -3.461000  -4.277727  4.984295
H    -4.474400  -4.311087  3.590826
O    1.475949  0.909289  3.547421
H    0.612906  1.208483  3.896515
Cd    2.350789  -0.487126  -0.379446
