25
Energy: -167644.179504 eV PBE+vdW (tier 2 basis)
N    1.783476  0.780810  1.584963
C    1.196604  -0.216929  2.499934
C    2.290324  -1.142209  3.046975
O    3.378406  -1.323387  2.472382
H    1.095407  1.093421  0.891494
H    2.117073  1.614203  2.081845
H    0.681297  0.317028  3.360119
C    0.089598  -1.013970  1.771541
C    -0.672877  -2.086919  2.576367
C    -1.291603  -1.710951  3.940029
C    -1.968944  -0.335419  4.042327
N    -1.002955  0.726362  4.346242
H    0.516394  -1.496902  0.875950
H    -0.624321  -0.257448  1.408561
H    -0.041797  -2.978393  2.708319
H    -1.487279  -2.415539  1.915591
H    -0.567909  -1.791472  4.776855
H    -2.031827  -2.485619  4.180069
H    -2.740012  -0.376326  4.832389
H    -2.493836  -0.080332  3.112007
H    -1.334539  1.661774  4.103386
H    -0.714919  0.730947  5.327435
O    2.068395  -1.817312  4.141147
H    1.177785  -1.645425  4.518603
Cd    3.663276  -0.176556  0.586274
