25
Energy: -167645.499424 eV PBE+vdW (tier 2 basis)
N    1.806321  -0.241496  0.689617
C    0.508647  -0.157787  1.450083
C    0.661881  -0.539835  2.953062
O    1.795356  -0.340847  3.574039
H    1.966690  -1.193607  0.340487
H    1.781795  0.368452  -0.134173
H    0.246380  0.913280  1.466354
C    -0.641216  -0.928552  0.776159
C    -0.505713  -2.468244  0.762543
C    -1.847935  -3.223321  0.889315
C    -2.270603  -3.629700  2.298849
N    -2.604905  -2.461437  3.209831
H    -0.763415  -0.548837  -0.248232
H    -1.553152  -0.610531  1.297750
H    0.166950  -2.811139  1.565870
H    -0.034066  -2.780942  -0.178694
H    -1.778334  -4.170829  0.336665
H    -2.655534  -2.663391  0.391147
H    -1.477536  -4.189649  2.810628
H    -3.164735  -4.263432  2.263806
H    -3.392426  -1.912812  2.841867
H    -2.881807  -2.796043  4.142452
O    -0.313038  -0.967312  3.568194
H    -1.775986  -1.823183  3.336743
Cd    3.351071  0.257414  2.297273
