25
Energy: -167643.985102 eV PBE+vdW (tier 2 basis)
N    -0.859996  -0.070749  0.097000
C    -0.222585  0.130030  1.354631
C    1.335577  -0.144385  1.248908
O    2.117302  0.807988  1.254954
H    -0.738066  0.637856  -0.622008
H    -0.935846  -1.015185  -0.272415
H    -0.279225  1.194200  1.615277
C    -0.816413  -0.726661  2.483504
C    -2.211965  -0.247731  2.953209
C    -3.357100  -0.538849  1.989871
C    -4.760184  -0.220257  2.697283
N    -5.876455  -0.527828  1.898221
H    -0.140383  -0.697208  3.351065
H    -0.873761  -1.783571  2.164938
H    -2.170683  0.827171  3.187014
H    -2.390985  -0.756846  3.912656
H    -3.368927  -1.596070  1.688206
H    -3.315054  0.078611  1.083467
H    -4.763186  0.849045  2.949859
H    -4.794363  -0.822825  3.616444
H    -6.286115  -1.457541  1.892659
H    -6.278524  0.149306  1.256403
O    1.798157  -1.371600  1.104122
H    1.108325  -2.061255  1.176434
Cd    4.448648  0.686781  0.995246
