25
Energy: -167644.70493 eV PBE+vdW (tier 2 basis)
N    -1.464115  0.456584  0.079315
C    -0.808580  0.210273  1.436936
C    0.663900  0.644736  1.283117
O    1.349616  0.793107  2.333752
H    -2.172031  -0.255830  -0.143962
H    -1.916479  1.379588  0.027323
H    -1.290841  0.878430  2.162470
C    -0.996573  -1.258808  1.862136
C    -0.528448  -1.545567  3.299805
C    -1.096320  -2.834946  3.913807
C    -0.538954  -4.151560  3.269375
N    -0.980780  -5.325762  3.939765
H    -0.495208  -1.916413  1.134686
H    -2.078793  -1.466074  1.798899
H    -0.849978  -0.717671  3.951537
H    0.569277  -1.557569  3.348485
H    -2.194569  -2.849014  3.852310
H    -0.839099  -2.849761  4.981284
H    0.560767  -4.114428  3.306515
H    -0.853367  -4.213680  2.217319
H    -1.868954  -5.761946  3.713230
H    -0.530453  -5.641747  4.793409
O    1.100066  0.829109  0.106606
H    -0.705247  0.442736  -0.632796
Cd    3.176317  1.441341  1.107824
