25
Energy: -167644.235818 eV PBE+vdW (tier 2 basis)
N    2.968401  0.512729  1.710231
C    1.871617  0.246850  2.681098
C    2.447601  -0.251474  4.026826
O    3.655950  -0.286610  4.291605
H    2.772249  1.360217  1.170555
H    3.043991  -0.254504  1.034337
H    1.417840  1.222966  2.921532
C    0.767998  -0.680716  2.109148
C    1.205607  -2.126424  1.819921
C    0.047896  -3.088977  1.500241
C    -0.661674  -2.834710  0.151088
N    -1.628439  -3.840159  -0.141673
H    0.373875  -0.187310  1.208657
H    -0.082275  -0.681842  2.812075
H    1.729468  -2.537589  2.697532
H    1.932777  -2.156617  0.990153
H    -0.704765  -3.058244  2.302328
H    0.452734  -4.111542  1.495929
H    0.115755  -2.813693  -0.647988
H    -1.165910  -1.859394  0.118151
H    -2.490377  -3.613048  -0.627971
H    -1.382471  -4.826000  -0.102368
O    1.615200  -0.626853  4.968574
H    0.675307  -0.568519  4.707127
Cd    5.066837  0.638691  2.815687
