25
Energy: -167644.707745 eV PBE+vdW (tier 2 basis)
N    -1.188510  0.014712  0.300712
C    0.035824  0.188409  1.098321
C    1.381032  0.030796  0.325306
O    1.456179  -0.099486  -0.905630
H    -1.537119  -0.939936  0.466479
H    -2.415988  1.066907  1.120377
H    0.074490  1.256802  1.393671
C    0.023149  -0.696811  2.373610
C    -1.286227  -0.682649  3.180689
C    -1.763144  0.687476  3.725406
C    -3.099670  1.177374  3.179317
N    -2.995256  1.708626  1.755925
H    0.835691  -0.369039  3.043368
H    0.255360  -1.735944  2.093423
H    -1.127508  -1.364665  4.025827
H    -2.092316  -1.158454  2.599981
H    -0.996343  1.471007  3.605401
H    -1.902172  0.610655  4.812097
H    -3.508219  1.995087  3.784718
H    -3.842613  0.370416  3.155514
H    -2.546819  2.633480  1.754177
H    -3.928545  1.831792  1.342361
O    2.510145  0.098274  0.985712
H    2.391964  0.163030  1.953865
Cd    -0.591449  -0.106129  -1.777658
