25
Energy: -167644.200769 eV PBE+vdW (tier 2 basis)
N    0.583804  -0.075098  0.080492
C    0.352200  -0.124337  1.548734
C    1.625642  -0.627664  2.252250
O    2.415164  -1.425443  1.728556
H    -0.300140  -0.184552  -0.426373
H    0.981391  0.825180  -0.209209
H    0.138876  0.894679  1.910753
C    -0.841502  -1.070506  1.853468
C    -1.241942  -1.246273  3.328467
C    -1.908037  -0.031611  4.007206
C    -3.415577  0.113992  3.717977
N    -4.195788  -0.923980  4.317445
H    -0.601523  -2.061264  1.433271
H    -1.696331  -0.684572  1.274812
H    -0.373559  -1.572085  3.919746
H    -1.937310  -2.097047  3.372096
H    -1.428277  0.919089  3.723577
H    -1.771592  -0.112901  5.095761
H    -3.637589  0.136441  2.640861
H    -3.735767  1.107170  4.107148
H    -4.101167  -1.105591  5.314796
H    -5.107591  -1.152557  3.930059
O    1.872180  -0.247591  3.482760
H    1.234687  0.411086  3.822480
Cd    2.130782  -1.785062  -0.471779
