27
Energy: -241750.468473 eV PBE+vdW (tier 2 basis)
C    0.941107  -0.942321  0.463945
C    0.325840  -0.322465  1.675832
O    0.911997  0.621450  2.293830
H    0.355791  -1.773803  0.058379
H    1.953923  -1.292457  0.700958
H    1.043793  -0.168139  -0.309880
N    -0.862876  -0.772958  2.090290
C    -1.655512  -0.200961  3.182504
C    -1.094998  -0.660471  4.547729
O    -0.167008  0.026564  5.086114
H    -1.288087  -1.567390  1.612518
H    -1.531095  0.890632  3.159674
C    -3.149573  -0.515242  2.948484
O    -3.202328  -1.953451  2.838018
C    -3.730892  0.186970  1.730539
H    -3.693027  -0.188778  3.852754
H    -4.097265  -2.229364  2.576486
H    -3.210611  -0.085466  0.803304
H    -3.689273  1.277686  1.850819
H    -4.789727  -0.079997  1.615442
N    -1.592358  -1.754896  5.087863
C    -1.183578  -2.335077  6.364533
H    -2.312834  -2.232412  4.529931
H    -0.580951  -3.236577  6.193741
H    -2.077935  -2.611716  6.933435
H    -0.601156  -1.604599  6.930838
Ba    1.648633  1.513238  4.423918
