27
Energy: -241750.095335 eV PBE+vdW (tier 2 basis)
C    -0.405221  -1.695613  0.171895
C    -0.676296  -1.091268  1.515029
O    -0.412388  -1.744019  2.564544
H    -0.655322  -1.040362  -0.668729
H    -0.983038  -2.626191  0.083639
H    0.655524  -1.971937  0.108035
N    -1.204421  0.145245  1.534763
C    -1.676231  1.019532  2.624518
C    -0.608456  1.424653  3.653558
O    0.056946  0.573124  4.317328
H    -1.357427  0.540970  0.611440
H    -1.963715  1.940166  2.102060
C    -3.016271  0.575845  3.296292
O    -3.399659  1.746998  4.007220
C    -2.992823  -0.647740  4.212760
H    -3.705107  0.374211  2.456614
H    -4.350608  1.723886  4.203670
H    -4.009469  -0.850720  4.574135
H    -2.385759  -0.440081  5.109313
H    -2.657201  -1.550672  3.684865
N    -0.452718  2.724789  3.845901
C    0.437282  3.321133  4.840730
H    -1.069644  3.354141  3.338764
H    0.732701  4.315884  4.494266
H    1.327397  2.697472  4.958907
H    -0.076507  3.414992  5.806769
Ba    0.368826  -1.774697  4.846668
