27
Energy: -241750.125731 eV PBE+vdW (tier 2 basis)
C    -0.594680  1.454858  0.283042
C    -0.458095  0.707676  1.569767
O    0.545126  -0.041361  1.771284
H    0.344323  1.972980  0.053667
H    -1.419588  2.174618  0.279989
H    -0.765262  0.722403  -0.519979
N    -1.425437  0.855336  2.485286
C    -1.674037  0.072486  3.711712
C    -0.648719  0.354343  4.819419
O    0.530652  -0.105738  4.756202
H    -2.209186  1.431368  2.191730
H    -2.656526  0.423773  4.054800
C    -1.846389  -1.449617  3.445148
O    -2.652887  -1.520352  2.286047
C    -2.442703  -2.155100  4.657008
H    -0.849293  -1.892944  3.227965
H    -3.148335  -2.355776  2.279861
H    -2.563384  -3.226684  4.449823
H    -3.430167  -1.743069  4.905820
H    -1.795785  -2.072519  5.541465
N    -1.069202  1.064758  5.856953
C    -0.265494  1.410210  7.029265
H    -2.026081  1.408206  5.836724
H    -0.878969  1.293302  7.928896
H    0.075908  2.451245  6.962163
H    0.598431  0.743839  7.085029
Ba    2.186777  -1.032238  3.206914
