27
Energy: -241749.476908 eV PBE+vdW (tier 2 basis)
C    0.642723  0.187653  0.103717
C    0.153377  -0.023944  1.495607
O    0.781632  -0.816956  2.294107
H    1.686029  0.529547  0.126188
H    0.036267  0.909884  -0.451398
H    0.629683  -0.774092  -0.428637
N    -0.931067  0.602367  1.908623
C    -1.576764  0.471883  3.210164
C    -2.937538  1.210393  2.979613
O    -2.972695  2.051044  2.079395
H    -1.442541  1.286981  1.320839
H    -1.738187  -0.591795  3.432661
C    -0.699647  1.088678  4.354153
O    -0.104178  -0.025384  5.147594
C    -1.373685  2.069987  5.291181
H    0.152798  1.586572  3.872361
H    -0.405031  0.093753  6.065581
H    -0.640572  2.492524  5.991025
H    -2.193311  1.613643  5.862134
H    -1.791994  2.909057  4.720329
N    -3.992960  0.910585  3.756106
C    -4.151969  -0.118881  4.774166
H    -4.824354  1.450845  3.517435
H    -3.205155  -0.636471  4.958057
H    -4.893153  -0.863810  4.456206
H    -4.489664  0.326011  5.719290
Ba    1.707473  -1.697470  4.246500
