27
Energy: -241749.322859 eV PBE+vdW (tier 2 basis)
C    0.097470  -0.923065  1.010094
C    -0.699286  -0.119840  1.995668
O    -0.488833  -0.077928  3.205185
H    0.368119  -1.883319  1.462170
H    1.035977  -0.390155  0.799195
H    -0.425148  -1.092459  0.061584
N    -1.759390  0.630419  1.495901
C    -2.367313  1.545183  2.426677
C    -3.015883  0.882991  3.652962
O    -3.048722  1.610931  4.711724
H    -1.888175  0.746409  0.495554
H    -1.555569  2.140546  2.888339
C    -3.306569  2.547586  1.720856
O    -3.489468  3.679710  2.665220
C    -4.649878  2.012969  1.266204
H    -2.740035  2.954290  0.868547
H    -3.979928  4.361638  2.172717
H    -5.232185  2.792986  0.757721
H    -5.243031  1.623751  2.103462
H    -4.511377  1.205937  0.534080
N    -3.595520  -0.301555  3.682582
C    -3.708116  -1.353973  2.668586
H    -3.930168  -0.554041  4.613314
H    -4.582770  -1.962268  2.918469
H    -2.815487  -1.992510  2.683080
H    -3.843786  -0.932249  1.672449
Ba    -2.869927  3.892014  5.249662
