27
Energy: -241749.564543 eV PBE+vdW (tier 2 basis)
C    0.248031  0.964630  0.029709
C    -0.128435  0.322690  1.332425
O    -0.072085  0.870145  2.420662
H    0.291900  0.264801  -0.812567
H    1.219048  1.460602  0.145238
H    -0.484351  1.751622  -0.198061
N    -0.558958  -1.024770  1.257794
C    -1.107205  -1.602701  2.462273
C    -0.320797  -2.804847  2.969724
O    -0.753305  -3.444297  3.994476
H    -0.834452  -1.388452  0.349212
H    -0.938875  -0.797178  3.212116
C    -2.635193  -1.831249  2.359393
O    -3.213764  -1.900828  3.735751
C    -3.072212  -3.044703  1.561802
H    -3.036832  -0.910390  1.916165
H    -4.004004  -1.334343  3.736743
H    -4.165561  -3.101862  1.499028
H    -2.692330  -3.981398  1.992706
H    -2.700461  -2.982237  0.529658
N    0.807423  -3.110350  2.368893
C    1.745811  -4.160194  2.754352
H    1.046517  -2.496941  1.586318
H    1.942733  -4.807345  1.891880
H    1.318337  -4.752239  3.566557
H    2.690031  -3.708633  3.083181
Ba    -2.404011  -3.399534  5.686568
