27
Energy: -241750.034025 eV PBE+vdW (tier 2 basis)
C    0.673705  0.171072  0.302332
C    0.412621  0.070251  1.770251
O    1.376809  0.071469  2.592781
H    -0.234215  0.292386  -0.297178
H    1.185786  -0.748465  -0.017553
H    1.356616  1.006388  0.104917
N    -0.862740  -0.024312  2.173396
C    -1.393465  -0.371918  3.505684
C    -1.179833  0.743569  4.535919
O    -0.038525  0.933968  5.060012
H    -1.545231  -0.085075  1.423350
H    -2.469855  -0.491017  3.338269
C    -0.900749  -1.750585  4.028036
O    -0.981186  -2.605366  2.904578
C    -1.734769  -2.213129  5.216858
H    0.160761  -1.661110  4.347441
H    -1.108442  -3.522899  3.196760
H    -1.379170  -3.188935  5.573340
H    -2.791936  -2.318137  4.937487
H    -1.662865  -1.518972  6.065872
N    -2.211364  1.491464  4.903911
C    -3.603436  1.441316  4.438026
H    -1.992508  2.185124  5.619235
H    -3.661058  1.532631  3.347530
H    -4.132409  2.292241  4.875885
H    -4.100748  0.521390  4.769170
Ba    2.355207  0.567650  4.726688
