27
Energy: -241750.177263 eV PBE+vdW (tier 2 basis)
C    0.739664  -0.873295  3.215819
C    -0.034064  -0.115807  2.183796
O    0.450697  0.083899  1.028873
H    1.747793  -0.452631  3.315197
H    0.860304  -1.907864  2.861931
H    0.256051  -0.892844  4.198013
N    -1.254409  0.329426  2.515708
C    -2.270627  0.886123  1.621086
C    -2.034450  2.395676  1.354390
O    -0.868406  2.772275  1.001848
H    -1.554159  0.161657  3.473084
H    -2.142814  0.408844  0.635177
C    -3.666919  0.450247  2.155719
O    -4.604785  1.057348  1.257092
C    -3.956915  0.803124  3.615922
H    -3.699627  -0.646062  2.036147
H    -5.483209  0.662385  1.387788
H    -3.828775  1.871025  3.833398
H    -3.344830  0.225100  4.324389
H    -4.994771  0.532867  3.850084
N    -3.047551  3.231894  1.439058
C    -2.975515  4.664419  1.160886
H    -3.971345  2.794486  1.555164
H    -3.219983  4.864879  0.108911
H    -1.971810  5.036329  1.381886
H    -3.703754  5.179892  1.794952
Ba    1.088208  2.049607  -0.242319
