27
Energy: -241749.587081 eV PBE+vdW (tier 2 basis)
C    -0.318241  -0.087911  0.000090
C    -0.555970  0.510779  1.355841
O    -0.170901  1.627151  1.699940
H    -0.524723  0.668552  -0.765818
H    -0.914495  -0.985665  -0.197115
H    0.746109  -0.348193  -0.088390
N    -1.265823  -0.258890  2.266542
C    -1.464390  0.219936  3.622622
C    -1.902968  1.697980  3.618693
O    -1.434198  2.532692  4.463905
H    -1.575994  -1.193812  2.020935
H    -2.319529  -0.338099  4.038436
C    -0.253654  -0.113359  4.546462
O    -0.585345  0.278645  5.938760
C    1.101931  0.477010  4.186092
H    -0.166391  -1.208633  4.542461
H    -0.760321  -0.519955  6.462225
H    1.076803  1.562322  4.004351
H    1.472761  0.050833  3.246996
H    1.836028  0.217058  4.960607
N    -2.895888  2.035053  2.816208
C    -3.425238  3.391599  2.679600
H    -3.204588  1.335642  2.145364
H    -3.681418  3.799648  3.662901
H    -4.328894  3.349632  2.066090
H    -2.686458  4.041980  2.193395
Ba    -0.197210  2.817004  6.445805
