27
Energy: -241749.204827 eV PBE+vdW (tier 2 basis)
C    -0.022037  0.540020  0.039840
C    -0.048417  0.357837  1.518958
O    1.035390  0.192496  2.172107
H    -1.011540  0.727688  -0.389567
H    0.398804  -0.367043  -0.418100
H    0.649368  1.369118  -0.218593
N    -1.221467  0.356478  2.158859
C    -1.391657  0.018257  3.573849
C    -2.510520  -1.045409  3.836534
O    -2.168685  -2.029299  4.478802
H    -2.056297  0.473732  1.589740
H    -0.515378  -0.581412  3.852276
C    -1.446900  1.241482  4.512111
O    -0.031821  1.689488  4.695208
C    -2.069890  0.970344  5.867327
H    -1.958035  2.070850  4.001861
H    -0.082339  2.499527  5.234334
H    -1.996168  1.858058  6.510009
H    -1.601159  0.117860  6.374501
H    -3.139211  0.748340  5.757299
N    -3.765735  -0.841925  3.372161
C    -4.332893  0.300519  2.667164
H    -4.388983  -1.624408  3.565250
H    -5.390495  0.395743  2.936081
H    -4.285610  0.185607  1.571839
H    -3.851322  1.240449  2.963985
Ba    2.266749  0.512005  4.167518
