27
Energy: -241748.85056 eV PBE+vdW (tier 2 basis)
C    -0.100159  -1.019799  0.657906
C    -0.737362  -0.045061  1.563969
O    0.004351  0.572484  2.437481
H    0.362042  -1.823069  1.249657
H    0.714620  -0.526314  0.109479
H    -0.813478  -1.452407  -0.050841
N    -2.034889  0.233749  1.548207
C    -2.597772  1.202553  2.453313
C    -3.001767  0.849452  3.761019
O    -3.378717  1.818519  4.571207
H    -2.599709  -0.244725  0.844976
H    -0.634605  1.190000  2.917758
C    -3.011109  2.505617  1.825521
O    -2.417951  3.679368  2.586868
C    -4.512868  2.745342  1.692148
H    -2.552656  2.547819  0.828389
H    -2.039648  4.294743  1.936829
H    -5.041773  2.617529  2.648185
H    -4.946707  2.005991  1.005580
H    -4.730304  3.738247  1.277278
N    -2.992542  -0.382442  4.312934
C    -2.921846  -1.687869  3.666133
H    -3.195362  -0.375269  5.307433
H    -1.896112  -1.964826  3.385547
H    -3.574191  -1.732247  2.785716
H    -3.281092  -2.436098  4.379084
Ba    -3.399390  4.085711  4.969223
