27
Energy: -241749.784083 eV PBE+vdW (tier 2 basis)
C    0.055619  -0.905617  0.783320
C    0.027052  -0.000674  1.971752
O    1.099723  0.462587  2.463990
H    0.171577  -0.322396  -0.143414
H    -0.839532  -1.529060  0.694519
H    0.941407  -1.547122  0.866933
N    -1.152921  0.342285  2.544316
C    -2.313303  0.738713  1.763235
C    -2.093094  2.214636  1.298857
O    -0.937569  2.748862  1.419924
H    -1.043143  0.839976  3.428455
H    -2.346951  0.128847  0.848281
C    -3.637027  0.460238  2.522201
O    -4.655161  0.739151  1.548920
C    -3.818538  1.253937  3.810520
H    -3.625927  -0.619054  2.748735
H    -5.529073  0.508633  1.906345
H    -3.799741  2.338245  3.636457
H    -3.058374  0.992108  4.560983
H    -4.785298  1.005755  4.267572
N    -3.124827  2.828372  0.763254
C    -3.139090  4.183187  0.219774
H    -4.003800  2.286480  0.784623
H    -3.592211  4.164152  -0.777996
H    -2.119355  4.568078  0.151501
H    -3.736992  4.839184  0.865306
Ba    1.414962  2.889659  2.105697
