27
Energy: -241749.539536 eV PBE+vdW (tier 2 basis)
C    0.126836  1.054563  0.000979
C    -0.066619  0.394875  1.332787
O    0.470384  0.793145  2.373190
H    -0.331889  2.052623  0.043177
H    -0.311977  0.501610  -0.836854
H    1.198621  1.203998  -0.174526
N    -0.890773  -0.711319  1.370566
C    -1.354763  -1.278358  2.630876
C    -0.301396  -2.160719  3.350867
O    -0.598611  -3.332339  3.794220
H    -1.242103  -1.085438  0.496171
H    -1.512177  -0.423642  3.313721
C    -2.729482  -1.949671  2.410300
O    -3.273852  -2.384850  3.716682
C    -2.766993  -3.134499  1.453640
H    -3.402134  -1.167180  2.033320
H    -3.958545  -1.753376  3.992480
H    -3.778897  -3.557147  1.416107
H    -2.035592  -3.916169  1.705447
H    -2.533316  -2.825879  0.426293
N    0.873750  -1.609562  3.526448
C    2.024454  -2.227110  4.175494
H    0.933963  -0.613359  3.191967
H    2.918920  -2.022966  3.576705
H    1.878822  -3.307041  4.259014
H    2.169374  -1.792625  5.173416
Ba    -2.323464  -4.579999  4.785852
