27
Energy: -241749.587977 eV PBE+vdW (tier 2 basis)
C    -0.425613  1.835218  0.116165
C    -0.353296  1.220213  1.472392
O    0.784250  0.888176  1.976334
H    0.211177  2.729023  0.080517
H    -1.446361  2.105084  -0.171616
H    -0.023893  1.123332  -0.619006
N    -1.463962  1.012289  2.152680
C    -1.606421  0.378994  3.459719
C    -3.154914  0.158873  3.549814
O    -3.875712  0.924276  2.909840
H    -2.390623  1.316907  1.802295
H    -1.078146  -0.586180  3.469356
C    -1.031390  1.271180  4.610886
O    0.306283  0.733934  5.005205
C    -1.886033  1.415064  5.853747
H    -0.835292  2.266367  4.189394
H    0.260765  0.577185  5.964994
H    -2.857857  1.855084  5.596056
H    -1.406217  2.098652  6.567423
H    -2.076995  0.452190  6.347342
N    -3.577346  -0.852403  4.323970
C    -4.993359  -1.167654  4.524089
H    -2.891329  -1.473120  4.739664
H    -5.236994  -1.151042  5.592898
H    -5.222155  -2.159067  4.115382
H    -5.590357  -0.415567  4.001848
Ba    2.478788  0.579990  3.547612
