27
Energy: -241750.029807 eV PBE+vdW (tier 2 basis)
C    -0.646803  -0.768897  0.024103
C    -0.503288  -0.794472  1.508902
O    0.632812  -0.966647  2.054454
H    -0.038983  0.054134  -0.377267
H    -1.682549  -0.642734  -0.306406
H    -0.243425  -1.699566  -0.396844
N    -1.593941  -0.631956  2.267992
C    -1.534401  -0.445397  3.720765
C    -1.059194  -1.717229  4.446417
O    0.113001  -1.707540  4.945250
H    -2.446175  -0.289226  1.822581
H    -0.753846  0.303405  3.930611
C    -2.862146  0.167079  4.232146
O    -3.085501  1.237328  3.315329
C    -2.746335  0.617225  5.681572
H    -3.675469  -0.572894  4.140445
H    -3.887383  1.723625  3.569646
H    -3.695015  1.055725  6.016070
H    -1.961211  1.375656  5.798184
H    -2.531663  -0.225973  6.353869
N    -1.805447  -2.808649  4.553695
C    -3.140960  -3.112905  4.031034
H    -1.363493  -3.549283  5.099246
H    -3.181080  -4.185230  3.812872
H    -3.331895  -2.568675  3.102927
H    -3.915886  -2.879170  4.771730
Ba    2.253096  -1.269727  3.832252
