25
Energy: -100716.012059 eV PBE+vdW (tier 2 basis)
N    -0.175120  0.674049  1.060661
C    -0.368443  -0.534894  1.928654
C    0.598112  -0.475589  3.072549
O    1.190882  0.589731  3.382679
H    0.378708  0.386648  0.243100
H    -1.089816  0.904906  0.656670
H    -1.403625  -0.484912  2.408063
C    -0.403789  -1.876191  1.170298
C    -1.397164  -1.932511  -0.006659
C    -2.844375  -1.464263  0.239568
C    -3.534453  -2.003095  1.498187
N    -3.196306  -1.187093  2.695806
H    -0.696520  -2.655419  1.895388
H    0.601376  -2.147356  0.809919
H    -1.415172  -2.980344  -0.339510
H    -0.987268  -1.378639  -0.866434
H    -3.429782  -1.759821  -0.642038
H    -2.912804  -0.360365  0.257148
H    -3.222448  -3.039792  1.689181
H    -4.621273  -2.034743  1.332912
H    -3.837020  -0.391982  2.750841
H    -3.372629  -1.724769  3.547279
O    0.802425  -1.513116  3.842541
H    0.338427  -2.312520  3.519766
Sr    1.087139  2.583024  2.318688
