25
Energy: -100717.126525 eV PBE+vdW (tier 2 basis)
N    2.545908  -0.585253  2.912577
C    1.392585  -1.095533  2.168546
C    1.719668  -1.095058  0.677159
O    1.639961  -0.011673  -0.019108
H    -3.370654  2.202239  4.735683
H    3.330832  -1.234050  2.920735
H    1.259990  -2.148796  2.453760
C    0.125919  -0.297653  2.529563
C    -0.213655  -0.486822  4.015668
C    -1.228080  0.503294  4.612356
C    -2.647882  0.304737  4.098924
N    -3.620878  1.209895  4.850329
H    -0.700313  -0.623813  1.878590
H    0.302604  0.766691  2.305624
H    0.718129  -0.378610  4.587207
H    -0.561774  -1.517027  4.193387
H    -0.900414  1.537194  4.413707
H    -1.223801  0.372266  5.706988
H    -3.006350  -0.720019  4.259422
H    -2.762730  0.554770  3.037330
H    -3.604030  1.008206  5.860500
H    -4.590423  1.091600  4.524937
O    2.175355  -2.172666  0.136415
H    2.860953  0.324181  2.574993
Sr    2.604083  -1.081099  -1.843290
