25
Energy: -100715.752761 eV PBE+vdW (tier 2 basis)
N    0.577599  0.578063  2.001446
C    -0.255055  -0.366813  2.826087
C    0.390670  -0.506547  4.199715
O    1.325193  0.243821  4.559314
H    1.112689  -0.001080  1.339761
H    -0.062950  1.087560  1.383318
H    -1.227517  0.126464  3.004295
C    -0.516340  -1.718566  2.123216
C    -1.195525  -1.563269  0.761192
C    -1.436991  -2.897395  0.047488
C    -1.745280  -2.678235  -1.441563
N    -0.615413  -2.012792  -2.105980
H    -1.157119  -2.341813  2.771935
H    0.438093  -2.263325  2.021439
H    -0.568917  -0.967455  0.074119
H    -2.149609  -1.023036  0.883467
H    -2.259176  -3.453461  0.521109
H    -0.538668  -3.531728  0.132463
H    -2.629823  -2.031977  -1.540713
H    -2.014452  -3.647281  -1.893053
H    -0.920042  -1.560948  -2.967403
H    0.091701  -2.696009  -2.380508
O    -0.032211  -1.397886  5.052197
H    -0.735507  -1.974251  4.686488
Sr    2.246978  1.995437  3.424160
