25
Energy: -100716.922539 eV PBE+vdW (tier 2 basis)
N    -1.286070  0.352766  2.730179
C    -0.380639  -0.697035  2.274461
C    1.020500  -0.094700  2.395944
O    1.838589  -0.560161  3.268107
H    -3.547977  -2.410390  -2.984873
H    -2.149189  0.000181  3.134020
H    -0.417195  -1.504541  3.018649
C    -0.617847  -1.309783  0.873240
C    -1.938229  -2.106777  0.781587
C    -3.154808  -1.333335  0.238287
C    -3.205846  -1.174969  -1.276661
N    -3.550600  -2.497195  -1.959179
H    0.223785  -1.982483  0.649449
H    -0.574645  -0.508227  0.117871
H    -2.198180  -2.493458  1.777782
H    -1.764524  -3.017618  0.182200
H    -3.174706  -0.317937  0.657392
H    -4.092438  -1.800868  0.581377
H    -2.247273  -0.856139  -1.705425
H    -3.981878  -0.468294  -1.592927
H    -2.877865  -3.234316  -1.704788
H    -4.485398  -2.824677  -1.676668
O    1.344619  0.923238  1.678320
H    -1.480642  1.060684  2.025412
Sr    3.213454  1.274035  3.016246
