25
Energy: -100716.986508 eV PBE+vdW (tier 2 basis)
N    2.487527  -2.045167  2.230435
C    1.087650  -1.984939  1.831285
C    1.018625  -1.910268  0.311999
O    0.075604  -1.282896  -0.297228
H    3.011769  -2.683005  1.631963
H    2.578910  -2.379530  3.189151
H    0.516697  -2.919585  2.053774
C    0.386371  -0.831928  2.579761
C    -1.148807  -0.876806  2.591141
C    -1.793727  -0.144429  3.783929
C    -1.527293  1.355069  3.791920
N    -2.222132  2.016507  4.978897
H    0.766860  0.122201  2.186802
H    0.754643  -0.900721  3.616237
H    -1.483437  -1.923056  2.653256
H    -1.555021  -0.487864  1.647012
H    -1.421589  -0.587324  4.723057
H    -2.881485  -0.318901  3.756357
H    -1.917674  1.853719  2.895792
H    -0.463313  1.600254  3.894553
H    -2.059633  3.032941  5.003873
H    -3.240273  1.863582  4.945938
O    1.915366  -2.534455  -0.368971
H    -1.885580  1.625423  5.870453
Sr    0.969939  -1.917820  -2.364387
