25
Energy: -100717.207958 eV PBE+vdW (tier 2 basis)
N    0.684362  -1.664369  2.576495
C    0.193738  -0.864281  1.459056
C    1.048908  -0.944892  0.184636
O    2.245679  -1.408701  0.229367
H    -0.620230  -0.792517  6.492312
H    0.729324  -2.652394  2.322061
H    -0.795734  -1.248082  1.159824
C    0.029083  0.625972  1.842419
C    -1.173618  1.002995  2.725862
C    -1.105496  0.695285  4.237799
C    -1.577667  -0.705152  4.597067
N    -1.569874  -0.901238  6.110358
H    -0.077523  1.196485  0.909653
H    0.964988  0.973093  2.311259
H    -2.096754  0.579314  2.298760
H    -1.290989  2.091297  2.636308
H    -1.736266  1.432738  4.759928
H    -0.074912  0.846569  4.598635
H    -0.909657  -1.466963  4.168824
H    -2.611214  -0.888312  4.277476
H    -1.906347  -1.836874  6.375360
H    -2.169097  -0.209119  6.582672
O    0.551459  -0.538378  -0.929918
H    1.642431  -1.393507  2.808400
Sr    2.488403  -1.083969  -2.067612
