25
Energy: -100717.453366 eV PBE+vdW (tier 2 basis)
N    -0.472533  -0.802937  0.265266
C    0.010950  -0.248912  1.557740
C    1.533079  -0.127396  1.573866
O    2.110542  0.297151  2.634832
H    -1.326354  -2.284385  0.285133
H    -1.092438  -0.125341  -0.182811
H    -0.337777  0.791653  1.671375
C    -0.515252  -1.037814  2.774730
C    -0.184554  -2.546803  2.735249
C    -1.397709  -3.490948  2.816038
C    -2.500859  -3.258227  1.787425
N    -1.947222  -3.184555  0.382988
H    -1.600205  -0.869118  2.819666
H    -0.112851  -0.573418  3.682949
H    0.481802  -2.801544  3.568942
H    0.396712  -2.780962  1.827148
H    -1.874133  -3.406908  3.803921
H    -1.047335  -4.532173  2.745531
H    -3.029552  -2.310210  1.947308
H    -3.244292  -4.062909  1.820042
H    -1.384146  -4.014645  0.162145
H    -2.704128  -3.139091  -0.309263
O    2.219473  -0.408596  0.524336
H    0.331858  -0.899985  -0.364113
Sr    4.177970  0.375965  1.584890
