25
Energy: -100717.171085 eV PBE+vdW (tier 2 basis)
N    0.147516  -0.591165  -0.299219
C    -0.248201  -0.033367  1.029185
C    0.978523  -0.084709  1.938831
O    1.875397  -0.921844  1.753931
H    0.628390  0.146514  -0.827039
H    -0.708828  -0.763008  -0.835214
H    -0.577759  1.013664  0.925900
C    -1.414296  -0.825409  1.685057
C    -1.147515  -2.290075  2.076413
C    -1.289815  -3.332338  0.950278
C    -0.694877  -4.702213  1.276196
N    0.803497  -4.632546  1.441417
H    -2.279267  -0.755843  1.006846
H    -1.712490  -0.266642  2.583529
H    -1.864128  -2.559833  2.864946
H    -0.164840  -2.365871  2.573875
H    -0.859725  -2.971725  -0.007307
H    -2.355230  -3.464444  0.711600
H    -0.906091  -5.398938  0.456071
H    -1.158946  -5.121292  2.179888
H    1.015928  -4.504068  2.436853
H    1.184931  -5.562407  1.239274
O    1.072736  0.712839  2.975257
H    0.352506  1.372292  3.031937
Sr    1.843745  -2.632226  0.118299
