25
Energy: -100716.227783 eV PBE+vdW (tier 2 basis)
N    0.615918  -0.522991  0.044745
C    0.033698  -0.185706  1.410158
C    1.212732  0.077856  2.355156
O    0.977490  0.263055  3.587311
H    0.062027  -0.129730  -0.726353
H    0.646466  -1.548753  -0.071230
H    -0.493286  0.774645  1.300495
C    -0.937253  -1.271975  1.883698
C    -0.326254  -2.678517  1.959492
C    -1.246716  -3.705079  2.637810
C    -2.550260  -4.002938  1.882867
N    -3.315817  -5.002448  2.608459
H    -1.819846  -1.255180  1.227955
H    -1.293029  -0.959411  2.875587
H    0.626696  -2.640120  2.514807
H    -0.082188  -3.061444  0.948203
H    -1.495294  -3.368789  3.655708
H    -0.683601  -4.643233  2.753569
H    -2.304430  -4.282910  0.835164
H    -3.172973  -3.096896  1.825538
H    -4.283109  -5.054192  2.295889
H    -2.912079  -5.935560  2.535614
O    2.398039  0.151683  1.868925
H    1.588533  -0.167818  0.001561
Sr    3.239877  0.718515  4.063228
