25
Energy: -100717.101164 eV PBE+vdW (tier 2 basis)
N    -0.094747  -3.045862  2.194259
C    -0.268186  -2.139322  1.066955
C    0.948723  -2.156986  0.154761
O    1.752120  -3.161602  0.186168
H    0.543234  -3.805025  1.956481
H    -0.982112  -3.467073  2.464603
H    -1.072411  -2.464985  0.370103
C    -0.665569  -0.722597  1.542364
C    0.363358  -0.082890  2.482069
C    -0.156011  1.136787  3.268084
C    -1.078566  0.737039  4.413221
N    -1.538531  1.963072  5.196075
H    -1.636452  -0.842734  2.048005
H    -0.848350  -0.080900  0.669529
H    1.232180  0.251437  1.897335
H    0.729464  -0.848562  3.183038
H    -0.680254  1.828570  2.587533
H    0.706176  1.685152  3.680248
H    -0.575988  0.085143  5.138513
H    -1.994546  0.238600  4.074570
H    -2.055503  2.618689  4.593208
H    -2.155119  1.708236  5.980406
O    1.133199  -1.214408  -0.701478
H    -0.735330  2.476735  5.585833
Sr    2.859219  -2.403510  -1.697880
