25
Energy: -100717.085026 eV PBE+vdW (tier 2 basis)
N    0.094891  1.755437  1.445444
C    1.145497  0.751550  1.571480
C    1.174774  -0.166899  0.359285
O    1.777207  -1.301960  0.418100
H    -2.410644  0.301748  6.000587
H    0.365141  2.619642  1.913891
H    2.167790  1.191391  1.528805
C    1.072206  0.009271  2.923312
C    -0.312361  -0.555003  3.261513
C    -0.380134  -1.069243  4.706283
C    -1.754691  -1.537827  5.162569
N    -2.727239  -0.366524  5.284110
H    1.363055  0.734263  3.699203
H    1.832287  -0.783516  2.940916
H    -0.571160  -1.374221  2.570872
H    -1.042035  0.252193  3.073348
H    -0.003562  -0.304377  5.406994
H    0.294031  -1.929516  4.833689
H    -1.725965  -2.006309  6.153303
H    -2.216660  -2.239355  4.456476
H    -3.672320  -0.679044  5.545150
H    -2.796201  0.146677  4.393806
O    0.682839  0.240661  -0.758021
H    -0.068769  1.982576  0.464514
Sr    1.680019  -1.516616  -1.890627
