25
Energy: -100717.246014 eV PBE+vdW (tier 2 basis)
N    0.836944  1.470420  1.987163
C    1.272534  0.087458  2.054300
C    2.116724  -0.398507  0.868608
O    2.798541  -1.484996  0.979048
H    -3.610296  0.392280  6.153977
H    1.603059  2.117601  2.167149
H    1.922414  -0.033518  2.936254
C    0.056136  -0.856431  2.237611
C    -0.676793  -0.575267  3.555676
C    -2.002176  -1.338268  3.676563
C    -2.711948  -1.170618  5.013283
N    -3.160164  0.272293  5.236272
H    0.392174  -1.902536  2.206086
H    -0.631007  -0.708052  1.388273
H    -0.830230  0.516717  3.606240
H    -0.019794  -0.845006  4.398893
H    -1.828814  -2.419771  3.566826
H    -2.686941  -1.066708  2.855639
H    -2.062248  -1.415433  5.863132
H    -3.620431  -1.780544  5.080045
H    -3.834853  0.566361  4.516415
H    -2.359337  0.917978  5.189618
O    2.151296  0.277795  -0.223218
H    0.467416  1.697146  1.062797
Sr    3.720795  -1.179391  -1.120650
