25
Energy: -100716.976581 eV PBE+vdW (tier 2 basis)
N    -1.349843  1.152286  3.338366
C    -0.862446  0.015381  2.568325
C    0.660701  0.023430  2.620221
O    1.372431  -0.403267  1.637463
H    -4.525519  -2.616873  -1.183246
H    -0.879898  1.215510  4.241079
H    -1.124855  -0.976382  3.012546
C    -1.438273  0.066738  1.136954
C    -1.606880  -1.288535  0.438450
C    -2.207880  -1.119202  -0.965446
C    -2.481870  -2.406426  -1.730743
N    -3.662336  -3.177039  -1.141490
H    -0.823950  0.736309  0.518298
H    -2.421463  0.553792  1.216124
H    -2.250918  -1.926185  1.072932
H    -0.637363  -1.803734  0.361089
H    -1.512836  -0.539992  -1.591831
H    -3.128304  -0.511676  -0.924990
H    -1.631014  -3.099145  -1.710140
H    -2.749877  -2.212921  -2.776057
H    -3.836039  -4.053923  -1.652052
H    -3.497299  -3.416649  -0.154302
O    1.235251  0.462229  3.684176
H    -2.350653  1.073096  3.514703
Sr    3.320131  0.269179  2.748570
