25
Energy: -100716.403435 eV PBE+vdW (tier 2 basis)
N    0.470754  -0.314380  0.210135
C    0.277610  0.059484  1.668555
C    1.642195  0.089734  2.340922
O    1.743100  0.608483  3.496731
H    -0.361295  -0.838351  -0.112715
H    0.596694  0.502336  -0.400765
H    -0.174185  1.059118  1.700042
C    -0.658207  -0.969249  2.342543
C    -2.005523  -1.136605  1.632656
C    -2.846591  0.134162  1.480881
C    -4.320130  -0.206770  1.181989
N    -4.869354  -1.029834  2.258363
H    -0.817022  -0.611555  3.369377
H    -0.137395  -1.937925  2.416729
H    -2.603187  -1.848901  2.225370
H    -1.887734  -1.644796  0.652705
H    -2.469710  0.799943  0.684390
H    -2.803947  0.713988  2.418657
H    -4.374559  -0.781882  0.245589
H    -4.870884  0.732200  1.003184
H    -5.232518  -0.456986  3.019718
H    -5.641651  -1.606833  1.930788
O    2.645651  -0.453863  1.751461
H    1.315456  -0.906208  0.127895
Sr    4.015465  0.046925  3.664001
