25
Energy: -100717.020228 eV PBE+vdW (tier 2 basis)
N    2.351362  -2.411072  2.395506
C    1.009322  -2.116320  1.890678
C    1.099985  -1.888222  0.381979
O    1.010942  -2.907984  -0.403035
H    3.024622  -1.672528  2.192303
H    2.713083  -3.303335  2.062755
H    0.402379  -3.021952  2.033266
C    0.402927  -0.962407  2.696982
C    -1.071400  -0.664658  2.383177
C    -1.847297  -0.021027  3.549015
C    -1.305838  1.341940  3.960450
N    -2.126075  1.918806  5.110343
H    1.023547  -0.063578  2.557927
H    0.515960  -1.267284  3.748776
H    -1.596248  -1.602147  2.146303
H    -1.157407  -0.030962  1.487130
H    -1.816800  -0.703340  4.414829
H    -2.904984  0.080504  3.257217
H    -1.361331  2.078039  3.148546
H    -0.272238  1.298328  4.324238
H    -1.779964  2.842799  5.404839
H    -3.115666  2.026199  4.845215
O    1.376462  -0.725876  -0.106787
H    -2.097972  1.299341  5.933015
Sr    1.661630  -1.666264  -2.219665
