25
Energy: -100716.164754 eV PBE+vdW (tier 2 basis)
N    0.189058  0.108429  0.565095
C    -0.138692  -0.476256  1.897257
C    1.140767  -0.544048  2.718100
O    2.236560  -0.717544  2.143956
H    -0.731946  0.144575  -0.008286
H    0.374198  1.109396  0.716709
H    -0.896866  0.134772  2.413723
C    -0.657143  -1.938271  1.772039
C    -1.761804  -2.161059  0.730731
C    -3.048316  -1.321601  0.895445
C    -3.390518  -0.525427  -0.363440
N    -2.354410  0.511001  -0.643274
H    -1.003146  -2.256389  2.766933
H    0.195345  -2.604044  1.537711
H    -2.006087  -3.231297  0.765798
H    -1.348921  -1.996049  -0.278111
H    -2.973679  -0.630852  1.751793
H    -3.894255  -1.978643  1.134266
H    -4.389084  -0.075944  -0.268555
H    -3.429134  -1.204083  -1.226522
H    -2.389954  0.764988  -1.633104
H    -2.610907  1.370404  -0.149317
O    1.130324  -0.501325  4.024414
H    0.243192  -0.338365  4.403419
Sr    2.406669  -0.899527  -0.165697
