25
Energy: -100716.137523 eV PBE+vdW (tier 2 basis)
N    -1.485990  0.440706  0.111550
C    -0.814823  0.241272  1.467702
C    0.666387  0.575079  1.275646
O    1.388273  0.809236  2.290674
H    -2.256751  -0.228603  -0.022577
H    -1.865061  1.389509  -0.008985
H    -1.259668  0.956580  2.171907
C    -1.057712  -1.203501  1.948838
C    -0.597619  -1.479969  3.388934
C    -1.129423  -2.814706  3.929415
C    -0.560733  -4.064198  3.246350
N    -1.149585  -5.258153  3.827201
H    -0.590688  -1.904624  1.238969
H    -2.147417  -1.372821  1.899301
H    -0.951239  -0.665729  4.039381
H    0.501200  -1.464009  3.445309
H    -2.227956  -2.842958  3.864654
H    -0.890995  -2.858036  5.002879
H    0.550368  -4.026717  3.300678
H    -0.818790  -4.067660  2.174613
H    -0.927580  -6.103441  3.305578
H    -0.876053  -5.401350  4.798649
O    1.144941  0.578952  0.083396
H    -0.764163  0.292034  -0.619414
Sr    3.332232  1.088235  0.982497
