25
Energy: -100717.534153 eV PBE+vdW (tier 2 basis)
N    0.579667  -0.153706  0.020443
C    0.032378  -0.096490  1.438080
C    1.204964  -0.382745  2.380366
O    1.174680  0.124910  3.538087
H    1.294101  -0.906394  -0.000640
H    -0.155209  -0.357459  -0.671439
H    -0.340256  0.918685  1.615439
C    -1.102913  -1.142537  1.587157
C    -1.388290  -1.596593  3.035432
C    -0.597291  -2.860985  3.434352
C    -0.479376  -3.139323  4.931247
N    0.454273  -2.188463  5.632130
H    -0.848111  -2.029342  0.983392
H    -2.007535  -0.704499  1.143993
H    -2.460151  -1.815336  3.120712
H    -1.200993  -0.759905  3.723590
H    0.410200  -2.853266  2.978047
H    -1.084921  -3.734112  2.975739
H    -0.079410  -4.150212  5.082228
H    -1.471684  -3.115670  5.405701
H    -0.027651  -1.287693  5.736676
H    0.556949  -2.521238  6.596976
O    2.100158  -1.204683  1.989854
H    1.040757  0.724058  -0.257528
Sr    2.659665  -1.541003  4.386967
