25
Energy: -100715.749583 eV PBE+vdW (tier 2 basis)
N    -0.452321  -1.032957  -0.242419
C    0.124727  -0.556175  1.060791
C    1.451434  0.129014  0.785597
O    2.075564  -0.074243  -0.281491
H    -1.026736  -1.857985  -0.034372
H    -1.132960  -0.336343  -0.567932
H    -0.556527  0.170669  1.529665
C    0.315607  -1.751134  2.035809
C    0.915844  -1.430109  3.408888
C    0.199588  -0.340969  4.218347
C    0.556950  -0.428952  5.718424
N    0.153302  -1.729536  6.242476
H    0.929413  -2.519370  1.533559
H    -0.689328  -2.181435  2.177157
H    1.993579  -1.216513  3.327113
H    0.843053  -2.347856  4.014224
H    -0.893123  -0.445455  4.108028
H    0.426148  0.696344  3.883423
H    0.102280  0.429396  6.240458
H    1.645604  -0.324655  5.833975
H    0.753412  -2.031805  7.006883
H    -0.801298  -1.715550  6.599020
O    1.986941  0.909971  1.676202
H    1.447481  0.960440  2.503317
Sr    1.411457  -1.337256  -2.061244
