25
Energy: -100715.636684 eV PBE+vdW (tier 2 basis)
N    1.322030  -0.548574  0.368145
C    1.013609  -0.820225  1.815309
C    1.922034  -1.960535  2.280706
O    2.921452  -2.298481  1.610161
H    0.615589  -1.059825  -0.178736
H    1.068789  0.430566  0.189170
H    1.361947  0.058346  2.389880
C    -0.488260  -1.022556  2.104490
C    -1.356203  0.240853  2.028460
C    -1.532050  0.909710  0.659562
C    -2.769768  1.836620  0.648983
N    -3.977575  1.068399  0.925605
H    -0.606736  -1.426911  3.125501
H    -0.875751  -1.807559  1.431921
H    -0.992408  0.976991  2.763768
H    -2.366816  -0.049877  2.355558
H    -1.672552  0.145481  -0.126020
H    -0.655990  1.522361  0.375070
H    -2.795236  2.380650  -0.310371
H    -2.647900  2.596350  1.434415
H    -4.676018  1.614976  1.424015
H    -4.415334  0.715359  0.076347
O    1.713938  -2.574422  3.409799
H    0.891751  -2.280673  3.856554
Sr    3.683313  -1.399158  -0.350574
