25
Energy: -100717.134063 eV PBE+vdW (tier 2 basis)
N    1.407447  -2.705624  2.417897
C    0.450593  -2.050335  1.552967
C    0.918041  -1.819585  0.109599
O    0.062331  -1.496103  -0.798140
H    2.340155  -2.302049  2.331689
H    1.485075  -3.702522  2.227150
H    -0.435719  -2.699864  1.457907
C    -0.030890  -0.714406  2.187850
C    -0.735197  -0.995736  3.522637
C    -0.942973  0.211160  4.452383
C    -1.984379  1.200516  3.947167
N    -2.253611  2.276614  4.996376
H    -0.687292  -0.193107  1.475821
H    0.852313  -0.074843  2.354193
H    -0.121397  -1.725113  4.068548
H    -1.704096  -1.486721  3.336768
H    0.017797  0.728103  4.612348
H    -1.264387  -0.173022  5.434531
H    -2.952157  0.720152  3.754838
H    -1.671517  1.733983  3.041494
H    -2.959010  2.957298  4.681842
H    -2.594697  1.856425  5.873032
O    2.154112  -1.983593  -0.202149
H    -1.395102  2.797449  5.224770
Sr    1.669559  -1.740078  -2.449518
