25
Energy: -100717.213367 eV PBE+vdW (tier 2 basis)
N    1.404124  0.281353  1.466666
C    0.862734  -1.058088  1.311591
C    1.103441  -1.707198  -0.062597
O    1.517186  -0.997865  -1.050100
H    2.423717  0.275206  1.470151
H    1.119154  0.884545  0.693208
H    1.375017  -1.723227  2.026710
C    -0.650484  -1.112979  1.638591
C    -0.996052  -0.833950  3.115209
C    -0.947540  0.648432  3.519909
C    -1.120505  0.920821  5.004136
N    -2.520605  0.555255  5.505987
H    -1.017096  -2.115545  1.381523
H    -1.185670  -0.403624  0.986084
H    -0.311597  -1.412940  3.757360
H    -2.003982  -1.250160  3.288098
H    -1.683503  1.233658  2.943006
H    0.036859  1.054326  3.241914
H    -0.991918  1.983004  5.243173
H    -0.424928  0.337457  5.621025
H    -2.624099  0.745160  6.512276
H    -3.242397  1.096579  5.010339
O    0.901306  -2.969881  -0.211666
H    -2.723061  -0.442018  5.353935
Sr    1.658897  -2.885322  -2.396529
