25
Energy: -100715.624572 eV PBE+vdW (tier 2 basis)
N    -0.105776  0.393861  0.679141
C    0.170042  0.003605  2.099737
C    1.644254  -0.339677  2.226697
O    2.301340  -0.714331  1.232014
H    -1.102109  0.210195  0.509093
H    -0.027215  1.414450  0.598892
H    -0.077648  0.834265  2.780914
C    -0.668388  -1.238403  2.503226
C    -2.176917  -0.971844  2.587536
C    -2.951607  -2.233136  2.986715
C    -4.465027  -1.990893  3.123346
N    -5.144445  -3.238583  3.415038
H    -0.311044  -1.596491  3.480302
H    -0.455731  -2.056204  1.791276
H    -2.572680  -0.608871  1.620978
H    -2.362327  -0.165389  3.315229
H    -2.559145  -2.615540  3.942933
H    -2.797421  -3.032193  2.245643
H    -4.860638  -1.604518  2.172070
H    -4.637997  -1.199823  3.880290
H    -5.048936  -3.541404  4.382539
H    -6.130647  -3.229961  3.167113
O    2.248300  -0.320814  3.386366
H    1.686839  0.001435  4.120086
Sr    1.623753  -0.737121  -0.961816
