25
Energy: -100716.32796 eV PBE+vdW (tier 2 basis)
N    -0.053859  -0.598237  0.044325
C    -0.113812  -0.314419  1.540696
C    1.250209  -0.665266  2.122336
O    1.569006  -0.222437  3.269472
H    -0.985170  -0.864667  -0.306201
H    0.278932  0.205539  -0.504660
H    -0.310190  0.756720  1.672762
C    -1.245587  -1.159688  2.160092
C    -1.639626  -0.789202  3.594934
C    -2.162778  0.645527  3.784839
C    -3.179320  1.123793  2.734970
N    -4.148570  0.073146  2.401523
H    -0.972941  -2.225330  2.097510
H    -2.154926  -1.011831  1.547241
H    -0.811082  -0.972632  4.294114
H    -2.427729  -1.504075  3.866264
H    -1.330500  1.366751  3.821791
H    -2.623356  0.693394  4.782510
H    -2.662350  1.396150  1.796871
H    -3.631280  2.063330  3.098309
H    -4.818807  0.412833  1.710925
H    -4.703765  -0.177747  3.222018
O    2.025632  -1.449694  1.460617
H    0.608180  -1.380314  -0.108792
Sr    3.594285  -1.413844  3.276857
