25
Energy: -100715.572204 eV PBE+vdW (tier 2 basis)
N    0.190183  0.081420  0.145736
C    0.081200  0.041539  1.645738
C    1.401712  0.543362  2.232297
O    2.246433  1.121379  1.515253
H    0.398853  -0.876148  -0.166635
H    -0.748139  0.255270  -0.229474
H    -0.658157  0.809588  1.936947
C    -0.409275  -1.327187  2.171232
C    -0.762609  -1.408293  3.670434
C    -1.623137  -2.641241  4.008676
C    -3.101004  -2.498207  3.619042
N    -3.793356  -3.753496  3.844393
H    0.334337  -2.101580  1.921717
H    -1.315107  -1.564148  1.593360
H    -1.294423  -0.496322  3.993888
H    0.153163  -1.505925  4.286030
H    -1.556296  -2.819040  5.091687
H    -1.207098  -3.538131  3.525548
H    -3.197767  -2.262372  2.546269
H    -3.532684  -1.634906  4.167910
H    -3.861357  -4.002529  4.830423
H    -4.727385  -3.772942  3.440732
O    1.647807  0.426852  3.503177
H    0.947705  -0.093011  3.970449
Sr    2.136795  1.646889  -0.710855
