25
Energy: -100716.416787 eV PBE+vdW (tier 2 basis)
N    -0.127766  0.694593  0.769270
C    0.056404  0.167939  2.182795
C    1.548954  0.027803  2.450371
O    1.940534  -0.156275  3.645524
H    -1.041439  0.372047  0.407558
H    -0.104134  1.721031  0.718971
H    -0.375758  0.908617  2.868601
C    -0.681376  -1.178668  2.339370
C    -2.164901  -1.088449  1.968572
C    -2.968491  -2.327533  2.384389
C    -4.476410  -2.113711  2.180187
N    -4.940080  -0.950934  2.943273
H    -0.574520  -1.461209  3.396085
H    -0.167491  -1.955337  1.749015
H    -2.295700  -0.964845  0.873934
H    -2.640277  -0.217836  2.452031
H    -2.775807  -2.534563  3.449935
H    -2.641078  -3.216348  1.824709
H    -4.995821  -3.054402  2.431632
H    -4.677209  -1.925572  1.114701
H    -5.823503  -0.602530  2.573901
H    -5.117462  -1.201147  3.916680
O    2.369638  0.046421  1.462663
H    0.636087  0.332894  0.173721
Sr    4.184592  -0.355447  2.988342
