25
Energy: -100715.735015 eV PBE+vdW (tier 2 basis)
N    0.221319  0.295229  0.179682
C    -0.321692  -0.031425  1.536124
C    0.710822  0.348643  2.578557
O    1.926289  0.389668  2.286834
H    -0.065071  1.248680  -0.071047
H    -0.287299  -0.302917  -0.485015
H    -1.262486  0.511818  1.718244
C    -0.593219  -1.558218  1.646787
C    -1.671060  -2.070928  0.688972
C    -3.066504  -1.471916  0.885400
C    -4.142900  -2.342249  0.208090
N    -4.101202  -3.700768  0.745002
H    -0.891578  -1.780733  2.682308
H    0.360487  -2.095083  1.485959
H    -1.764240  -3.158420  0.851171
H    -1.355947  -1.970746  -0.367494
H    -3.141314  -0.444211  0.492392
H    -3.291892  -1.415806  1.964516
H    -3.940268  -2.392896  -0.871972
H    -5.120872  -1.843790  0.319073
H    -4.640157  -3.786082  1.606456
H    -4.479815  -4.379906  0.087716
O    0.373637  0.567876  3.821096
H    -0.591909  0.538906  3.979022
Sr    2.832530  0.096750  0.201019
