25
Energy: -100717.136678 eV PBE+vdW (tier 2 basis)
N    -0.649236  -1.276239  0.639341
C    0.210678  -0.150054  1.013524
C    1.590712  -0.313525  0.380505
O    2.448085  -1.144957  0.868959
H    -0.975257  -0.187799  7.217828
H    -0.938089  -1.240196  -0.337094
H    -0.222103  0.756009  0.566598
C    0.252235  0.004713  2.544170
C    -1.108557  0.489100  3.064630
C    -1.260165  0.558625  4.595341
C    -1.443001  -0.810655  5.236894
N    -1.740585  -0.671542  6.727302
H    1.039194  0.722261  2.823738
H    0.542108  -0.963691  2.982327
H    -1.901770  -0.146045  2.642338
H    -1.292551  1.501109  2.676509
H    -2.144770  1.176055  4.821214
H    -0.391843  1.070722  5.042331
H    -0.551802  -1.445545  5.166090
H    -2.294793  -1.354323  4.809292
H    -1.874772  -1.585921  7.181069
H    -2.596402  -0.118991  6.881082
O    1.865944  0.331352  -0.699976
H    -0.205782  -2.177273  0.819682
Sr    3.911524  -0.707188  -0.884695
