25
Energy: -100717.505333 eV PBE+vdW (tier 2 basis)
N    -0.417447  -1.842239  2.596111
C    -0.247082  -0.606146  1.810432
C    1.040674  0.162390  2.122181
O    1.735752  -0.126881  3.160453
H    -3.368466  -3.310378  1.917397
H    0.439373  -2.400886  2.566462
H    -0.167431  -0.886023  0.748915
C    -1.444082  0.365415  1.991768
C    -2.854426  -0.245676  2.022923
C    -3.431824  -0.884342  0.747381
C    -2.794603  -2.173944  0.227661
N    -2.529332  -3.156951  1.344948
H    -1.375822  1.126190  1.202492
H    -1.308165  0.899645  2.945835
H    -3.533423  0.577406  2.286863
H    -2.941650  -0.941130  2.873421
H    -3.406553  -0.163303  -0.083000
H    -4.499605  -1.078018  0.931635
H    -1.824993  -2.005247  -0.255495
H    -3.448942  -2.659544  -0.505589
H    -2.240504  -4.070829  0.977505
H    -1.723358  -2.747750  1.962617
O    1.397439  1.109676  1.335072
H    -0.552798  -1.614782  3.585688
Sr    3.257270  1.590346  2.647325
