25
Energy: -100717.368283 eV PBE+vdW (tier 2 basis)
N    -1.108929  1.112859  0.629291
C    -0.537996  0.021512  1.497398
C    0.945545  -0.228526  1.152240
O    1.318706  0.119505  -0.042502
H    -2.122226  0.968420  0.558234
H    -1.024615  2.000030  1.137531
H    -0.578394  0.337728  2.549355
C    -1.372800  -1.266383  1.317106
C    -0.851508  -2.513652  2.043667
C    -0.871594  -2.443715  3.589264
C    0.299989  -3.169672  4.244357
N    1.562691  -2.325656  4.185023
H    -1.432289  -1.497474  0.239928
H    -2.401613  -1.047741  1.647207
H    0.162433  -2.737028  1.681620
H    -1.464241  -3.366502  1.722775
H    -1.795426  -2.898225  3.970388
H    -0.895183  -1.404314  3.954121
H    0.523029  -4.114562  3.734210
H    0.111491  -3.392603  5.300379
H    1.596534  -1.670679  4.975016
H    2.410838  -2.901896  4.238551
O    1.688146  -0.763798  1.980658
H    1.602549  -1.733955  3.297136
Sr    0.284862  1.292328  -1.581951
