25
Energy: -100716.210677 eV PBE+vdW (tier 2 basis)
N    1.199076  0.898601  2.053157
C    -0.126002  0.221401  2.373744
C    0.151774  -0.845739  3.438676
O    -0.790457  -1.617643  3.791314
H    1.603403  0.477365  1.201244
H    1.094131  1.908371  1.893429
H    -0.758327  0.981972  2.856988
C    -0.807955  -0.293420  1.101338
C    -0.004596  -1.336820  0.313147
C    -0.656584  -1.712465  -1.026378
C    -1.993183  -2.456647  -0.902242
N    -2.514840  -2.745130  -2.226685
H    -1.045271  0.573293  0.464198
H    -1.775367  -0.705588  1.416835
H    0.134697  -2.242603  0.928176
H    1.013815  -0.967254  0.082419
H    0.050402  -2.342661  -1.586369
H    -0.809495  -0.811072  -1.639074
H    -2.736377  -1.823802  -0.392653
H    -1.847948  -3.351303  -0.257023
H    -1.979138  -3.461036  -2.715800
H    -3.490109  -3.035428  -2.209571
O    1.315044  -0.899725  3.978319
H    1.858625  0.728022  2.833845
Sr    0.534582  -2.650008  5.446188
