25
Energy: -100717.014517 eV PBE+vdW (tier 2 basis)
N    -0.579527  0.214828  2.934986
C    0.090684  -0.717777  2.029095
C    1.387329  0.010627  1.668788
O    1.342382  1.049964  0.911188
H    -2.269638  -4.804512  0.615446
H    -1.146854  0.907184  2.448885
H    0.390234  -1.595093  2.618748
C    -0.698247  -1.163361  0.777755
C    -1.985642  -1.922603  1.126214
C    -2.888874  -2.229396  -0.082383
C    -2.462904  -3.393342  -0.968771
N    -2.747139  -4.734251  -0.293868
H    -0.035593  -1.777244  0.144790
H    -0.948226  -0.268688  0.185639
H    -2.576583  -1.318975  1.829517
H    -1.737221  -2.843664  1.686604
H    -2.938966  -1.345276  -0.735187
H    -3.927617  -2.394525  0.248160
H    -1.390131  -3.391786  -1.197945
H    -3.019954  -3.415608  -1.912678
H    -3.755807  -4.850018  -0.119846
H    -2.438489  -5.527404  -0.872936
O    2.492408  -0.346582  2.214769
H    -1.132145  -0.244299  3.653538
Sr    3.437523  1.688802  1.670494
