25
Energy: -100717.065912 eV PBE+vdW (tier 2 basis)
N    2.078038  -2.722048  2.449266
C    0.845734  -2.189191  1.863610
C    0.994267  -2.191565  0.341743
O    0.661392  -3.251257  -0.313553
H    2.226648  -3.705663  2.229181
H    2.905112  -2.186420  2.185531
H    0.040394  -2.899003  2.101523
C    0.536377  -0.820695  2.481273
C    -0.857558  -0.274265  2.151325
C    -1.219397  1.030758  2.889102
C    -1.437268  0.821460  4.383545
N    -1.857303  2.121715  5.060719
H    1.305691  -0.097004  2.169460
H    0.661583  -0.969728  3.563882
H    -1.625016  -1.035250  2.367432
H    -0.932319  -0.065100  1.074382
H    -2.140860  1.441013  2.445825
H    -0.424483  1.777857  2.728884
H    -0.532612  0.491451  4.907556
H    -2.240392  0.102069  4.587452
H    -2.729269  2.489391  4.653872
H    -2.015388  1.992561  6.070168
O    1.548561  -1.203574  -0.276681
H    -1.137939  2.850326  4.949463
Sr    1.600008  -2.435836  -2.247958
