25
Energy: -100717.101957 eV PBE+vdW (tier 2 basis)
N    0.299158  0.323316  -0.019937
C    -0.198302  0.422630  1.351355
C    0.954448  1.074271  2.118757
O    0.870293  2.303874  2.476409
H    -4.716454  -1.994550  1.005810
H    -0.430010  0.409760  -0.722010
H    -1.014928  1.157737  1.356417
C    -0.661623  -0.885869  2.025638
C    -1.888463  -1.516543  1.351759
C    -2.272314  -2.858773  1.993179
C    -3.382808  -3.631717  1.294596
N    -4.737783  -2.936495  1.419598
H    -0.885698  -0.683958  3.085851
H    0.175696  -1.601586  2.016913
H    -1.678673  -1.674602  0.281493
H    -2.726285  -0.797456  1.405520
H    -2.522451  -2.728570  3.059490
H    -1.399568  -3.529609  1.982651
H    -3.521998  -4.628541  1.729361
H    -3.202476  -3.742713  0.217775
H    -5.479470  -3.469227  0.944029
H    -5.012379  -2.835142  2.406850
O    2.039589  0.411499  2.317896
H    0.846354  -0.519317  -0.186968
Sr    3.143144  2.369585  2.878568
