25
Energy: -100717.610479 eV PBE+vdW (tier 2 basis)
N    0.497243  -0.867009  0.313737
C    0.251178  -0.134262  1.626458
C    1.357432  -0.583004  2.590739
O    1.398175  -0.052044  3.735132
H    -0.315694  -1.427204  0.025602
H    0.736298  -0.231729  -0.457498
H    0.386128  0.938381  1.435090
C    -1.167155  -0.366163  2.182054
C    -1.635144  -1.819357  2.400109
C    -0.812748  -2.722327  3.338445
C    -0.730157  -2.256404  4.795575
N    0.464537  -2.865547  5.481624
H    -1.878106  0.133187  1.507405
H    -1.209731  0.208722  3.117177
H    -1.731086  -2.342944  1.433411
H    -2.670440  -1.757567  2.766284
H    0.202383  -2.855452  2.930575
H    -1.259160  -3.727331  3.309234
H    -1.653458  -2.521545  5.329564
H    -0.615773  -1.167670  4.867164
H    0.358172  -2.703034  6.490077
H    0.390362  -3.886538  5.398047
O    2.148475  -1.519808  2.220638
H    1.304955  -1.504857  0.496221
Sr    2.716317  -1.838494  4.606138
