25
Energy: -100717.228271 eV PBE+vdW (tier 2 basis)
N    -0.825379  0.133163  0.715453
C    0.447764  -0.173904  1.337630
C    1.631430  -0.362732  0.379613
O    2.833762  -0.217596  0.817225
H    -3.231529  0.367789  6.637100
H    -0.795684  1.019884  0.213480
H    0.732656  0.671836  1.983811
C    0.351227  -1.452684  2.213999
C    -0.887747  -1.517463  3.117921
C    -1.011953  -0.374875  4.138805
C    -2.227572  -0.604192  5.025826
N    -2.409566  0.524296  6.036728
H    1.271761  -1.539997  2.808599
H    0.318279  -2.333551  1.553792
H    -0.856966  -2.481004  3.649332
H    -1.790226  -1.527375  2.491399
H    -1.121200  0.582655  3.604414
H    -0.100455  -0.315451  4.756678
H    -2.146858  -1.525614  5.615985
H    -3.158863  -0.642148  4.446916
H    -2.537386  1.430039  5.564120
H    -1.587827  0.611292  6.650940
O    1.423985  -0.676726  -0.849376
H    -1.092928  -0.581369  0.036639
Sr    3.700273  -0.676275  -1.281032
