25
Energy: -100716.044395 eV PBE+vdW (tier 2 basis)
N    1.729976  0.707879  1.585717
C    1.188039  -0.404229  2.439633
C    2.324776  -1.254436  2.922761
O    3.515480  -0.848337  2.878515
H    1.555374  0.462308  0.602574
H    1.120040  1.518739  1.745589
H    0.729512  0.105555  3.340004
C    -0.008559  -1.125207  1.786205
C    -0.832463  -2.074407  2.683936
C    -1.244396  -1.575444  4.083873
C    -1.894239  -0.187147  4.136831
N    -0.877353  0.899665  4.189102
H    0.315865  -1.666278  0.882936
H    -0.677709  -0.320927  1.446688
H    -0.350630  -3.070040  2.770060
H    -1.741712  -2.312584  2.112116
H    -0.393433  -1.588653  4.788045
H    -1.952523  -2.311127  4.488806
H    -2.568234  -0.138831  5.004644
H    -2.521169  -0.025604  3.248516
H    -1.318835  1.789154  3.946443
H    -0.566945  1.015030  5.157170
O    2.109461  -2.418374  3.472504
H    1.160232  -2.677325  3.418503
Sr    4.284665  1.074057  1.969634
