25
Energy: -100717.361099 eV PBE+vdW (tier 2 basis)
N    0.848280  0.056059  0.374405
C    -0.069057  -0.324551  1.530629
C    0.810470  -0.995937  2.584935
O    0.361805  -1.087328  3.761490
H    0.388631  -0.030871  -0.541554
H    1.198714  1.019058  0.462357
H    -0.485323  0.601604  1.944714
C    -1.220690  -1.238006  1.063470
C    -0.862050  -2.543486  0.303893
C    -1.033773  -3.903099  1.016284
C    0.104509  -4.409033  1.918294
N    -0.030813  -4.098136  3.391104
H    -1.871711  -0.616293  0.431268
H    -1.824671  -1.445675  1.958129
H    0.158660  -2.503609  -0.113484
H    -1.517122  -2.577631  -0.575895
H    -1.148917  -4.650681  0.219150
H    -1.989101  -3.931654  1.565078
H    1.062642  -4.005254  1.553519
H    0.179875  -5.498721  1.829673
H    -0.814161  -3.449382  3.521591
H    -0.337859  -4.950542  3.867144
O    1.921416  -1.506432  2.206265
H    1.665616  -0.585960  0.424128
Sr    1.970631  -2.775440  4.320409
