25
Energy: -100717.020572 eV PBE+vdW (tier 2 basis)
N    2.423956  -2.392841  2.546915
C    1.164217  -2.090703  1.879736
C    1.384841  -2.137549  0.373632
O    0.686162  -1.420152  -0.433958
H    2.266979  -2.666491  3.516205
H    2.907117  -3.163272  2.085437
H    0.377025  -2.868239  2.035148
C    0.603732  -0.747976  2.400983
C    -0.908455  -0.563436  2.228385
C    -1.465663  0.748331  2.816229
C    -1.413583  0.790682  4.339118
N    -2.066764  2.062558  4.870766
H    1.153045  0.080947  1.930478
H    0.875306  -0.720537  3.467258
H    -1.444458  -1.415841  2.677403
H    -1.161135  -0.574564  1.160257
H    -2.512795  0.856502  2.490362
H    -0.910043  1.605718  2.401470
H    -0.391206  0.794034  4.735014
H    -1.962644  -0.042920  4.795100
H    -3.052634  2.124123  4.578682
H    -2.043770  2.103803  5.899510
O    2.272174  -2.944418  -0.092446
H    -1.590458  2.903449  4.514874
Sr    1.843051  -2.310208  -2.257560
