25
Energy: -100715.568338 eV PBE+vdW (tier 2 basis)
N    0.092558  0.350057  0.088817
C    0.021991  0.030214  1.554948
C    1.438238  0.104987  2.129537
O    2.364986  0.647522  1.494364
H    -0.806404  0.763134  -0.180827
H    0.106383  -0.551123  -0.408401
H    -0.514597  0.864402  2.041756
C    -0.718769  -1.283109  1.872102
C    -0.071487  -2.543900  1.277875
C    -0.675082  -3.851415  1.814034
C    -2.140212  -4.096901  1.423737
N    -2.595316  -5.351316  1.989755
H    -1.757144  -1.167443  1.529267
H    -0.813722  -1.386096  2.968245
H    1.010546  -2.548271  1.495852
H    -0.167641  -2.540572  0.176441
H    -0.590769  -3.882626  2.911407
H    -0.063831  -4.686152  1.440019
H    -2.232370  -4.039119  0.317317
H    -2.786074  -3.304083  1.831815
H    -3.606745  -5.458474  1.982891
H    -2.170206  -6.172552  1.562695
O    1.697384  -0.343020  3.326846
H    0.926890  -0.778917  3.746713
Sr    2.278871  1.666637  -0.564022
