25
Energy: -100717.254663 eV PBE+vdW (tier 2 basis)
N    0.813490  -2.953194  2.357169
C    0.082671  -2.253549  1.320271
C    0.609894  -2.449568  -0.107366
O    1.784105  -2.934170  -0.303883
H    1.821206  -2.826681  2.258762
H    0.631078  -3.955079  2.346463
H    -0.948897  -2.641604  1.296189
C    -0.000806  -0.737366  1.641367
C    -0.775298  -0.500213  2.943343
C    -0.713687  0.954529  3.435184
C    -1.479784  1.106416  4.742314
N    -1.420676  2.539571  5.263504
H    -0.477020  -0.208618  0.803217
H    1.025767  -0.346473  1.736143
H    -0.364650  -1.171826  3.711699
H    -1.827512  -0.791796  2.795737
H    -1.134860  1.632211  2.673872
H    0.338510  1.248412  3.585503
H    -1.066026  0.477916  5.540731
H    -2.545488  0.870409  4.631396
H    -1.938311  2.644817  6.147518
H    -0.448875  2.833452  5.435286
O    -0.138754  -2.145041  -1.110795
H    -1.825299  3.200251  4.585296
Sr    1.421223  -2.995807  -2.589919
