25
Energy: -100717.000393 eV PBE+vdW (tier 2 basis)
N    -1.158408  -0.366195  3.018182
C    -0.160977  -0.383178  1.951813
C    0.808712  0.747730  2.310616
O    0.408337  1.969866  2.261384
H    -4.196988  -1.904306  -2.181216
H    -1.515799  -1.283207  3.265842
H    0.417421  -1.311321  2.057181
C    -0.643124  -0.247814  0.490782
C    -1.423194  -1.461804  -0.056106
C    -2.930142  -1.457751  0.248148
C    -3.694173  -2.673777  -0.261349
N    -3.732275  -2.734589  -1.787583
H    0.246339  -0.103608  -0.141458
H    -1.238590  0.672895  0.386953
H    -0.972186  -2.392653  0.325961
H    -1.263595  -1.476988  -1.148292
H    -3.399571  -0.535955  -0.134447
H    -3.099379  -1.440255  1.333743
H    -4.742201  -2.663398  0.060213
H    -3.238991  -3.618630  0.062048
H    -2.783374  -2.775424  -2.184488
H    -4.244650  -3.563931  -2.118561
O    1.988813  0.467582  2.730199
H    -1.915709  0.295920  2.867747
Sr    2.308704  2.652788  3.401691
