25
Energy: -100715.698319 eV PBE+vdW (tier 2 basis)
N    0.496180  -0.903506  -0.365392
C    -0.002519  -0.427748  0.970263
C    1.148138  -0.478254  1.965094
O    2.149218  -1.200249  1.753831
H    0.714135  -0.079970  -0.938723
H    -0.298129  -1.335659  -0.851058
H    -0.348512  0.614074  0.890163
C    -1.192007  -1.307211  1.443661
C    -1.781616  -0.972847  2.822774
C    -2.186899  0.491403  3.022356
C    -2.847591  0.767314  4.381389
N    -2.937664  2.203935  4.605577
H    -0.876947  -2.364612  1.425757
H    -1.973315  -1.189120  0.675726
H    -1.093095  -1.293829  3.620963
H    -2.671013  -1.607724  2.946483
H    -2.855935  0.814652  2.207335
H    -1.332114  1.203405  2.961343
H    -2.222971  0.337738  5.179067
H    -3.815146  0.231242  4.419604
H    -3.721534  2.624160  4.106423
H    -3.060001  2.423001  5.592740
O    1.099598  0.202842  3.070610
H    0.257298  0.715489  3.163350
Sr    2.655150  -2.387301  -0.129241
