25
Energy: -100715.987562 eV PBE+vdW (tier 2 basis)
N    0.594180  -0.091515  0.154773
C    -0.080763  -0.224843  1.492037
C    0.827423  0.336231  2.547786
O    1.805024  1.072196  2.256072
H    0.997369  -1.006848  -0.083800
H    -0.145103  0.035713  -0.544515
H    -0.996133  0.457836  1.479213
C    -0.623556  -1.644554  1.799864
C    -1.880949  -1.652185  2.697813
C    -3.230974  -1.544416  1.958919
C    -3.366463  -0.452522  0.895145
N    -2.875038  0.866731  1.358438
H    0.173798  -2.261296  2.242471
H    -0.875608  -2.123727  0.842142
H    -1.839483  -0.839072  3.448840
H    -1.888459  -2.580466  3.283455
H    -4.017765  -1.416366  2.717021
H    -3.445597  -2.507406  1.472716
H    -4.419333  -0.416031  0.574790
H    -2.789271  -0.722273  -0.005057
H    -3.160722  1.592383  0.697456
H    -3.327004  1.119462  2.241499
O    0.598737  0.127163  3.817074
H    -0.181915  -0.452499  3.960965
Sr    2.506129  1.689381  0.197221
