25
Energy: -100716.170007 eV PBE+vdW (tier 2 basis)
N    0.965062  -0.226862  0.729578
C    0.235094  -0.430397  2.016418
C    1.241144  -0.840572  3.098148
O    2.465026  -0.654360  2.932818
H    0.847872  -1.091179  0.184744
H    0.365875  0.497267  0.173435
H    -0.107630  0.570339  2.345623
C    -1.005429  -1.341978  1.918607
C    -2.192282  -0.797047  1.100424
C    -2.027480  -0.748539  -0.438260
C    -1.945041  0.647158  -1.061427
N    -0.842645  1.494572  -0.503755
H    -1.394576  -1.524016  2.935808
H    -0.698361  -2.329894  1.536448
H    -2.475066  0.192928  1.493562
H    -3.043286  -1.446767  1.340883
H    -2.892597  -1.241720  -0.901327
H    -1.164715  -1.356361  -0.756954
H    -2.910487  1.160645  -0.944653
H    -1.775625  0.542958  -2.140274
H    -0.535362  2.148337  -1.226831
H    -1.221636  2.092862  0.233882
O    0.855898  -1.341662  4.239656
H    -0.112014  -1.488199  4.280009
Sr    3.454138  0.182512  1.037462
