25
Energy: -100715.726255 eV PBE+vdW (tier 2 basis)
N    0.032398  -0.305750  0.152866
C    0.056632  -0.345015  1.658749
C    1.508806  -0.418892  2.114707
O    2.451878  -0.182697  1.324117
H    -0.204866  -1.255760  -0.163142
H    -0.787483  0.243896  -0.125682
H    -0.299542  0.637928  2.015785
C    -0.866488  -1.441007  2.235559
C    -1.155851  -1.400070  3.747614
C    -1.693192  -0.071953  4.305967
C    -2.924590  0.472638  3.562845
N    -3.888322  -0.595660  3.292929
H    -0.466569  -2.429914  1.958156
H    -1.841759  -1.334873  1.734978
H    -0.304892  -1.765090  4.361463
H    -1.910655  -2.181883  3.910312
H    -0.917539  0.713382  4.330257
H    -1.951983  -0.242961  5.361272
H    -2.626313  0.897188  2.586935
H    -3.324761  1.323697  4.142086
H    -4.294954  -0.944637  4.163174
H    -4.672761  -0.243265  2.744239
O    1.794069  -0.687550  3.352064
H    0.984426  -0.928502  3.870047
Sr    2.345348  0.366255  -0.881943
