25
Energy: -100716.247048 eV PBE+vdW (tier 2 basis)
N    0.534267  -0.239138  0.351450
C    -0.038338  0.276568  1.663733
C    1.075056  1.058890  2.370305
O    0.866129  1.492928  3.543205
H    0.823484  -1.223893  0.467403
H    -0.143789  -0.192695  -0.419271
H    -0.813719  1.013243  1.403473
C    -0.651053  -0.860576  2.489847
C    0.302541  -2.018599  2.805314
C    -0.340405  -3.050316  3.740236
C    0.553635  -4.267729  4.005236
N    -0.065250  -5.133653  4.996141
H    -1.546809  -1.227667  1.966120
H    -1.014891  -0.403209  3.420523
H    1.229280  -1.634534  3.267471
H    0.614187  -2.547021  1.881587
H    -1.296862  -3.387305  3.308192
H    -0.585152  -2.578248  4.703450
H    1.518080  -3.928401  4.415048
H    0.782246  -4.767476  3.040188
H    -0.868244  -5.641494  4.626420
H    0.587941  -5.817596  5.372973
O    2.168292  1.294683  1.740729
H    1.377615  0.316422  0.117701
Sr    2.939278  2.611683  3.616839
