25
Energy: -100715.774897 eV PBE+vdW (tier 2 basis)
N    0.451074  -0.160320  -0.019847
C    0.151535  -0.157268  1.456604
C    1.402644  0.289558  2.208548
O    2.405414  0.726283  1.595220
H    0.575817  -1.143780  -0.294017
H    -0.407205  0.113409  -0.509838
H    -0.586137  0.643967  1.640239
C    -0.469864  -1.491890  1.937637
C    -0.849164  -1.547935  3.426436
C    -1.996036  -2.520715  3.743402
C    -2.485963  -2.336832  5.187887
N    -2.901074  -0.946843  5.412900
H    0.212311  -2.319337  1.682082
H    -1.379537  -1.634234  1.334723
H    -1.218454  -0.566772  3.794868
H    0.019511  -1.858522  4.035236
H    -1.683220  -3.562162  3.581448
H    -2.830666  -2.324033  3.050721
H    -1.666285  -2.567329  5.884423
H    -3.278617  -3.077517  5.384804
H    -2.882211  -0.717358  6.405571
H    -3.863013  -0.799550  5.105264
O    1.430876  0.275882  3.505300
H    0.615014  -0.142274  3.885679
Sr    2.644465  1.147190  -0.624281
