25
Energy: -100717.370103 eV PBE+vdW (tier 2 basis)
N    1.793628  -0.264939  0.757772
C    0.460983  -0.178037  1.454616
C    0.634852  -0.554958  2.951383
O    1.796449  -0.268172  3.457017
H    1.949111  -1.243953  0.489049
H    1.717848  0.227122  -0.138635
H    0.199898  0.893973  1.467846
C    -0.684373  -0.930450  0.770716
C    -0.539611  -2.468905  0.720121
C    -1.868980  -3.238267  0.868347
C    -2.270161  -3.621921  2.290363
N    -2.557967  -2.436551  3.188935
H    -0.818780  -0.533987  -0.246314
H    -1.600028  -0.635383  1.301800
H    0.155720  -2.821594  1.500376
H    -0.087623  -2.757785  -0.238066
H    -1.797117  -4.193269  0.328991
H    -2.687217  -2.690837  0.373504
H    -1.473102  -4.187684  2.789609
H    -3.173240  -4.243820  2.281854
H    -3.335402  -1.873000  2.824640
H    -2.830078  -2.751907  4.128452
O    -0.295737  -1.045354  3.595014
H    -1.695879  -1.813351  3.298355
Sr    3.631500  0.449250  2.485889
