25
Energy: -100717.507245 eV PBE+vdW (tier 2 basis)
N    0.119439  0.145649  -0.219316
C    -0.092849  0.117539  1.287561
C    0.507503  -1.200557  1.789054
O    0.413802  -2.217522  1.018811
H    1.060304  0.474548  -0.477096
H    0.019445  -0.830324  -0.558630
H    0.436780  0.973139  1.722567
C    -1.607435  0.169894  1.577432
C    -1.987746  0.055634  3.077011
C    -2.977014  -1.082788  3.389918
C    -2.457667  -2.509341  3.196553
N    -1.387975  -2.924068  4.182206
H    -2.090014  -0.634738  0.999046
H    -1.990497  1.118674  1.173486
H    -2.448300  0.998830  3.394024
H    -1.080319  -0.034697  3.692653
H    -3.871525  -0.969228  2.758615
H    -3.335425  -0.970132  4.424581
H    -2.065137  -2.634745  2.173093
H    -3.288598  -3.219079  3.285905
H    -1.818320  -3.535668  4.881101
H    -1.108003  -2.094805  4.718469
O    0.967364  -1.253211  2.963978
H    -0.567704  0.747518  -0.694639
Sr    0.782888  -3.650520  2.988619
