25
Energy: -100717.368489 eV PBE+vdW (tier 2 basis)
N    0.545990  -0.334013  0.128833
C    0.290183  -0.422429  1.611809
C    1.582998  -0.954227  2.293007
O    2.686397  -0.490994  1.785408
H    0.410158  -1.270181  -0.271923
H    -0.204221  0.223366  -0.292801
H    0.180389  0.619605  1.957633
C    -0.964059  -1.210375  2.007999
C    -1.521543  -0.784148  3.387515
C    -2.205930  -1.906217  4.195846
C    -1.338288  -2.551492  5.270743
N    -0.137109  -3.282609  4.705721
H    -0.722442  -2.284551  1.985168
H    -1.745362  -1.063061  1.248354
H    -2.241566  0.028866  3.228680
H    -0.718833  -0.345049  3.999842
H    -2.625843  -2.675203  3.527901
H    -3.070421  -1.494436  4.734852
H    -1.909045  -3.279616  5.859395
H    -0.935330  -1.797455  5.958886
H    0.453895  -3.653146  5.460317
H    -0.430481  -4.083007  4.133048
O    1.537035  -1.741996  3.239881
H    0.471037  -2.646785  4.103267
Sr    3.039295  0.426967  -0.177692
