25
Energy: -100717.076408 eV PBE+vdW (tier 2 basis)
N    0.843243  -1.985221  2.921487
C    0.485766  -1.156818  1.768724
C    1.428412  0.044889  1.698539
O    1.271862  1.046658  2.496028
H    -3.713986  -2.826163  -0.234688
H    1.729794  -2.471177  2.798543
H    0.675055  -1.753308  0.865082
C    -0.998294  -0.751808  1.833071
C    -1.919353  -1.979806  1.887913
C    -3.391132  -1.658915  2.200343
C    -4.242466  -1.195633  1.024972
N    -4.572235  -2.365634  0.099597
H    -1.229825  -0.106029  0.971013
H    -1.156565  -0.135583  2.732079
H    -1.537681  -2.652182  2.667101
H    -1.823690  -2.558024  0.949013
H    -3.444112  -0.863076  2.957969
H    -3.880064  -2.527502  2.671665
H    -3.741753  -0.446994  0.398522
H    -5.209748  -0.791678  1.345997
H    -5.127623  -3.077551  0.595238
H    -5.112085  -2.066268  -0.723874
O    2.441594  0.008699  0.904336
H    0.867765  -1.454752  3.792612
Sr    3.271121  1.979876  1.776721
