25
Energy: -100716.954171 eV PBE+vdW (tier 2 basis)
N    1.952413  -2.665828  2.814699
C    0.875391  -2.067931  2.037264
C    1.257298  -2.116363  0.561936
O    0.845303  -1.225491  -0.269023
H    1.635716  -2.917681  3.750149
H    2.299334  -3.514827  2.368763
H    -0.077478  -2.651008  2.065781
C    0.577119  -0.643038  2.556956
C    -0.837660  -0.124175  2.272419
C    -1.070240  1.333588  2.708710
C    -1.069314  1.612852  4.207152
N    -2.316887  1.047366  4.883514
H    1.324336  0.053304  2.149104
H    0.767354  -0.678149  3.640707
H    -1.583285  -0.801786  2.729815
H    -1.037716  -0.173697  1.193668
H    -2.007787  1.715811  2.272677
H    -0.278850  1.969946  2.284630
H    -1.080581  2.688110  4.420222
H    -0.214635  1.166387  4.729780
H    -2.396188  0.032155  4.734372
H    -2.308621  1.215847  5.899048
O    1.989935  -3.088557  0.148099
H    -3.170152  1.480828  4.503054
Sr    2.040198  -2.255661  -1.995495
