25
Energy: -100715.618508 eV PBE+vdW (tier 2 basis)
N    0.893965  0.316387  0.427681
C    0.321550  0.113664  1.803809
C    1.480268  -0.158256  2.763324
O    2.662297  0.064486  2.425428
H    0.788978  -0.573141  -0.077981
H    0.269610  0.953575  -0.077964
H    -0.085764  1.087881  2.129787
C    -0.826017  -0.924233  1.826768
C    -1.662104  -1.008684  3.117327
C    -2.969662  -1.784448  2.894443
C    -3.795627  -1.956736  4.179153
N    -4.992360  -2.728419  3.904035
H    -0.424927  -1.917937  1.568895
H    -1.506652  -0.640487  1.009436
H    -1.890667  0.001876  3.495209
H    -1.121881  -1.551310  3.921666
H    -2.755001  -2.781615  2.482691
H    -3.572362  -1.253901  2.139713
H    -4.001027  -0.959073  4.618338
H    -3.201705  -2.509248  4.922424
H    -5.376141  -3.190881  4.724201
H    -5.729550  -2.199351  3.442417
O    1.253001  -0.578949  3.973045
H    0.295149  -0.772492  4.123199
Sr    3.466561  0.919052  0.454917
