25
Energy: -100717.387848 eV PBE+vdW (tier 2 basis)
N    0.552241  0.478523  0.387258
C    -0.257745  -0.001097  1.564414
C    0.706069  -0.353631  2.733661
O    1.768857  0.392454  2.798752
H    0.903144  -0.344634  -0.116604
H    -0.087454  0.921819  -0.280437
H    -0.812429  0.883082  1.922282
C    -1.282490  -1.097546  1.257637
C    -0.689642  -2.471562  0.888407
C    -1.558109  -3.676568  1.298930
C    -1.943859  -3.771783  2.774410
N    -0.746208  -3.680389  3.696129
H    -1.962606  -0.748890  0.466572
H    -1.909862  -1.172133  2.156545
H    0.311465  -2.583190  1.335483
H    -0.533928  -2.542187  -0.197369
H    -1.045426  -4.601851  0.995509
H    -2.505024  -3.668958  0.738828
H    -2.446451  -4.724280  2.978539
H    -2.619924  -2.967244  3.087559
H    -1.023346  -3.823447  4.675170
H    -0.044179  -4.396648  3.472914
O    0.435493  -1.242633  3.543170
H    -0.287875  -2.721772  3.626493
Sr    2.566564  1.845307  1.357361
