25
Energy: -100716.983833 eV PBE+vdW (tier 2 basis)
N    -0.517514  0.656613  0.377035
C    0.365431  0.087596  1.393763
C    1.512544  -0.513308  0.576932
O    2.643316  0.091246  0.522116
H    -2.408107  -0.132688  6.671403
H    -0.988112  1.506544  0.673925
H    0.806998  0.923748  1.952954
C    -0.262079  -0.948231  2.354741
C    -1.410921  -0.382791  3.206314
C    -0.982854  0.507836  4.388714
C    -0.549319  -0.237674  5.645453
N    -1.748448  -0.859208  6.358418
H    0.530576  -1.372034  2.994742
H    -0.638881  -1.787129  1.751610
H    -2.035425  -1.223674  3.556141
H    -2.083968  0.198083  2.559518
H    -1.786105  1.215258  4.651302
H    -0.133912  1.145281  4.100740
H    -0.080026  0.426467  6.380561
H    0.137985  -1.066727  5.435067
H    -1.463264  -1.398657  7.187461
H    -2.265339  -1.494113  5.733568
O    1.299158  -1.560552  -0.139182
H    -1.196766  -0.010439  0.015125
Sr    3.210036  -1.111443  -1.369425
