25
Energy: -100715.729917 eV PBE+vdW (tier 2 basis)
N    0.529821  0.888792  -0.028605
C    0.833922  0.266740  1.310720
C    2.280115  -0.224173  1.290783
O    3.037476  0.043045  0.326314
H    -0.019280  0.197679  -0.556038
H    -0.141532  1.647163  0.132753
H    0.799352  1.078094  2.058956
C    -0.187931  -0.832511  1.726573
C    -0.600806  -0.833425  3.207129
C    0.473131  -1.150620  4.250377
C    -0.086992  -1.079364  5.692793
N    -0.523890  0.282687  6.000351
H    0.185468  -1.821474  1.415350
H    -1.098617  -0.652297  1.135158
H    -1.405413  -1.577260  3.305750
H    -1.046663  0.139291  3.466800
H    1.277685  -0.381845  4.242519
H    0.910051  -2.153896  4.089517
H    0.681927  -1.448755  6.387335
H    -0.932836  -1.777859  5.765807
H    -1.447785  0.295659  6.426064
H    0.106233  0.739295  6.656791
O    2.760822  -0.917831  2.271693
H    2.107996  -1.052165  3.016735
Sr    2.670672  1.420290  -1.439846
