25
Energy: -100717.074778 eV PBE+vdW (tier 2 basis)
N    2.051814  0.418603  1.518533
C    1.153829  -0.713777  1.455863
C    1.217428  -1.534801  0.160049
O    1.712789  -1.013863  -0.905020
H    3.025876  0.134688  1.605547
H    1.977449  1.011384  0.691118
H    1.430579  -1.420539  2.254758
C    -0.318987  -0.264029  1.683799
C    -0.486125  0.573884  2.962228
C    -0.430321  -0.216358  4.282752
C    -1.753168  -0.816660  4.741220
N    -2.694144  0.272669  5.252051
H    -0.969091  -1.152300  1.684940
H    -0.628418  0.350897  0.824702
H    -1.429282  1.143352  2.880747
H    0.310935  1.328225  2.972475
H    -0.022405  0.412160  5.090818
H    0.279465  -1.052447  4.201005
H    -1.629070  -1.515751  5.576561
H    -2.293650  -1.327310  3.934148
H    -2.295035  0.745113  6.075663
H    -2.850343  0.992699  4.532177
O    0.784406  -2.747710  0.146013
H    -3.611671  -0.106373  5.523432
Sr    1.500138  -3.013755  -2.047579
