25
Energy: -100717.029053 eV PBE+vdW (tier 2 basis)
N    -0.774932  0.749726  0.625464
C    0.344814  0.019585  1.214757
C    1.256478  -0.325949  0.033420
O    2.398324  0.246876  -0.087453
H    -2.245791  1.093328  5.649099
H    -1.173612  1.451438  1.241703
H    0.918100  0.726782  1.829288
C    0.000774  -1.253434  2.019974
C    -0.860987  -1.030060  3.273600
C    -0.157218  -0.254917  4.401405
C    -0.770267  -0.437232  5.783725
N    -2.203818  0.086080  5.857704
H    0.935111  -1.759152  2.314385
H    -0.525970  -1.949220  1.350261
H    -1.153886  -2.024679  3.647205
H    -1.795083  -0.522826  2.974066
H    -0.078804  0.819404  4.168824
H    0.880840  -0.608564  4.501573
H    -0.214304  0.105593  6.557246
H    -0.827830  -1.494821  6.071246
H    -2.605924  -0.053316  6.795297
H    -2.812583  -0.397512  5.182995
O    0.837500  -1.140920  -0.869256
H    -1.508117  0.140906  0.266083
Sr    2.609186  -0.568118  -2.244611
