25
Energy: -100715.726637 eV PBE+vdW (tier 2 basis)
N    0.358896  1.332537  0.785727
C    0.289668  0.432409  1.990907
C    1.712272  0.090798  2.418704
O    2.693449  0.735856  1.980965
H    0.186877  0.740831  -0.038230
H    -0.463097  1.945323  0.810922
H    -0.115235  1.033582  2.824562
C    -0.642333  -0.784646  1.772918
C    -0.970262  -1.646618  3.003714
C    -1.507125  -0.906913  4.234633
C    -2.225160  -1.881380  5.191337
N    -3.319086  -2.550808  4.491800
H    -0.225973  -1.414079  0.969006
H    -1.591200  -0.373876  1.395047
H    -0.140902  -2.337297  3.273504
H    -1.762446  -2.352969  2.700709
H    -2.232818  -0.142398  3.907754
H    -0.718700  -0.373939  4.794585
H    -2.537320  -1.326304  6.091641
H    -1.509661  -2.644977  5.530895
H    -3.509748  -3.471851  4.881007
H    -4.186728  -2.018723  4.547156
O    1.927023  -0.850349  3.285210
H    1.091408  -1.340761  3.502516
Sr    2.705579  2.475621  0.512490
