25
Energy: -100716.930176 eV PBE+vdW (tier 2 basis)
N    0.935847  -3.108899  2.527904
C    0.285111  -2.176155  1.638801
C    0.889342  -2.072201  0.228362
O    0.383726  -1.263636  -0.638769
H    1.951522  -3.025530  2.507693
H    0.701042  -4.077568  2.323677
H    -0.743061  -2.537706  1.456728
C    0.147151  -0.782862  2.321274
C    -0.726355  -0.903845  3.581734
C    -0.635026  0.214664  4.630504
C    -1.348806  1.523233  4.324674
N    -0.603287  2.357682  3.283015
H    -0.269451  -0.082508  1.575712
H    1.159398  -0.432638  2.587806
H    -0.418804  -1.834225  4.079123
H    -1.779517  -1.046984  3.289650
H    0.415018  0.413887  4.906306
H    -1.102079  -0.151206  5.557150
H    -1.427641  2.164890  5.210417
H    -2.355869  1.364216  3.918317
H    -1.110566  3.223510  3.054486
H    0.328571  2.622815  3.630210
O    1.864112  -2.839559  -0.101338
H    -0.469104  1.821681  2.414164
Sr    1.694725  -2.219058  -2.318597
