25
Energy: -100715.644337 eV PBE+vdW (tier 2 basis)
N    1.014250  -1.448806  1.930947
C    -0.080389  -0.839654  2.753618
C    0.234756  -1.051184  4.223337
O    1.017353  -1.952629  4.590790
H    1.673379  -0.706503  1.669188
H    0.589791  -1.724027  1.036174
H    -0.151644  0.240478  2.546318
C    -1.449113  -1.494162  2.428560
C    -1.911563  -1.275646  0.978816
C    -2.032204  0.190333  0.560881
C    -2.651251  0.371748  -0.835284
N    -2.601711  1.771741  -1.226921
H    -2.199994  -1.073801  3.114196
H    -1.395677  -2.571604  2.662210
H    -2.886789  -1.777641  0.885976
H    -1.258992  -1.818844  0.269396
H    -1.048963  0.690730  0.540607
H    -2.644850  0.736070  1.298605
H    -3.669767  -0.063393  -0.835040
H    -2.066652  -0.205331  -1.567582
H    -2.687242  1.894671  -2.233845
H    -3.329037  2.331176  -0.782915
O    -0.342472  -0.331081  5.147816
H    -0.925389  0.372077  4.795860
Sr    2.294308  -3.322600  3.262776
