25
Energy: -100717.198824 eV PBE+vdW (tier 2 basis)
N    -0.086480  -2.877560  2.270214
C    0.110123  -1.780275  1.321661
C    1.137516  -2.169192  0.256891
O    2.383152  -2.287573  0.570271
H    -0.565547  -3.673207  1.851186
H    0.794638  -3.199560  2.672497
H    -0.839727  -1.625973  0.790601
C    0.511499  -0.491465  2.060260
C    -0.553310  -0.052392  3.075868
C    -0.105476  1.153522  3.913619
C    -0.992916  1.474326  5.108296
N    -2.396473  1.901849  4.682478
H    0.692652  0.308132  1.325393
H    1.468292  -0.662758  2.578186
H    -0.776061  -0.907562  3.732189
H    -1.484874  0.174717  2.526172
H    0.018665  2.052376  3.286828
H    0.890589  0.956646  4.339354
H    -0.597123  2.304613  5.704977
H    -1.134046  0.606132  5.764459
H    -2.989001  2.115020  5.496761
H    -2.364866  2.743927  4.090945
O    0.745426  -2.450099  -0.936210
H    -2.862316  1.160091  4.142008
Sr    2.889664  -3.049738  -1.559905
