25
Energy: -100717.119248 eV PBE+vdW (tier 2 basis)
N    -0.612847  -3.130947  1.721234
C    -0.507394  -2.044032  0.758413
C    0.868752  -2.026529  0.113186
O    1.557317  -3.113695  0.068478
H    -0.067914  -3.938809  1.421488
H    -1.580656  -3.433955  1.823185
H    -1.158560  -2.186766  -0.135444
C    -0.944331  -0.696756  1.373193
C    -0.218433  -0.332576  2.674315
C    -0.967958  0.757461  3.458186
C    -0.292346  1.059605  4.787849
N    -1.084682  2.092947  5.584878
H    -2.023088  -0.788066  1.574802
H    -0.836137  0.096881  0.621659
H    0.806176  0.007287  2.454138
H    -0.134271  -1.242424  3.287551
H    -2.000423  0.415968  3.642432
H    -1.037641  1.678559  2.855757
H    0.713412  1.480155  4.664917
H    -0.223742  0.172385  5.429640
H    -0.637384  2.307125  6.487237
H    -1.175437  2.976478  5.063754
O    1.305802  -0.967730  -0.473658
H    -2.037930  1.756606  5.782259
Sr    3.046717  -2.176173  -1.422451
