25
Energy: -100715.64279 eV PBE+vdW (tier 2 basis)
N    1.023719  0.160652  0.509680
C    0.615605  -0.355030  1.862052
C    1.843917  -0.959344  2.534950
O    2.993798  -0.752531  2.087362
H    0.746160  -0.549125  -0.181300
H    0.418927  0.958468  0.287325
H    0.365444  0.523494  2.483897
C    -0.630204  -1.271922  1.797167
C    -1.293707  -1.648465  3.137802
C    -1.602128  -0.474171  4.071903
C    -2.398665  -0.888178  5.320808
N    -2.552007  0.250061  6.214523
H    -0.377592  -2.183271  1.231089
H    -1.374442  -0.723741  1.199745
H    -0.728699  -2.444636  3.668799
H    -2.227493  -2.171949  2.881776
H    -2.171057  0.291778  3.518645
H    -0.685390  0.025942  4.432307
H    -1.844173  -1.671358  5.859670
H    -3.354352  -1.346756  5.001010
H    -3.309603  0.870484  5.931448
H    -2.732213  -0.037308  7.174363
O    1.723664  -1.659472  3.623094
H    0.776867  -1.810291  3.862574
Sr    3.624052  0.526810  0.302666
