25
Energy: -100716.24603 eV PBE+vdW (tier 2 basis)
N    -0.316280  0.812236  0.507276
C    -0.197161  0.161729  1.877422
C    1.283109  0.132352  2.250919
O    1.606709  -0.151297  3.444761
H    -1.124643  0.414010  0.002564
H    -0.442446  1.831227  0.558712
H    -0.744020  0.791188  2.592176
C    -0.799121  -1.254819  1.848185
C    -2.281711  -1.289728  1.446570
C    -2.881265  -2.703492  1.516253
C    -3.134578  -3.212505  2.941497
N    -3.584017  -4.595649  2.894719
H    -0.670360  -1.659897  2.860972
H    -0.204888  -1.894508  1.174508
H    -2.414107  -0.930595  0.407598
H    -2.858198  -0.603138  2.088732
H    -2.233384  -3.421891  0.990736
H    -3.834360  -2.696407  0.966988
H    -3.834546  -2.517327  3.450088
H    -2.201087  -3.195650  3.527457
H    -3.618080  -5.019556  3.820096
H    -4.511880  -4.686013  2.480923
O    2.159758  0.350741  1.339542
H    0.558227  0.629753  -0.016573
Sr    3.910425  -0.048711  2.956308
