25
Energy: -100715.583249 eV PBE+vdW (tier 2 basis)
N    0.320581  0.602016  0.360130
C    0.165348  0.333665  1.831619
C    1.550809  0.407783  2.475791
O    2.515821  0.916793  1.866445
H    -0.555696  1.017898  0.027021
H    0.347500  -0.310760  -0.113279
H    -0.381999  1.194096  2.258304
C    -0.643500  -0.948344  2.131219
C    -1.074026  -1.143299  3.601068
C    -2.276510  -2.089974  3.761041
C    -1.999410  -3.549538  3.378174
N    -3.201732  -4.340783  3.557610
H    -0.083799  -1.824350  1.767097
H    -1.558421  -0.883388  1.522273
H    -1.341101  -0.170618  4.045623
H    -0.253140  -1.580801  4.207724
H    -3.123767  -1.713499  3.167951
H    -2.598044  -2.050122  4.812376
H    -1.125043  -3.914501  3.959714
H    -1.718177  -3.621919  2.315592
H    -3.146311  -5.261551  3.128341
H    -3.473416  -4.449671  4.533669
O    1.738607  -0.010433  3.691929
H    0.926919  -0.433694  4.067758
Sr    2.560718  1.875260  -0.215925
