25
Energy: -100717.490808 eV PBE+vdW (tier 2 basis)
N    -0.318847  -0.450626  -0.176623
C    -0.421783  -0.288967  1.284259
C    0.832141  0.291379  1.941686
O    0.788455  0.604122  3.184381
H    -1.889305  -0.601082  -0.796315
H    0.153668  0.357742  -0.590025
H    -1.219308  0.445990  1.489552
C    -0.787591  -1.620150  1.982823
C    -1.918890  -2.427473  1.329719
C    -3.284196  -1.714466  1.165902
C    -3.761622  -1.609513  -0.277600
N    -2.956091  -0.593402  -1.067089
H    -1.038317  -1.386389  3.025993
H    0.108702  -2.260247  2.015623
H    -2.056739  -3.324926  1.946413
H    -1.583021  -2.814273  0.354922
H    -3.286011  -0.716650  1.634642
H    -4.060134  -2.273927  1.704624
H    -4.814031  -1.309033  -0.341957
H    -3.652144  -2.568960  -0.798028
H    -3.049331  -0.749241  -2.077579
H    -3.304255  0.354382  -0.881913
O    1.906911  0.454085  1.260637
H    0.276356  -1.252701  -0.402650
Sr    3.018044  1.261699  3.169772
