25
Energy: -100717.166131 eV PBE+vdW (tier 2 basis)
N    -0.964098  0.839022  0.092774
C    -0.641151  -0.096425  1.236876
C    0.772523  0.242155  1.779865
O    1.153649  1.476494  1.610742
H    -0.624877  0.389270  -0.767347
H    -1.982033  0.847472  -0.030053
H    -1.333769  0.176667  2.051879
C    -0.878060  -1.570840  0.849486
C    -1.240808  -2.595749  1.948529
C    -0.085096  -3.307807  2.685455
C    0.262341  -2.742084  4.072234
N    1.752920  -2.520831  4.211764
H    -0.014986  -1.935913  0.270421
H    -1.730007  -1.566196  0.152315
H    -1.829079  -3.374703  1.447194
H    -1.936320  -2.143166  2.673414
H    0.806884  -3.290867  2.042203
H    -0.345786  -4.366712  2.804998
H    -0.046338  -3.409650  4.884151
H    -0.191221  -1.760052  4.245016
H    2.286329  -3.374903  4.007775
H    2.003819  -1.775154  3.521606
O    1.436556  -0.615757  2.356690
H    2.012584  -2.208565  5.155513
Sr    0.306021  3.088295  0.390501
