25
Energy: -100715.742331 eV PBE+vdW (tier 2 basis)
N    -0.185845  -0.482248  -0.512968
C    0.369833  -0.565461  0.877487
C    1.795654  -1.074291  0.799073
O    2.171469  -1.774950  -0.167973
H    -1.208289  -0.534081  -0.419244
H    -0.020126  0.464360  -0.874646
H    0.347885  0.425519  1.359292
C    -0.466391  -1.548441  1.741992
C    -1.899615  -1.067707  1.981384
C    -2.661384  -1.939165  2.988128
C    -3.969506  -1.263923  3.435731
N    -3.694939  0.023484  4.072023
H    0.041386  -1.667474  2.710926
H    -0.446717  -2.548529  1.270064
H    -2.476893  -1.040365  1.038402
H    -1.892437  -0.039506  2.380585
H    -2.027921  -2.106300  3.874805
H    -2.883074  -2.932066  2.568821
H    -4.516888  -1.972949  4.080891
H    -4.609832  -1.085378  2.559015
H    -4.508108  0.636034  4.045829
H    -3.441656  -0.090040  5.053569
O    2.647671  -0.865185  1.767445
H    2.300059  -0.294943  2.482987
Sr    0.982321  -2.239671  -2.065531
