25
Energy: -100717.003781 eV PBE+vdW (tier 2 basis)
N    0.190524  1.682534  1.401958
C    1.244604  0.689409  1.648114
C    1.464538  -0.156290  0.395138
O    2.315092  0.257163  -0.480485
H    -2.203606  0.243507  6.276456
H    0.531079  2.460086  0.837940
H    2.179805  1.248723  1.779989
C    0.996336  -0.114618  2.942160
C    -0.454579  -0.519717  3.230913
C    -0.573299  -1.228736  4.588786
C    -1.995293  -1.490701  5.065406
N    -2.689796  -0.195631  5.481968
H    1.346483  0.520959  3.769303
H    1.642459  -1.005808  2.945039
H    -0.843858  -1.177353  2.438960
H    -1.063048  0.401927  3.210257
H    -0.024479  -0.670245  5.366716
H    -0.080042  -2.210970  4.541941
H    -2.022965  -2.139038  5.948996
H    -2.627295  -1.934172  4.285608
H    -3.665451  -0.359531  5.765798
H    -2.695246  0.486359  4.710584
O    0.785633  -1.230345  0.169845
H    -0.621930  1.283687  0.931557
Sr    1.925332  -1.540200  -1.849945
