25
Energy: -100717.102773 eV PBE+vdW (tier 2 basis)
N    -1.046076  -2.092769  1.292825
C    -0.447133  -1.123189  0.376964
C    0.911405  -1.603512  -0.113717
O    1.720216  -0.780278  -0.681307
H    -0.722910  -3.034636  1.068147
H    -2.060547  -2.095495  1.187523
H    -1.004167  -1.046157  -0.583933
C    -0.410579  0.307269  0.954177
C    0.173673  0.441347  2.373079
C    -0.875000  0.265835  3.486015
C    -0.275994  0.506145  4.863247
N    -1.340135  0.378146  5.949714
H    -1.437233  0.702205  0.938907
H    0.160487  0.935078  0.259058
H    0.631236  1.437426  2.466724
H    0.985315  -0.288834  2.521507
H    -1.290350  -0.751588  3.419209
H    -1.698587  0.979379  3.315015
H    0.143881  1.514413  4.971508
H    0.502090  -0.224806  5.116705
H    -2.096217  1.062985  5.808568
H    -1.770188  -0.557322  5.937915
O    1.211826  -2.853587  -0.047020
H    -0.951215  0.533012  6.890314
Sr    3.070201  -2.515070  -1.398144
