25
Energy: -100716.93378 eV PBE+vdW (tier 2 basis)
N    -1.422414  1.121299  3.088173
C    -0.787792  0.125505  2.238874
C    0.724378  0.261290  2.374738
O    1.209821  0.715914  3.474945
H    -4.214407  -2.306580  -1.828733
H    -1.004295  1.142185  4.017722
H    -0.966973  -0.928205  2.566906
C    -1.279123  0.279179  0.777708
C    -1.424377  -1.019319  -0.032525
C    -2.630293  -1.869906  0.398642
C    -2.861872  -3.137628  -0.412929
N    -3.323414  -2.823056  -1.834922
H    -0.611534  0.966195  0.243174
H    -2.251683  0.790254  0.823873
H    -0.501047  -1.616048  0.030800
H    -1.521622  -0.723923  -1.092087
H    -3.550199  -1.260605  0.399250
H    -2.507512  -2.205223  1.439750
H    -3.648937  -3.765948  0.020275
H    -1.951622  -3.741124  -0.520133
H    -2.633898  -2.242199  -2.331682
H    -3.465400  -3.681116  -2.385663
O    1.512732  -0.082729  1.418267
H    -2.419071  0.937702  3.194803
Sr    3.346557  0.712084  2.629777
