25
Energy: -100716.228948 eV PBE+vdW (tier 2 basis)
N    -0.640592  -0.063615  -0.024928
C    -0.112286  -0.304599  1.349104
C    1.399793  -0.450993  1.290531
O    1.975415  -0.784031  0.232932
H    -1.649079  -0.462147  -0.086574
H    -0.772338  0.947810  -0.142628
H    -0.354523  0.543925  2.010415
C    -0.705905  -1.606288  1.973759
C    -1.897621  -1.379307  2.918076
C    -3.160996  -0.712786  2.355452
C    -3.827483  -1.437063  1.179851
N    -3.321245  -0.948075  -0.139756
H    0.075424  -2.133165  2.540969
H    -0.971803  -2.283139  1.145114
H    -1.547707  -0.799604  3.786796
H    -2.170895  -2.366486  3.320705
H    -2.973025  0.339576  2.079365
H    -3.882179  -0.655673  3.182041
H    -4.918188  -1.316729  1.236983
H    -3.630627  -2.517057  1.234895
H    -3.636917  -1.594057  -0.868319
H    -3.803575  -0.069962  -0.355300
O    2.139418  -0.288180  2.357518
H    1.632079  -0.010557  3.146719
Sr    0.958234  -0.931679  -1.819996
