25
Energy: -100717.057265 eV PBE+vdW (tier 2 basis)
N    -0.868867  0.658023  -0.139466
C    -0.500437  0.085933  1.207194
C    1.011158  0.352624  1.474412
O    1.426828  1.513956  1.007454
H    -0.608113  -0.034913  -0.851867
H    -1.891093  0.701755  -0.204878
H    -1.042240  0.697047  1.949378
C    -0.925703  -1.381645  1.367925
C    -0.868388  -1.918941  2.821601
C    0.208462  -2.996024  3.030223
C    0.321358  -3.386352  4.496071
N    1.446907  -4.394564  4.700634
H    -0.302453  -2.004987  0.707803
H    -1.956586  -1.475991  0.997440
H    -1.851839  -2.325913  3.095023
H    -0.676813  -1.087487  3.516086
H    1.168208  -2.587656  2.679316
H    -0.033771  -3.884644  2.424448
H    -0.587380  -3.861167  4.887236
H    0.569819  -2.527663  5.132488
H    2.348209  -4.004687  4.389805
H    1.545570  -4.664588  5.689215
O    1.696079  -0.447367  2.085135
H    1.281171  -5.253647  4.157739
Sr    0.560914  2.822896  -0.482416
