25
Energy: -100717.154876 eV PBE+vdW (tier 2 basis)
N    0.414135  -2.832264  2.664181
C    0.041859  -2.058890  1.495125
C    0.997238  -2.163154  0.300355
O    2.163223  -2.684714  0.442376
H    1.413712  -2.759985  2.856481
H    0.201228  -3.822027  2.552439
H    -0.919482  -2.440281  1.112828
C    -0.182304  -0.572330  1.884226
C    -1.447568  -0.440997  2.743090
C    -1.665623  0.924615  3.420571
C    -0.793710  1.111192  4.655613
N    -1.152259  2.405614  5.380301
H    -0.271815  0.045884  0.979414
H    0.714922  -0.232697  2.427596
H    -1.440008  -1.233676  3.506540
H    -2.322416  -0.634288  2.106259
H    -2.723826  0.990566  3.721382
H    -1.487056  1.742980  2.703503
H    0.276107  1.181205  4.425576
H    -0.940712  0.306092  5.386365
H    -2.139977  2.401127  5.673057
H    -0.578505  2.546833  6.223449
O    0.611677  -1.750640  -0.857533
H    -1.020388  3.224978  4.770800
Sr    2.518547  -2.599143  -1.848996
