25
Energy: -100716.916691 eV PBE+vdW (tier 2 basis)
N    -0.664236  1.240202  0.527406
C    -0.310428  0.013407  1.225332
C    1.073996  0.182434  1.842325
O    1.461985  1.360394  2.179805
H    -2.002559  -4.508519  -0.767354
H    -0.415321  2.063406  1.075164
H    -0.950097  -0.197326  2.117282
C    -0.401448  -1.193634  0.259877
C    -0.700045  -2.552545  0.913909
C    -2.166627  -2.759612  1.337987
C    -3.156130  -3.007598  0.204951
N    -2.962188  -4.390376  -0.413435
H    0.529069  -1.256938  -0.318692
H    -1.177824  -0.938872  -0.477931
H    -0.060411  -2.689350  1.796070
H    -0.378952  -3.353391  0.224111
H    -2.536046  -1.871481  1.873141
H    -2.244330  -3.579606  2.070294
H    -3.049313  -2.293682  -0.621306
H    -4.195307  -2.982144  0.552914
H    -3.127897  -5.132452  0.281138
H    -3.607876  -4.549435  -1.199304
O    1.840877  -0.829483  2.046943
H    -1.664133  1.284404  0.335916
Sr    3.525243  0.581200  2.841455
