25
Energy: -100717.416009 eV PBE+vdW (tier 2 basis)
N    0.179038  -0.898666  0.054073
C    -0.012999  -0.319833  1.404913
C    1.307675  -0.082225  2.137168
O    1.293766  0.568554  3.240352
H    -0.964958  -2.035098  -0.353436
H    0.225797  -0.150462  -0.640958
H    -0.464750  0.677291  1.293231
C    -0.991218  -1.137049  2.280908
C    -0.597018  -2.569483  2.673843
C    -0.547701  -3.669067  1.591665
C    -1.778981  -3.758851  0.686024
N    -1.617582  -2.903760  -0.557083
H    -1.967609  -1.123366  1.771569
H    -1.148502  -0.562802  3.203972
H    -1.323428  -2.890241  3.435139
H    0.373849  -2.561211  3.194458
H    -0.454160  -4.633827  2.108148
H    0.359563  -3.595607  0.971467
H    -2.685865  -3.416979  1.199403
H    -1.960096  -4.784990  0.349051
H    -1.167992  -3.444149  -1.304848
H    -2.522531  -2.588499  -0.923685
O    2.410958  -0.524754  1.651293
H    1.097112  -1.354823  0.018982
Sr    3.607670  0.528945  3.395278
