25
Energy: -100717.526835 eV PBE+vdW (tier 2 basis)
N    0.289585  0.026680  -0.110088
C    -0.197615  0.097381  1.333467
C    0.460283  -1.087297  2.058899
O    0.469711  -2.208069  1.444323
H    -0.314973  0.570219  -0.742680
H    1.253124  0.373957  -0.216816
H    0.148737  1.047140  1.758129
C    -1.736894  -0.004128  1.313287
C    -2.484022  0.135710  2.656071
C    -2.270499  -0.940504  3.736724
C    -2.534306  -2.384569  3.296901
N    -1.791926  -3.355798  4.177833
H    -2.012472  -0.945602  0.811486
H    -2.102716  0.809602  0.666190
H    -3.551845  0.181476  2.397749
H    -2.248940  1.113381  3.100322
H    -2.936819  -0.696008  4.576609
H    -1.252707  -0.850188  4.140894
H    -2.193252  -2.568407  2.268059
H    -3.611717  -2.600810  3.312685
H    -2.203754  -4.286124  4.040553
H    -2.022298  -3.134311  5.153845
O    0.878077  -0.936618  3.241096
H    0.275083  -0.968055  -0.399517
Sr    0.762158  -3.308058  3.621975
