25
Energy: -100717.136741 eV PBE+vdW (tier 2 basis)
N    -1.243830  0.325694  0.867990
C    -0.061384  -0.377884  1.348632
C    1.249487  0.418617  1.272929
O    1.305652  1.517132  0.610660
H    -2.231154  -4.106796  -0.949252
H    -1.041578  0.796837  -0.016012
H    -0.189428  -0.588805  2.423604
C    0.100571  -1.734485  0.615294
C    -0.733717  -2.885422  1.209797
C    -2.245831  -2.664621  1.390709
C    -3.064297  -2.465170  0.124841
N    -3.162559  -3.756642  -0.687443
H    1.151728  -2.051590  0.647942
H    -0.138622  -1.565746  -0.447177
H    -0.326224  -3.132026  2.201213
H    -0.538504  -3.791444  0.608138
H    -2.426470  -1.767202  1.996409
H    -2.667861  -3.500451  1.972821
H    -2.633658  -1.706661  -0.538688
H    -4.098280  -2.179878  0.350613
H    -3.625462  -4.498396  -0.143289
H    -3.702565  -3.623099  -1.553068
O    2.288558  -0.019276  1.893007
H    -1.529011  1.058873  1.517875
Sr    3.502440  1.861441  1.306456
