25
Energy: -100715.756864 eV PBE+vdW (tier 2 basis)
N    0.770240  1.194864  1.381875
C    0.262268  0.240306  2.424300
C    1.439441  -0.239564  3.254196
O    2.605152  -0.201977  2.798451
H    0.095359  1.177848  0.608327
H    0.700179  2.150456  1.751662
H    -0.461971  0.746155  3.081131
C    -0.433143  -0.962889  1.738873
C    -1.019028  -2.040515  2.660213
C    -2.035795  -1.548988  3.706047
C    -3.165264  -0.658578  3.156938
N    -3.666822  -1.174026  1.880166
H    0.282646  -1.430090  1.039135
H    -1.264526  -0.554019  1.139507
H    -0.223723  -2.624606  3.148209
H    -1.528301  -2.746647  1.991979
H    -1.558921  -0.999175  4.545393
H    -2.465631  -2.439943  4.186340
H    -2.791386  0.363001  2.970697
H    -3.931279  -0.552218  3.945057
H    -4.148228  -2.065645  2.013646
H    -4.366177  -0.540185  1.492517
O    1.257711  -0.750308  4.437803
H    0.308609  -0.778583  4.698106
Sr    3.262231  0.661193  0.786224
