25
Energy: -100715.596188 eV PBE+vdW (tier 2 basis)
N    0.270046  0.260529  0.039726
C    0.371532  -0.420073  1.374517
C    1.821162  -0.871437  1.565639
O    2.734116  -0.427802  0.840697
H    -0.089804  -0.433408  -0.628989
H    -0.487665  0.948472  0.099501
H    0.216778  0.359256  2.143165
C    -0.672010  -1.534328  1.593670
C    -2.129127  -1.054007  1.537055
C    -3.113991  -2.183471  1.860598
C    -4.582116  -1.736681  1.796275
N    -5.463497  -2.859234  2.054448
H    -0.512450  -1.982414  2.590547
H    -0.500338  -2.344530  0.864975
H    -2.362344  -0.657148  0.534261
H    -2.266599  -0.219602  2.245540
H    -2.899957  -2.578237  2.867507
H    -2.977573  -3.022562  1.161677
H    -4.805766  -1.359169  0.787258
H    -4.734787  -0.885574  2.491578
H    -5.487899  -3.153962  3.028796
H    -6.414007  -2.718871  1.721382
O    2.147887  -1.697818  2.520757
H    1.373295  -2.029357  3.020726
Sr    2.605499  1.107667  -0.867460
