25
Energy: -100715.612136 eV PBE+vdW (tier 2 basis)
N    0.598877  -0.058373  0.160412
C    0.317053  0.051153  1.630123
C    1.619838  0.411553  2.329767
O    2.718278  0.090268  1.832058
H    -0.128092  -0.657546  -0.246600
H    0.436430  0.858568  -0.273095
H    -0.433195  0.835591  1.819694
C    -0.228482  -1.297510  2.168809
C    -0.625548  -1.318976  3.649432
C    -1.332834  -2.628071  4.025628
C    -1.718912  -2.692749  5.511073
N    -2.330654  -3.972488  5.817124
H    0.514120  -2.089800  1.968046
H    -1.116065  -1.531597  1.558344
H    -1.296747  -0.468761  3.863550
H    0.264130  -1.202184  4.289478
H    -0.685578  -3.489420  3.800534
H    -2.238853  -2.746170  3.409326
H    -2.362359  -1.823364  5.757873
H    -0.813235  -2.596089  6.127974
H    -2.300017  -4.210223  6.805534
H    -3.288530  -4.062084  5.483186
O    1.623638  1.020436  3.485173
H    0.727520  1.235845  3.815146
Sr    3.103324  -0.778416  -0.269499
