25
Energy: -100716.426268 eV PBE+vdW (tier 2 basis)
N    -0.271174  0.682698  0.345088
C    -0.184987  0.031884  1.717530
C    1.276356  0.025411  2.147496
O    1.558282  -0.252133  3.355015
H    -1.086078  0.296936  -0.160389
H    -0.375470  1.704166  0.392854
H    -0.772975  0.645907  2.413408
C    -0.776250  -1.387760  1.670914
C    -2.218768  -1.404845  1.148850
C    -2.934888  -2.747386  1.379269
C    -2.990459  -3.179265  2.851734
N    -3.347867  -2.051413  3.723297
H    -0.762665  -1.744879  2.709136
H    -0.126601  -2.053669  1.079758
H    -2.255946  -1.200020  0.061307
H    -2.787405  -0.614357  1.662114
H    -2.464042  -3.544963  0.785531
H    -3.956946  -2.641730  0.985817
H    -2.004309  -3.548755  3.174596
H    -3.671181  -4.045105  2.925701
H    -4.325399  -1.788424  3.580872
H    -3.281954  -2.330468  4.702446
O    2.189870  0.256527  1.274231
H    0.597971  0.480139  -0.177115
Sr    3.864930  -0.098950  2.960642
