25
Energy: -100717.21591 eV PBE+vdW (tier 2 basis)
N    0.565946  -2.793820  2.511499
C    0.043649  -1.994895  1.420974
C    0.646936  -2.287425  0.039446
O    1.763670  -2.915697  -0.057241
H    1.586468  -2.814534  2.506361
H    0.245043  -3.759485  2.465362
H    -1.032805  -2.206605  1.315778
C    0.198724  -0.482301  1.727182
C    -0.519074  -0.088269  3.025446
C    -0.251989  1.368100  3.430642
C    -0.687286  1.731798  4.843550
N    -2.200461  1.624051  5.023993
H    -0.181835  0.103285  0.878037
H    1.272763  -0.253039  1.825020
H    -0.183691  -0.773564  3.819077
H    -1.601023  -0.266724  2.888169
H    -0.694584  2.073678  2.708025
H    0.830855  1.565835  3.404715
H    -0.429404  2.765682  5.101686
H    -0.251182  1.062290  5.595723
H    -2.484461  1.873057  5.981551
H    -2.697627  2.252724  4.377777
O    0.023805  -1.908335  -1.021776
H    -2.528519  0.666110  4.839393
Sr    1.605084  -2.931915  -2.369389
