25
Energy: -100717.01134 eV PBE+vdW (tier 2 basis)
N    -0.185503  -3.269547  1.372773
C    -0.563708  -2.051990  0.661262
C    0.638841  -1.712462  -0.216121
O    1.799682  -1.515572  0.307100
H    -0.997643  -3.787645  1.702545
H    0.444461  -3.099251  2.154449
H    -1.354989  -2.327021  -0.048110
C    -1.115238  -0.856884  1.485510
C    -0.266301  -0.367779  2.665259
C    -1.038974  0.658302  3.514236
C    -0.240785  1.110842  4.728915
N    -1.044017  2.091192  5.579370
H    -2.096150  -1.185977  1.864128
H    -1.322955  -0.021741  0.796871
H    0.676920  0.072964  2.309434
H    0.008166  -1.221204  3.305897
H    -1.989078  0.206960  3.845696
H    -1.299644  1.531317  2.893337
H    0.683103  1.635178  4.454947
H    0.016118  0.276928  5.394112
H    -0.514673  2.405162  6.405058
H    -1.304119  2.928581  5.039163
O    0.506105  -1.726605  -1.493527
H    -1.918120  1.662184  5.915420
Sr    2.774501  -1.959932  -1.760721
