25
Energy: -100717.239302 eV PBE+vdW (tier 2 basis)
N    2.302849  -0.809220  3.156267
C    1.348842  -1.023296  2.065737
C    2.047190  -0.839890  0.719254
O    2.341359  0.340044  0.287758
H    -4.093362  0.888831  6.319316
H    2.993480  -1.555041  3.224531
H    1.032591  -2.075094  2.106437
C    0.125472  -0.105784  2.231935
C    -0.650070  -0.447530  3.510677
C    -1.774582  0.552032  3.825035
C    -2.492657  0.162573  5.109925
N    -3.605764  1.149531  5.450542
H    -0.527148  -0.202004  1.350483
H    0.467435  0.940922  2.256046
H    0.061208  -0.481945  4.349100
H    -1.077270  -1.458913  3.418422
H    -2.494735  0.586609  2.990452
H    -1.349732  1.564318  3.928580
H    -1.819592  0.156621  5.976329
H    -2.974174  -0.820607  5.037501
H    -4.309061  1.192187  4.699678
H    -3.233807  2.101452  5.576130
O    2.416124  -1.877628  0.051217
H    2.786588  0.085675  3.076650
Sr    3.460815  -0.565839  -1.530002
