25
Energy: -100715.572977 eV PBE+vdW (tier 2 basis)
N    0.778130  0.506989  1.018363
C    -0.083174  0.054175  2.162836
C    0.807260  -0.125395  3.392634
O    1.967794  0.331336  3.423847
H    0.988386  -0.331543  0.459013
H    0.191895  1.073779  0.396563
H    -0.743193  0.901017  2.423009
C    -0.964481  -1.168530  1.836092
C    -0.192965  -2.456779  1.514044
C    -1.104190  -3.629778  1.120491
C    -1.986044  -4.163926  2.259222
N    -2.780433  -5.278764  1.784434
H    -1.617269  -0.890481  0.994115
H    -1.667422  -1.330179  2.671215
H    0.435441  -2.751532  2.372878
H    0.501594  -2.282530  0.672405
H    -0.465977  -4.448320  0.756094
H    -1.747758  -3.346111  0.274093
H    -2.691071  -3.387827  2.597204
H    -1.339541  -4.406590  3.131466
H    -2.234828  -6.116048  1.587609
H    -3.552564  -5.521654  2.400311
O    0.351249  -0.712525  4.465111
H    -0.553293  -1.070023  4.348244
Sr    3.065842  1.540029  1.804825
