25
Energy: -100715.055566 eV PBE+vdW (tier 2 basis)
N    0.111081  -0.607324  -0.369985
C    -0.099983  -0.046082  0.965068
C    1.195610  -0.532179  1.580625
O    2.280764  0.142623  1.502954
H    -0.743471  -1.125478  -0.719226
H    0.401689  0.094412  -1.046718
H    -0.085884  1.054569  0.982644
C    -1.385101  -0.529246  1.649619
C    -1.637482  -2.063899  1.710433
C    -2.977313  -2.530008  1.097681
C    -2.895450  -2.912524  -0.380394
N    -2.375871  -1.814292  -1.228875
H    -2.206594  -0.046746  1.103610
H    -1.420361  -0.102472  2.662199
H    -1.606954  -2.389319  2.760920
H    -0.857798  -2.631818  1.164542
H    -3.738580  -1.749658  1.256422
H    -3.338978  -3.411931  1.643136
H    -3.885148  -3.262536  -0.715279
H    -2.206816  -3.763150  -0.494530
H    -3.066042  -1.060542  -1.281500
H    -2.270969  -2.150841  -2.188489
O    1.311219  -1.699991  2.162684
H    0.438233  -2.165770  2.171672
Sr    4.411087  0.560016  1.645822
