25
Energy: -100715.560395 eV PBE+vdW (tier 2 basis)
N    0.855328  1.616528  0.304452
C    0.760904  0.908512  1.626220
C    1.423870  1.796077  2.682248
O    1.644985  3.003441  2.459617
H    1.676081  1.236659  -0.186067
H    0.067909  1.301315  -0.271644
H    -0.309214  0.896921  1.904455
C    1.272642  -0.544612  1.602696
C    0.519359  -1.452707  0.616565
C    1.005182  -2.909742  0.643246
C    0.605094  -3.698319  1.897839
N    1.162702  -5.035942  1.841411
H    1.160866  -0.975573  2.612920
H    2.353784  -0.551167  1.383093
H    0.645440  -1.071683  -0.409484
H    -0.561470  -1.413246  0.836045
H    2.099444  -2.951564  0.529401
H    0.590233  -3.419169  -0.239160
H    -0.500690  -3.674775  1.999405
H    1.009683  -3.219559  2.804803
H    0.777639  -5.606466  1.090118
H    1.085711  -5.546532  2.718077
O    1.731820  1.325630  3.858837
H    1.562857  0.363692  3.939068
Sr    1.202868  4.221214  0.558902
