25
Energy: -100717.384877 eV PBE+vdW (tier 2 basis)
N    0.310620  0.966620  0.768326
C    0.246501  0.242185  2.105093
C    1.162080  -0.978318  1.976797
O    1.651642  -1.488532  3.021810
H    -0.554944  1.485367  0.565078
H    1.096620  1.629487  0.720579
H    0.607936  0.926342  2.881632
C    -1.204290  -0.204534  2.380646
C    -1.430361  -0.838139  3.780972
C    -1.953136  -2.287959  3.834988
C    -0.941913  -3.434054  3.714673
N    -0.532754  -3.811796  2.302925
H    -1.522102  -0.884844  1.573940
H    -1.841550  0.688194  2.288874
H    -2.166844  -0.213178  4.300031
H    -0.513688  -0.763597  4.383444
H    -2.775436  -2.436714  3.115446
H    -2.421232  -2.411677  4.822278
H    -1.364498  -4.332138  4.180189
H    -0.038179  -3.176802  4.288694
H    -0.941939  -4.727304  2.095264
H    -1.010696  -3.188447  1.645272
O    1.289602  -1.489657  0.809821
H    0.465234  0.237779  0.043101
Sr    2.005127  -3.573358  1.894113
