25
Energy: -100717.188314 eV PBE+vdW (tier 2 basis)
N    -1.447587  1.135859  0.805294
C    -0.814903  0.035032  1.619692
C    0.645726  0.430732  1.946819
O    1.231895  1.164748  1.044612
H    -2.295433  0.761346  0.366239
H    -1.801630  1.843821  1.459241
H    -1.365747  -0.083205  2.563763
C    -0.862910  -1.291634  0.821401
C    -0.902151  -2.616571  1.608297
C    0.345826  -3.000929  2.434213
C    0.214202  -2.691358  3.934230
N    1.511918  -2.159989  4.496699
H    -0.027114  -1.317672  0.101766
H    -1.784217  -1.275105  0.216444
H    -1.073978  -3.403343  0.862272
H    -1.797056  -2.632161  2.249591
H    1.230228  -2.492299  2.022666
H    0.537704  -4.074520  2.314526
H    -0.068289  -3.575767  4.515923
H    -0.521733  -1.903966  4.129940
H    1.674913  -1.237794  4.019995
H    1.458958  -2.007430  5.511506
O    1.186850  0.029089  2.976333
H    2.301473  -2.792097  4.316698
Sr    0.391055  2.280213  -0.649157
