25
Energy: -100717.46029 eV PBE+vdW (tier 2 basis)
N    1.460700  -0.840383  0.634875
C    0.534400  -0.270200  1.639704
C    1.268201  0.377855  2.815630
O    0.595196  1.064685  3.661745
H    0.849529  -2.205153  -0.080166
H    1.698096  -0.132855  -0.063631
H    -0.034658  0.545310  1.169067
C    -0.500419  -1.305376  2.139548
C    0.073697  -2.626441  2.712180
C    -0.233996  -3.903272  1.907045
C    0.635587  -4.201238  0.690185
N    0.476397  -3.187329  -0.419358
H    -1.185975  -1.511010  1.304192
H    -1.121126  -0.804109  2.892706
H    -0.349984  -2.775321  3.713193
H    1.162848  -2.552473  2.869656
H    -1.298197  -3.916860  1.619042
H    -0.107725  -4.773009  2.568016
H    0.389630  -5.185610  0.274264
H    1.703076  -4.202475  0.948744
H    1.006251  -3.470572  -1.252071
H    -0.506812  -3.102845  -0.703127
O    2.537673  0.236015  2.947613
H    2.348082  -1.071866  1.093324
Sr    2.510050  1.671010  4.823297
