25
Energy: -100716.45146 eV PBE+vdW (tier 2 basis)
N    1.172396  -0.351146  0.470629
C    0.637173  -0.274588  1.896885
C    1.583297  -1.074412  2.779796
O    1.547834  -0.907722  4.040085
H    0.395393  -0.275069  -0.201440
H    1.857175  0.386461  0.258556
H    0.641792  0.780152  2.201782
C    -0.798667  -0.828204  1.913213
C    -1.589514  -0.532653  3.196456
C    -3.098050  -0.777317  3.015734
C    -3.818967  0.240793  2.124539
N    -3.395106  0.155788  0.708793
H    -0.780960  -1.910986  1.704876
H    -1.364441  -0.343658  1.087231
H    -1.430596  0.518872  3.487265
H    -1.214354  -1.140574  4.032593
H    -3.568201  -0.747401  4.008707
H    -3.273222  -1.797502  2.634626
H    -3.590836  1.257266  2.478593
H    -4.906436  0.105669  2.247764
H    -3.738301  0.969945  0.196834
H    -3.837620  -0.651587  0.263908
O    2.356474  -1.949285  2.236016
H    1.646063  -1.264343  0.351763
Sr    3.135294  -2.592240  4.408266
