25
Energy: -100717.531712 eV PBE+vdW (tier 2 basis)
N    1.272268  0.117167  0.430037
C    0.227315  -0.103653  1.518745
C    0.929319  -0.907929  2.620128
O    0.376518  -1.006139  3.748810
H    1.728411  1.035348  0.511898
H    1.998591  -0.616419  0.575663
H    -0.074531  0.880282  1.895619
C    -0.999840  -0.867449  0.971804
C    -0.821108  -2.390931  0.772630
C    -1.330274  -3.220950  1.973061
C    -0.780297  -4.639200  2.090240
N    0.687050  -4.677685  2.445142
H    -1.303578  -0.377736  0.033867
H    -1.824853  -0.673544  1.670918
H    0.234023  -2.622351  0.549917
H    -1.374693  -2.698085  -0.123867
H    -2.424729  -3.299680  1.898301
H    -1.161592  -2.677553  2.916789
H    -0.952970  -5.203336  1.161719
H    -1.315505  -5.169285  2.888256
H    0.921390  -5.659815  2.629088
H    1.221768  -4.464469  1.595085
O    1.993767  -1.545496  2.297420
H    0.875943  0.044074  -0.515886
Sr    1.615605  -3.007164  4.234615
