25
Energy: -100717.525862 eV PBE+vdW (tier 2 basis)
N    -0.180877  -1.067233  -0.704108
C    -0.372005  -0.376558  0.641951
C    1.007169  -0.321894  1.305030
O    1.917473  -1.107505  0.864885
H    -0.096252  -0.393484  -1.476485
H    0.717473  -1.590963  -0.635325
H    -0.738056  0.639049  0.450003
C    -1.360913  -1.135370  1.544811
C    -0.945958  -2.574340  1.949946
C    -0.942848  -2.836969  3.468936
C    0.142860  -2.135159  4.285843
N    1.550092  -2.613254  3.970163
H    -2.344709  -1.134570  1.053343
H    -1.487160  -0.496812  2.430251
H    0.041166  -2.832191  1.529244
H    -1.641041  -3.291724  1.495023
H    -0.874647  -3.922298  3.642080
H    -1.915380  -2.536900  3.887360
H    -0.045461  -2.307742  5.352144
H    0.101006  -1.046787  4.133691
H    1.915003  -3.073912  4.809406
H    1.479008  -3.382460  3.294501
O    1.150821  0.412002  2.321965
H    -0.948652  -1.712411  -0.930330
Sr    3.106890  -0.779515  2.997672
