25
Energy: -100717.054235 eV PBE+vdW (tier 2 basis)
N    -0.661972  0.262005  -0.371282
C    -0.498109  -0.096510  1.083706
C    0.928667  0.338360  1.538803
O    1.295446  1.507361  1.055100
H    -0.198234  -0.465281  -0.928955
H    -1.652010  0.170355  -0.620785
H    -1.206629  0.547950  1.631081
C    -0.788839  -1.564416  1.417422
C    -1.094966  -1.778515  2.918570
C    -0.548899  -3.088529  3.515073
C    0.946011  -3.009065  3.802766
N    1.438627  -4.299221  4.452787
H    0.080810  -2.161684  1.104039
H    -1.644504  -1.916415  0.822747
H    -2.182362  -1.766365  3.068061
H    -0.697467  -0.940683  3.508642
H    -0.765364  -3.931400  2.837903
H    -1.086331  -3.292067  4.455051
H    1.187655  -2.203241  4.505819
H    1.556770  -2.856167  2.906425
H    1.284914  -5.112565  3.840685
H    2.444884  -4.254603  4.665231
O    1.596559  -0.368354  2.273309
H    0.942460  -4.485142  5.336040
Sr    0.570883  2.557187  -0.698241
