25
Energy: -100715.650966 eV PBE+vdW (tier 2 basis)
N    0.197023  -0.542539  0.340704
C    0.650889  -0.522225  1.770133
C    1.735954  -1.576891  1.935126
O    1.775887  -2.567129  1.174567
H    -0.748879  -0.131421  0.326475
H    0.765367  0.130007  -0.188523
H    1.052070  0.470873  2.031716
C    -0.507331  -0.867271  2.744048
C    -1.576201  0.225233  2.921770
C    -2.461068  0.522608  1.706322
C    -3.683383  1.406802  2.027154
N    -4.451954  1.652684  0.811595
H    -0.066111  -1.092187  3.726798
H    -0.975848  -1.810998  2.408011
H    -1.095082  1.149812  3.277792
H    -2.217382  -0.110602  3.751182
H    -2.834116  -0.419751  1.263572
H    -1.918161  1.071746  0.914547
H    -3.326921  2.365712  2.429058
H    -4.266932  0.927467  2.833503
H    -5.234255  1.007055  0.717784
H    -4.841957  2.592604  0.796050
O    2.607717  -1.515205  2.904929
H    2.537681  -0.705663  3.450894
Sr    0.457997  -2.915125  -0.679629
