27
Energy: -606754.801435 eV PBE+vdW (tier 2 basis)
C    0.282332  0.967917  0.063492
C    -0.098694  0.307497  1.352631
O    -0.018442  0.818309  2.455774
H    0.329443  0.280543  -0.788651
H    1.251249  1.465093  0.190858
H    -0.451344  1.757056  -0.155277
N    -0.573848  -1.031064  1.253032
C    -1.123319  -1.601934  2.457730
C    -0.322819  -2.786112  2.978193
O    -0.695360  -3.414312  4.054258
H    -0.885290  -1.362918  0.343358
H    -0.956375  -0.783120  3.200356
C    -2.644405  -1.844522  2.340893
O    -3.208766  -1.918723  3.741263
C    -3.084515  -3.058028  1.551105
H    -3.066083  -0.918159  1.928270
H    -4.121345  -1.571938  3.739801
H    -4.178442  -3.128477  1.507115
H    -2.685319  -3.993855  1.965077
H    -2.737644  -2.976360  0.511264
N    0.781793  -3.123343  2.365168
C    1.736202  -4.159051  2.758088
H    0.991983  -2.544745  1.545732
H    1.847383  -4.875635  1.935340
H    1.379237  -4.673477  3.652408
H    2.709060  -3.692382  2.956399
Pb    -2.269673  -3.088260  5.528323
