27
Energy: -606754.963986 eV PBE+vdW (tier 2 basis)
C    0.039807  -1.051520  0.636843
C    0.022842  -0.130788  1.799944
O    1.127176  0.323393  2.274217
H    -0.937196  -1.486100  0.408298
H    0.742286  -1.864728  0.880970
H    0.456003  -0.554081  -0.251166
N    -1.127042  0.234906  2.402572
C    -2.289126  0.717498  1.668354
C    -2.041514  2.223203  1.366606
O    -0.880308  2.757466  1.566687
H    -0.997026  0.665846  3.319634
H    -2.328024  0.206726  0.694553
C    -3.620928  0.390529  2.396482
O    -4.621015  0.803561  1.454190
C    -3.783081  1.043474  3.763031
H    -3.637692  -0.707433  2.501236
H    -5.507005  0.570236  1.780056
H    -3.736667  2.139684  3.710341
H    -3.033315  0.679845  4.481114
H    -4.757116  0.771526  4.190303
N    -3.040723  2.910421  0.874363
C    -3.025322  4.312253  0.461574
H    -3.930481  2.381800  0.827291
H    -2.025244  4.731469  0.585007
H    -3.743216  4.875193  1.071133
H    -3.331245  4.377476  -0.589738
Pb    1.251172  2.589147  2.276104
