27
Energy: -606754.347373 eV PBE+vdW (tier 2 basis)
C    -0.077500  -1.010023  0.677133
C    -0.708500  -0.034237  1.585508
O    0.047731  0.578263  2.450229
H    0.399639  -1.805257  1.268628
H    0.728184  -0.513460  0.117068
H    -0.794842  -1.452387  -0.021284
N    -2.007232  0.242129  1.571157
C    -2.598319  1.208813  2.460969
C    -2.996730  0.846272  3.762537
O    -3.393229  1.793177  4.622969
H    -2.565884  -0.240761  0.865804
H    -0.549284  1.208288  2.946033
C    -3.036379  2.486599  1.810065
O    -2.402561  3.669328  2.571611
C    -4.531349  2.739106  1.683801
H    -2.562808  2.536886  0.820660
H    -2.329087  4.437942  1.972354
H    -5.059317  2.644426  2.642375
H    -4.964776  1.988710  1.008391
H    -4.745371  3.722768  1.245779
N    -2.999084  -0.380177  4.311657
C    -2.980253  -1.684296  3.654277
H    -3.173725  -0.374566  5.313074
H    -1.965327  -1.995991  3.372615
H    -3.634724  -1.691257  2.774860
H    -3.369129  -2.421213  4.363407
Pb    -3.061139  3.897920  4.819319
