27
Energy: -606755.36242 eV PBE+vdW (tier 2 basis)
C    -0.406906  -1.651561  0.233810
C    -0.712373  -1.060425  1.570143
O    -0.497518  -1.772876  2.606058
H    -0.628070  -0.983184  -0.604571
H    -0.986743  -2.578663  0.119817
H    0.653587  -1.937461  0.201773
N    -1.210369  0.182099  1.606235
C    -1.704755  1.050664  2.693347
C    -0.648297  1.451458  3.730779
O    0.014438  0.598627  4.422330
H    -1.312489  0.601908  0.685258
H    -1.976456  1.975313  2.169692
C    -3.065049  0.620781  3.338937
O    -3.407570  1.773650  4.091664
C    -3.105037  -0.644680  4.198051
H    -3.752611  0.474840  2.486029
H    -4.363820  1.796560  4.264031
H    -4.125093  -0.802641  4.575579
H    -2.490210  -0.518763  5.111142
H    -2.846915  -1.549360  3.630352
N    -0.463681  2.741237  3.920856
C    0.430983  3.346653  4.908607
H    -1.049087  3.379743  3.385224
H    1.020805  4.129599  4.418751
H    1.094868  2.584067  5.319696
H    -0.165300  3.796844  5.712781
Pb    -0.057332  -1.599426  4.779632
