27
Energy: -606754.579997 eV PBE+vdW (tier 2 basis)
C    0.107472  -0.926255  1.044929
C    -0.720692  -0.129013  2.003609
O    -0.575344  -0.105817  3.223473
H    0.426210  -1.856048  1.527302
H    1.017260  -0.354464  0.807150
H    -0.412677  -1.148199  0.105785
N    -1.747243  0.655858  1.474187
C    -2.353146  1.562718  2.405469
C    -2.952315  0.878895  3.646911
O    -2.933924  1.567830  4.752503
H    -1.825137  0.809844  0.472734
H    -1.545039  2.184495  2.854497
C    -3.331327  2.543660  1.721721
O    -3.546940  3.635058  2.718976
C    -4.659978  1.992135  1.253729
H    -2.780849  3.013058  0.891973
H    -4.071565  4.345063  2.302990
H    -5.263780  2.775704  0.777093
H    -5.240576  1.550761  2.073245
H    -4.494453  1.223442  0.486274
N    -3.581229  -0.274488  3.684284
C    -3.745609  -1.320317  2.670053
H    -3.899724  -0.524724  4.623239
H    -4.676119  -1.853111  2.889452
H    -2.907182  -2.027275  2.729472
H    -3.799860  -0.896143  1.667634
Pb    -2.731235  3.721332  4.973316
