27
Energy: -606755.465713 eV PBE+vdW (tier 2 basis)
C    0.332157  0.964131  0.056387
C    -0.450208  0.644779  1.281757
O    -0.818073  1.606876  2.048335
H    1.233113  1.527901  0.334006
H    -0.272221  1.625328  -0.581922
H    0.617871  0.074504  -0.513704
N    -0.762147  -0.623004  1.543309
C    -1.700540  -1.100179  2.567836
C    -1.072331  -1.024657  3.972143
O    -1.211332  0.044176  4.669545
H    -0.585432  -1.301648  0.798959
H    -2.569982  -0.421361  2.581508
C    -2.222842  -2.504047  2.153391
O    -2.442222  -2.374316  0.755436
C    -3.466993  -2.899403  2.936180
H    -1.421694  -3.256400  2.321344
H    -2.866164  -3.177915  0.409232
H    -3.794531  -3.903746  2.638765
H    -4.289580  -2.199930  2.738148
H    -3.280861  -2.934233  4.018807
N    -0.405616  -2.051787  4.450955
C    0.251944  -2.121443  5.759620
H    -0.348391  -2.881925  3.862292
H    -0.080793  -1.288632  6.382212
H    1.340834  -2.080222  5.627905
H    -0.013882  -3.071611  6.236040
Pb    -1.502084  2.186766  4.073513
