27
Energy: -606754.838421 eV PBE+vdW (tier 2 basis)
C    -0.388651  1.611998  0.097635
C    -0.314381  1.061835  1.476616
O    0.804699  0.513348  1.858333
H    0.409612  2.351503  -0.052483
H    -1.360126  2.066524  -0.120588
H    -0.202051  0.795336  -0.615968
N    -1.365069  1.107582  2.264440
C    -1.599391  0.481504  3.563592
C    -3.170583  0.273797  3.527654
O    -3.806760  1.075613  2.845425
H    -2.270641  1.498355  1.924818
H    -1.071387  -0.483795  3.629821
C    -1.217707  1.400564  4.736455
O    0.291807  1.544801  4.727590
C    -1.640517  0.931602  6.110585
H    -1.595717  2.410853  4.523988
H    0.520898  2.071730  5.518477
H    -2.733421  0.969539  6.199903
H    -1.248802  1.603738  6.887301
H    -1.302329  -0.090075  6.329481
N    -3.670737  -0.748099  4.229206
C    -5.105049  -1.049869  4.292589
H    -3.036107  -1.377422  4.709879
H    -5.437170  -1.064707  5.337179
H    -5.302554  -2.026328  3.834763
H    -5.647853  -0.274784  3.745852
Pb    2.076985  0.481852  3.596457
