27
Energy: -606755.282618 eV PBE+vdW (tier 2 basis)
C    -0.699649  -1.349208  -0.049850
C    -0.512179  -1.210989  1.419614
O    0.619474  -1.522809  1.936743
H    -0.458295  -2.376822  -0.353847
H    0.018787  -0.690301  -0.559384
H    -1.713500  -1.098540  -0.377726
N    -1.516420  -0.757577  2.171959
C    -1.395977  -0.396446  3.586292
C    -1.213061  -1.640790  4.473326
O    -0.031581  -1.881068  4.931739
H    -2.320866  -0.357571  1.686530
H    -0.464878  0.182368  3.706371
C    -2.531581  0.582679  3.983530
O    -2.442321  1.565581  2.957280
C    -2.330964  1.132610  5.388467
H    -3.506401  0.068484  3.921425
H    -3.067334  2.288510  3.136079
H    -2.371897  0.340334  6.149987
H    -3.133513  1.841565  5.628581
H    -1.373569  1.662874  5.475651
N    -2.180660  -2.476049  4.792096
C    -3.601464  -2.488828  4.424753
H    -1.875902  -3.235265  5.405699
H    -3.751165  -2.085111  3.420098
H    -4.195370  -1.924229  5.154391
H    -3.936500  -3.530951  4.432934
Pb    1.877788  -1.801454  3.758263
