27
Energy: -606756.035643 eV PBE+vdW (tier 2 basis)
C    -0.297931  -0.119272  0.171017
C    -0.195507  0.014173  1.654606
O    0.843376  0.532140  2.158443
H    -1.240484  -0.561477  -0.167902
H    0.540891  -0.730498  -0.189582
H    -0.179903  0.875049  -0.281902
N    -1.236936  -0.412194  2.397057
C    -1.404846  -0.368704  3.858484
C    -1.157926  1.039149  4.434373
O    -0.028138  1.374138  4.923041
H    -2.009456  -0.816520  1.874996
H    -2.469734  -0.582333  4.023629
C    -0.684739  -1.492404  4.644506
O    0.763312  -1.421784  4.391115
C    -1.187697  -2.878499  4.285771
H    -0.849018  -1.287280  5.714622
H    1.168213  -2.263085  4.671850
H    -0.666682  -3.641963  4.880173
H    -1.042270  -3.106758  3.222307
H    -2.254219  -2.975035  4.529475
N    -2.157881  1.903252  4.468706
C    -3.545490  1.721286  4.024465
H    -1.917828  2.805518  4.883974
H    -4.064049  0.973570  4.638758
H    -3.588469  1.444490  2.964630
H    -4.063818  2.676245  4.146456
Pb    1.977230  0.658792  4.132932
