27
Energy: -606754.555638 eV PBE+vdW (tier 2 basis)
C    -0.756872  -1.089661  0.120909
C    -1.027046  -0.210672  1.304641
O    -0.183978  0.151753  2.113832
H    -0.111943  -0.542591  -0.580690
H    -1.661163  -1.413959  -0.406017
H    -0.187538  -1.966761  0.452172
N    -2.353352  0.211912  1.483331
C    -2.615573  1.135948  2.557961
C    -3.700134  0.676176  3.512778
O    -4.642416  1.481209  3.928717
H    -3.073473  -0.041227  0.814256
H    -1.651351  1.109643  3.124623
C    -2.749963  2.571108  1.995123
O    -2.812698  3.526620  3.159038
C    -3.893800  2.850619  1.038054
H    -1.788625  2.782472  1.508496
H    -2.189654  4.264416  3.020986
H    -3.887325  3.901651  0.722766
H    -4.881265  2.598295  1.452971
H    -3.772846  2.257134  0.122448
N    -3.723939  -0.548832  3.995148
C    -2.755937  -1.641314  3.826419
H    -4.517418  -0.738660  4.610185
H    -2.848660  -2.296379  4.697925
H    -1.733452  -1.253866  3.780456
H    -2.980749  -2.219056  2.921666
Pb    -4.788827  3.600019  4.406806
