27
Energy: -606755.358558 eV PBE+vdW (tier 2 basis)
C    0.515208  0.302139  0.235046
C    0.325566  0.146392  1.704529
O    1.357642  0.012690  2.442389
H    -0.415696  0.498482  -0.306675
H    0.964822  -0.624475  -0.152436
H    1.233516  1.109629  0.042544
N    -0.921850  0.142410  2.189709
C    -1.400391  -0.200736  3.542688
C    -1.127400  0.936006  4.532538
O    0.043411  1.113803  5.022653
H    -1.652440  0.213364  1.486249
H    -2.485199  -0.308171  3.427615
C    -0.911334  -1.584490  4.062623
O    -0.941184  -2.430472  2.951595
C    -1.731154  -2.054154  5.258284
H    0.162934  -1.493581  4.423280
H    -1.028678  -3.358221  3.232450
H    -1.354133  -3.018171  5.624077
H    -2.784564  -2.183461  4.974903
H    -1.674146  -1.347942  6.098199
N    -2.101207  1.743907  4.905606
C    -3.514798  1.738829  4.500160
H    -1.817613  2.463189  5.574101
H    -3.978240  2.644192  4.901590
H    -4.040706  0.869717  4.914003
H    -3.613666  1.763567  3.409022
Pb    2.015859  0.117915  4.569846
