27
Energy: -606755.768795 eV PBE+vdW (tier 2 basis)
C    0.946269  -0.926397  0.462079
C    0.335226  -0.317626  1.675486
O    0.948800  0.642230  2.268690
H    0.348979  -1.742826  0.043545
H    1.954449  -1.291029  0.700856
H    1.066831  -0.140892  -0.298634
N    -0.844213  -0.759289  2.106230
C    -1.645405  -0.189387  3.194477
C    -1.090478  -0.665128  4.552216
O    -0.142402  0.004704  5.113785
H    -1.272196  -1.555709  1.630356
H    -1.533116  0.904451  3.175628
C    -3.139060  -0.511134  2.953287
O    -3.177985  -1.950166  2.858744
C    -3.713779  0.178543  1.725729
H    -3.687334  -0.176682  3.851709
H    -4.065624  -2.240144  2.585352
H    -3.191723  -0.103185  0.802098
H    -3.675480  1.270602  1.834929
H    -4.771911  -0.091360  1.611020
N    -1.591840  -1.743888  5.101308
C    -1.180343  -2.340579  6.372137
H    -2.330179  -2.207018  4.548456
H    -0.716986  -3.317350  6.183541
H    -2.068717  -2.486768  6.997585
H    -0.472736  -1.683259  6.881259
Pb    1.380952  1.427286  4.310131
