27
Energy: -606754.754009 eV PBE+vdW (tier 2 basis)
C    0.125928  1.062449  0.024724
C    -0.037321  0.375003  1.343343
O    0.541137  0.735315  2.376759
H    -0.353729  2.049983  0.093607
H    -0.315700  0.518156  -0.817206
H    1.191656  1.238544  -0.161694
N    -0.883705  -0.717008  1.385339
C    -1.347427  -1.287043  2.642799
C    -0.292520  -2.165570  3.363838
O    -0.565267  -3.347901  3.853856
H    -1.248391  -1.080391  0.511282
H    -1.508279  -0.438891  3.333859
C    -2.722212  -1.946440  2.402959
O    -3.245904  -2.371036  3.741049
C    -2.783281  -3.115940  1.433993
H    -3.396447  -1.145752  2.069968
H    -4.175709  -2.092355  3.833968
H    -3.800054  -3.527351  1.395915
H    -2.068192  -3.914652  1.675557
H    -2.555768  -2.792893  0.409014
N    0.887228  -1.635798  3.511165
C    2.043372  -2.234459  4.170072
H    0.946508  -0.635487  3.146854
H    2.908557  -2.147210  3.502048
H    1.857109  -3.285217  4.402021
H    2.262642  -1.676272  5.089968
Pb    -2.281691  -4.254215  4.803285
