27
Energy: -606754.708347 eV PBE+vdW (tier 2 basis)
C    0.561392  -0.080615  0.130164
C    0.116258  -0.213148  1.542251
O    0.611684  -1.187501  2.253290
H    1.655442  0.009694  0.090426
H    0.100967  0.773564  -0.376207
H    0.300233  -1.004468  -0.407668
N    -0.774155  0.617145  2.035753
C    -1.489875  0.581838  3.310946
C    -2.835379  1.322176  2.928750
O    -2.733535  2.177943  2.048621
H    -1.191217  1.368266  1.446164
H    -1.658380  -0.458399  3.626782
C    -0.764125  1.385436  4.404623
O    0.517507  0.647088  4.738474
C    -1.528714  1.610208  5.689335
H    -0.431432  2.337269  3.966331
H    0.927139  1.134204  5.480469
H    -0.911078  2.158047  6.414993
H    -1.864751  0.672350  6.148243
H    -2.403621  2.244766  5.497476
N    -3.983151  1.004172  3.542431
C    -4.293977  -0.028772  4.525035
H    -4.768351  1.566815  3.212418
H    -3.484688  -0.761920  4.598494
H    -5.198263  -0.562230  4.210369
H    -4.472326  0.406557  5.517067
Pb    1.421916  -1.477883  4.227968
