27
Energy: -606754.371199 eV PBE+vdW (tier 2 basis)
C    0.080328  0.652063  0.034849
C    -0.017681  0.605538  1.517363
O    1.052601  0.802158  2.210657
H    -0.886850  0.519679  -0.461220
H    0.765545  -0.143045  -0.296497
H    0.527120  1.605834  -0.276650
N    -1.182447  0.341385  2.102837
C    -1.393550  0.022134  3.518239
C    -2.335752  -1.229315  3.670684
O    -1.844606  -2.195408  4.230898
H    -1.956036  0.137604  1.471216
H    -0.451812  -0.404587  3.902344
C    -1.773663  1.213431  4.407327
O    -0.505318  2.019509  4.600238
C    -2.317881  0.825010  5.764377
H    -2.450534  1.894825  3.874421
H    -0.703325  2.715869  5.257343
H    -3.306723  0.360724  5.652413
H    -2.463858  1.711764  6.396683
H    -1.668408  0.109603  6.284815
N    -3.575913  -1.201133  3.122382
C    -4.416228  -0.064835  2.747987
H    -4.060778  -2.092068  3.236245
H    -5.032846  0.282126  3.589726
H    -5.084502  -0.366823  1.934177
H    -3.823324  0.785010  2.387352
Pb    1.758442  1.490949  4.153798
