27
Energy: -606755.118635 eV PBE+vdW (tier 2 basis)
C    -0.576500  -0.438765  0.254664
C    -0.368369  -0.147717  1.699722
O    0.798861  0.177137  2.110541
H    0.109917  -1.236710  -0.059797
H    -0.308085  0.455860  -0.326176
H    -1.605839  -0.726116  0.016660
N    -1.408126  -0.213517  2.539468
C    -1.364164  0.171974  3.945893
C    -0.607495  -0.891706  4.784237
O    0.611282  -0.606578  5.110459
H    -2.317504  -0.455071  2.148323
H    -0.700197  1.044845  4.016443
C    -2.748253  0.665385  4.500090
O    -2.690818  0.307198  5.877066
C    -4.002924  0.177532  3.780153
H    -2.717997  1.762774  4.394277
H    -3.297571  0.866984  6.389391
H    -4.879687  0.564811  4.316053
H    -4.107832  -0.912506  3.742748
H    -4.078280  0.592818  2.763624
N    -1.070769  -2.069003  5.136258
C    -2.398133  -2.663413  4.960821
H    -0.400171  -2.622538  5.673069
H    -3.118178  -2.181655  5.631111
H    -2.320528  -3.725623  5.207993
H    -2.726376  -2.576485  3.919871
Pb    2.192735  0.349085  3.867037
