27
Energy: -606755.426169 eV PBE+vdW (tier 2 basis)
C    0.367098  0.841799  -0.142444
C    -0.398346  0.587147  1.108675
O    -0.739358  1.586461  1.840117
H    0.603793  -0.074260  -0.692800
H    1.298817  1.369878  0.104045
H    -0.217634  1.515071  -0.785491
N    -0.719173  -0.663388  1.432950
C    -1.606546  -1.083968  2.518868
C    -0.969731  -0.838656  3.898422
O    -1.257802  0.231583  4.549692
H    -0.592690  -1.386429  0.716074
H    -2.518795  -0.463624  2.492133
C    -2.031401  -2.577898  2.252208
O    -2.073796  -2.772518  0.849865
C    -3.319606  -2.928959  2.974304
H    -1.221191  -3.242289  2.604401
H    -2.990864  -2.866811  0.541518
H    -3.557291  -3.988843  2.823871
H    -4.160765  -2.325136  2.602942
H    -3.236052  -2.763539  4.057510
N    -0.152277  -1.732159  4.412277
C    0.526403  -1.638005  5.708756
H    0.022908  -2.573613  3.864918
H    0.076575  -0.838986  6.301313
H    1.594321  -1.437277  5.553420
H    0.416786  -2.594351  6.232038
Pb    -1.540381  2.313771  3.776418
