32
Energy: -606845.378055 eV PBE+vdW (tier 2 basis)
C    -1.280588  -1.625336  -0.373920
C    -0.325561  -0.960984  0.548071
O    0.897547  -1.362336  0.597658
H    -1.030705  -1.396211  -1.421028
H    -2.325034  -1.370323  -0.174580
H    -1.143826  -2.711639  -0.262733
N    -0.695427  0.052863  1.347897
C    -1.512887  1.188687  0.917440
C    -0.609144  2.020216  -0.031850
O    0.639677  1.736915  -0.195527
H    -0.031815  0.271794  2.093987
H    -2.353992  0.803263  0.323026
C    -2.074343  1.954803  2.168179
C    -3.550883  2.381133  2.009709
C    -1.153043  3.079714  2.656572
C    -3.910037  3.370761  0.898892
H    -2.087456  1.176236  2.948037
H    -3.848089  2.816147  2.974823
H    -4.165715  1.475295  1.896414
H    -0.111089  2.749227  2.790413
H    -1.493880  3.433955  3.636575
H    -1.142602  3.949787  1.987301
H    -3.863562  2.916670  -0.108260
H    -3.307699  4.291037  0.928182
H    -4.954050  3.690574  1.003417
N    -1.131141  3.034643  -0.678879
C    -0.403079  3.915172  -1.598269
H    -2.114220  3.249765  -0.488349
H    -1.103259  4.662002  -1.980681
H    0.003240  3.338903  -2.437653
H    0.416473  4.419699  -1.072540
Pb    2.354477  0.289740  0.090615
