32
Energy: -606845.449391 eV PBE+vdW (tier 2 basis)
C    0.379956  -0.023317  0.414481
C    0.031202  0.172407  1.843432
O    0.962874  0.405144  2.701840
H    0.768548  0.909454  -0.021122
H    -0.449895  -0.403537  -0.187269
H    1.213652  -0.741485  0.375953
N    -1.236925  0.110603  2.283233
C    -2.371731  0.769307  1.634373
C    -2.134687  2.292200  1.788797
O    -1.228686  2.761947  2.576178
H    -1.337514  0.022829  3.296795
H    -2.362055  0.526431  0.562040
C    -3.713107  0.258634  2.243455
C    -4.931643  0.668318  1.388401
C    -3.871148  0.649794  3.717213
C    -6.169372  -0.198048  1.643618
H    -3.623327  -0.838578  2.172050
H    -4.668860  0.589658  0.318576
H    -5.195476  1.721141  1.587306
H    -3.063261  0.274019  4.365730
H    -4.789980  0.214398  4.125491
H    -3.944029  1.739570  3.848416
H    -6.990581  0.112974  0.987542
H    -6.530830  -0.111550  2.675589
H    -5.963181  -1.256734  1.439377
N    -2.885100  3.121890  1.097956
C    -2.796607  4.586284  1.152611
H    -3.608879  2.713487  0.508202
H    -3.569452  4.999376  0.499894
H    -1.812804  4.920722  0.802825
H    -2.958527  4.938380  2.177958
Pb    0.635082  2.354347  3.800685
