32
Energy: -606845.105228 eV PBE+vdW (tier 2 basis)
C    0.083259  -0.370715  -0.478413
C    0.245352  -0.189769  0.988452
O    1.439091  -0.028688  1.462954
H    -0.215542  -1.405045  -0.712605
H    1.040338  -0.169897  -0.969083
H    -0.690023  0.294945  -0.878167
N    -0.768891  -0.179896  1.865774
C    -1.920130  -1.102489  1.908295
C    -1.299358  -2.493174  2.248580
O    -0.023743  -2.655142  2.352642
H    -0.487648  0.168410  2.782966
H    -2.478272  -0.810726  2.813593
C    -2.940620  -0.960801  0.727694
C    -3.716848  0.374941  0.845900
C    -3.956033  -2.110837  0.643935
C    -2.943860  1.692742  0.791045
H    -2.377967  -0.966253  -0.214928
H    -4.325626  0.338816  1.765044
H    -4.441204  0.367205  0.018850
H    -4.544945  -2.221459  1.570114
H    -3.512322  -3.073018  0.359101
H    -4.686618  -1.873177  -0.138515
H    -3.653631  2.526929  0.731293
H    -2.304001  1.764397  -0.099864
H    -2.325474  1.877565  1.678747
N    -2.089996  -3.510011  2.509440
C    -1.639059  -4.851013  2.898233
H    -3.091739  -3.361585  2.396771
H    -2.520260  -5.487437  3.010428
H    -1.101470  -4.808217  3.853101
H    -0.982336  -5.271967  2.128194
Pb    2.057508  -1.808245  2.674567
