32
Energy: -606844.560168 eV PBE+vdW (tier 2 basis)
C    -2.084833  -1.227024  -1.077604
C    -2.426509  -0.209445  -0.050110
O    -2.446440  1.067247  -0.435266
H    -1.029773  -1.116129  -1.368874
H    -2.693372  -1.064297  -1.977003
H    -2.240695  -2.247375  -0.716259
N    -2.708751  -0.453712  1.189088
C    -2.791286  -1.711216  1.936817
C    -3.592706  -1.226775  3.186218
O    -3.718248  0.003708  3.339298
H    -3.028987  0.290680  1.895171
H    -3.375914  -2.448290  1.366520
C    -1.378131  -2.300859  2.263009
C    -1.490267  -3.745409  2.794575
C    -0.568568  -1.381788  3.181550
C    -0.177038  -4.526832  2.699176
H    -0.864058  -2.363138  1.287810
H    -2.264556  -4.288215  2.225928
H    -1.815884  -3.726014  3.847088
H    -0.463367  -0.366451  2.775842
H    0.443757  -1.778444  3.316618
H    -1.025070  -1.299437  4.177487
H    -0.320844  -5.554092  3.055033
H    0.616172  -4.080265  3.311041
H    0.182177  -4.584634  1.662522
N    -4.091629  -2.150576  4.006513
C    -4.845478  -1.843874  5.220596
H    -3.922491  -3.128400  3.788236
H    -5.812786  -2.359468  5.194759
H    -5.003054  -0.764182  5.274715
H    -4.286868  -2.176853  6.104747
Pb    -2.545613  3.046877  -1.077499
