32
Energy: -606844.414186 eV PBE+vdW (tier 2 basis)
C    0.010181  0.048480  0.099934
C    -0.184644  0.383642  1.534479
O    0.909037  0.567371  2.275843
H    0.626035  0.823420  -0.377614
H    -0.938375  -0.038191  -0.437468
H    0.554238  -0.902980  0.013146
N    -1.326776  0.521948  2.127251
C    -2.697648  0.382322  1.626503
C    -3.466413  1.134027  2.756395
O    -2.861528  1.262216  3.841032
H    -1.450844  0.806954  3.153419
H    -2.792315  0.879331  0.652724
C    -3.083596  -1.140317  1.498420
C    -4.264673  -1.378015  0.542253
C    -3.302147  -1.806423  2.859073
C    -4.036359  -0.954111  -0.907460
H    -2.200065  -1.604645  1.025818
H    -5.180471  -0.925704  0.948206
H    -4.454903  -2.461739  0.565426
H    -3.437628  -2.885763  2.720001
H    -2.457297  -1.668064  3.546589
H    -4.202929  -1.426118  3.359521
H    -4.894677  -1.231838  -1.531070
H    -3.154589  -1.451150  -1.337330
H    -3.904144  0.131974  -1.035498
N    -4.704930  1.597854  2.574368
C    -5.506224  1.718210  1.361080
H    -5.092434  2.024271  3.416462
H    -5.834789  2.759023  1.251423
H    -6.394514  1.076196  1.416259
H    -4.925318  1.446285  0.477012
Pb    2.627653  0.897419  3.405593
