32
Energy: -606844.484645 eV PBE+vdW (tier 2 basis)
C    0.199535  -0.870507  0.727268
C    -0.058638  -0.354362  2.096787
O    0.979762  -0.290088  2.932248
H    1.046825  -0.331889  0.282009
H    -0.673629  -0.769809  0.076619
H    0.477247  -1.933609  0.779919
N    -1.204545  0.038461  2.550947
C    -2.520462  0.116602  1.913099
C    -3.245549  1.054519  2.933869
O    -2.652951  1.284500  4.008565
H    -1.364791  0.492376  3.519820
H    -2.428812  0.622762  0.940530
C    -3.168241  -1.308376  1.719169
C    -3.914360  -1.435745  0.372511
C    -3.986358  -1.765898  2.931546
C    -5.122111  -0.530423  0.126913
H    -2.308934  -1.993881  1.639825
H    -4.239786  -2.484452  0.303498
H    -3.192390  -1.298625  -0.448939
H    -4.914044  -1.194034  3.056360
H    -3.418847  -1.686584  3.868576
H    -4.267140  -2.818925  2.807560
H    -5.864851  -0.584759  0.934703
H    -5.639375  -0.834726  -0.791244
H    -4.834525  0.521101  -0.042316
N    -4.432270  1.552267  2.603094
C    -5.224537  2.417418  3.474104
H    -4.840382  1.262091  1.716786
H    -5.598712  3.270116  2.896679
H    -4.594348  2.771264  4.293501
H    -6.078031  1.863376  3.887167
Pb    2.610119  -0.114942  4.215466
