32
Energy: -606844.66123 eV PBE+vdW (tier 2 basis)
C    -0.704007  -2.044614  1.358875
C    -1.015517  -1.169814  2.516883
O    -0.660455  -1.575531  3.710975
H    0.376620  -2.239184  1.318141
H    -1.038003  -1.612171  0.410481
H    -1.196404  -3.017143  1.508496
N    -1.650332  -0.032947  2.358343
C    -2.131773  0.866535  3.400101
C    -3.179936  1.747007  2.624799
O    -3.116968  1.734630  1.395313
H    -1.986831  0.304935  1.428771
H    -2.652895  0.270688  4.170442
C    -0.970239  1.688271  4.039506
C    -1.238946  2.014420  5.517742
C    -0.532877  2.893468  3.198787
C    -0.052820  2.589503  6.287298
H    -0.052462  1.014828  4.001406
H    -1.635240  1.099373  6.042590
H    -2.099319  2.699382  5.595426
H    -0.395523  2.620120  2.146107
H    0.409952  3.316115  3.561973
H    -1.298636  3.680522  3.249476
H    -0.275965  2.682275  7.356378
H    0.221421  3.585074  5.918175
H    0.867436  1.977480  6.188586
N    -4.041267  2.465598  3.355005
C    -5.058891  3.331157  2.746234
H    -4.107791  2.293524  4.352522
H    -5.254010  4.175853  3.414020
H    -5.990311  2.776046  2.576700
H    -4.683914  3.698399  1.786949
Pb    0.068509  -0.763161  5.572316
