32
Energy: -606845.46954 eV PBE+vdW (tier 2 basis)
C    -0.004947  0.048939  0.111160
C    -0.015065  0.103813  1.594264
O    1.096424  0.034605  2.243396
H    0.466850  0.949479  -0.309554
H    -0.998004  -0.095223  -0.323427
H    0.642379  -0.792736  -0.179827
N    -1.154669  0.211584  2.295605
C    -2.227060  1.153277  1.979623
C    -1.739758  2.544165  2.466885
O    -0.551665  2.728042  2.930178
H    -1.073988  -0.013390  3.288982
H    -2.296480  1.231231  0.883500
C    -3.605615  0.663898  2.505999
C    -3.602400  0.251733  3.990459
C    -4.108955  -0.473164  1.607922
C    -3.201833  1.322306  5.007197
H    -4.302280  1.513264  2.394218
H    -2.990247  -0.658080  4.121048
H    -4.623549  -0.084455  4.218606
H    -3.440726  -1.344828  1.649109
H    -4.202976  -0.159011  0.559634
H    -5.098735  -0.807357  1.940025
H    -3.818530  2.226593  4.912848
H    -2.146500  1.633647  4.927565
H    -3.334725  0.947699  6.029173
N    -2.549934  3.571948  2.341793
C    -2.222617  4.954813  2.708272
H    -3.487074  3.388635  1.988648
H    -3.043906  5.598477  2.383868
H    -1.297471  5.269000  2.212898
H    -2.102590  5.039130  3.795540
Pb    1.432822  1.832446  3.566041
