32
Energy: -606846.158377 eV PBE+vdW (tier 2 basis)
C    -2.300019  0.675041  -0.831441
C    -1.843018  0.791648  0.583270
O    -0.633994  0.486889  0.857400
H    -2.158443  -0.364580  -1.160417
H    -1.658561  1.297420  -1.470300
H    -3.347069  0.959416  -0.977878
N    -2.722405  1.194988  1.507221
C    -2.584966  1.284168  2.980086
C    -1.719190  2.498530  3.351952
O    -0.445188  2.460754  3.226771
H    -3.653154  1.394754  1.149499
H    -3.606599  1.484042  3.332881
C    -2.141460  -0.010804  3.712544
C    -2.941111  -1.239763  3.243812
C    -2.199882  0.224592  5.225992
C    -2.459631  -2.563915  3.837241
H    -1.070272  -0.241787  3.460426
H    -2.906597  -1.307386  2.146939
H    -3.999658  -1.075549  3.508831
H    -3.238947  0.379762  5.550399
H    -1.609919  1.092838  5.549622
H    -1.817622  -0.646541  5.768106
H    -2.597640  -2.615044  4.923474
H    -1.396495  -2.744691  3.618089
H    -3.023979  -3.396453  3.401498
N    -2.316115  3.579551  3.812917
C    -1.651864  4.820942  4.221744
H    -3.329890  3.553639  3.903585
H    -1.959230  5.070020  5.244084
H    -1.951726  5.633880  3.548911
H    -0.569407  4.685840  4.180277
Pb    0.888049  0.822800  2.457467
