32
Energy: -606845.937248 eV PBE+vdW (tier 2 basis)
C    -0.922466  -0.317905  -0.258910
C    -0.713655  -0.362821  1.219390
O    0.413528  -0.781808  1.653770
H    -1.917071  0.032720  -0.552815
H    -0.760498  -1.326839  -0.664503
H    -0.159939  0.329741  -0.712879
N    -1.723291  0.022751  2.005206
C    -1.952133  -0.005896  3.468873
C    -1.018299  0.913275  4.254324
O    0.229769  1.059894  4.002593
H    -2.545953  0.312792  1.482515
H    -2.935994  0.473203  3.557120
C    -2.194353  -1.435673  4.080897
C    -1.049192  -2.461733  3.980927
C    -3.476555  -2.010402  3.459053
C    0.119281  -2.303246  4.952785
H    -2.391429  -1.248297  5.150625
H    -0.699366  -2.538391  2.942890
H    -1.494568  -3.445032  4.190816
H    -3.335337  -2.270705  2.400771
H    -4.321741  -1.312594  3.532578
H    -3.767472  -2.929815  3.980419
H    0.529072  -1.268250  5.011532
H    0.933508  -3.007919  4.732681
H    -0.176301  -2.487034  5.996400
N    -1.531204  1.617821  5.250845
C    -2.927047  1.716139  5.698032
H    -0.849851  2.197114  5.743571
H    -2.958885  2.414917  6.538252
H    -3.306750  0.747198  6.042115
H    -3.568877  2.112657  4.900744
Pb    1.870775  -0.275321  3.247378
