32
Energy: -606845.873217 eV PBE+vdW (tier 2 basis)
C    0.881524  -0.313898  0.237470
C    0.692292  -0.431867  1.716312
O    1.694606  -0.795245  2.412373
H    -0.024023  -0.015407  -0.300685
H    1.232523  -1.279537  -0.151954
H    1.677876  0.416325  0.037622
N    -0.519554  -0.147968  2.208259
C    -1.175769  -0.181358  3.540713
C    -0.456035  0.616009  4.621912
O    0.749263  0.379761  4.988146
H    -1.178411  0.105553  1.476642
H    -2.100690  0.367965  3.331778
C    -1.703141  -1.574405  4.067688
C    -0.784007  -2.438372  4.957071
C    -2.345979  -2.359106  2.918360
C    0.287730  -3.297964  4.279461
H    -2.518315  -1.261088  4.741496
H    -1.449501  -3.130082  5.494377
H    -0.354287  -1.818484  5.760613
H    -2.837890  -3.257251  3.312072
H    -1.614159  -2.685764  2.168051
H    -3.118137  -1.771236  2.403877
H    0.894951  -2.765549  3.517159
H    -0.146272  -4.119763  3.691715
H    0.943782  -3.781280  5.018517
N    -1.122414  1.554975  5.272622
C    -2.492051  2.043306  5.058649
H    -0.592836  1.993469  6.028005
H    -2.666581  2.860696  5.763588
H    -3.230052  1.256747  5.257699
H    -2.616477  2.438073  4.043088
Pb    2.398960  -1.055877  4.506654
