32
Energy: -606846.058248 eV PBE+vdW (tier 2 basis)
C    -0.433222  -0.394563  -0.201046
C    -0.373843  -0.300783  1.286214
O    0.739252  -0.535906  1.865449
H    -1.422750  -0.173537  -0.614130
H    -0.135502  -1.409979  -0.499895
H    0.306568  0.291350  -0.636002
N    -1.491934  0.011578  1.951037
C    -1.760745  0.037389  3.406590
C    -1.118613  1.279136  4.037186
O    0.145639  1.326433  4.253778
H    -2.308326  0.157419  1.362503
H    -2.848561  0.153314  3.474412
C    -1.432127  -1.261420  4.188700
C    -1.941914  -2.530541  3.474230
C    -1.930275  -1.121762  5.632770
C    -3.451228  -2.584903  3.217836
H    -0.319473  -1.391881  4.248149
H    -1.650302  -3.384509  4.102483
H    -1.399000  -2.665227  2.526749
H    -1.694962  -2.027344  6.204045
H    -3.020237  -0.991595  5.664502
H    -1.475992  -0.272402  6.161337
H    -3.799365  -1.809569  2.519204
H    -4.036976  -2.498721  4.141242
H    -3.710229  -3.549058  2.764542
N    -1.853855  2.318618  4.379308
C    -3.307646  2.501223  4.258865
H    -1.328405  3.085706  4.803554
H    -3.534671  3.539176  4.517044
H    -3.844771  1.845604  4.955083
H    -3.645073  2.326981  3.230911
Pb    1.775538  -0.147227  3.805344
