32
Energy: -606845.286775 eV PBE+vdW (tier 2 basis)
C    0.076981  1.095611  -0.628746
C    0.144734  0.728446  0.807659
O    0.950258  1.353572  1.592383
H    -0.280884  2.128553  -0.750312
H    -0.529991  0.408196  -1.224060
H    1.108437  1.090469  -1.015639
N    -0.622983  -0.244109  1.327661
C    -2.064145  -0.392398  1.081642
C    -2.685186  0.958475  1.480293
O    -2.138587  1.667846  2.415949
H    -0.321851  -0.597020  2.238140
H    -2.244052  -0.583963  0.015108
C    -2.601469  -1.603172  1.916634
C    -2.234382  -2.953158  1.261255
C    -4.110547  -1.538491  2.178453
C    -0.752981  -3.293103  1.089976
H    -2.094475  -1.534562  2.899111
H    -2.751165  -3.019049  0.289676
H    -2.700954  -3.724934  1.890522
H    -4.389415  -2.367613  2.839175
H    -4.429737  -0.615339  2.679969
H    -4.692134  -1.664527  1.256120
H    -0.245030  -2.667151  0.344256
H    -0.650661  -4.329620  0.746786
H    -0.201589  -3.222741  2.039805
N    -3.763347  1.437452  0.894658
C    -4.595605  0.866589  -0.167851
H    -4.083034  2.332098  1.273014
H    -4.770651  1.638591  -0.925800
H    -5.559447  0.549598  0.248953
H    -4.109473  0.006475  -0.633107
Pb    -0.166177  2.292235  3.333633
