32
Energy: -606846.042532 eV PBE+vdW (tier 2 basis)
C    -0.541934  -0.810092  -0.017659
C    -0.488001  -0.487751  1.435633
O    0.512786  0.182062  1.883239
H    -1.420454  -1.402065  -0.294201
H    0.370901  -1.344739  -0.312180
H    -0.551486  0.133849  -0.582632
N    -1.485969  -0.875940  2.225971
C    -1.706533  -0.489153  3.631663
C    -0.862702  -1.397111  4.545152
O    0.393150  -1.147850  4.687710
H    -2.240781  -1.406278  1.790387
H    -1.254620  0.509422  3.750410
C    -3.217525  -0.291913  3.948292
C    -4.169603  -1.518156  3.882052
C    -3.748619  0.865461  3.083894
C    -4.163057  -2.387904  2.619627
H    -3.226186  0.056699  4.994188
H    -5.179195  -1.103720  4.014616
H    -4.062271  -2.163219  4.772999
H    -3.839132  0.597812  2.022565
H    -3.108979  1.755903  3.152957
H    -4.747665  1.155661  3.428675
H    -4.308551  -1.795690  1.703005
H    -4.997044  -3.099398  2.647871
H    -3.254015  -3.003050  2.516678
N    -1.413568  -2.408838  5.173222
C    -0.734722  -3.352325  6.064455
H    -2.418610  -2.530829  5.036440
H    0.283837  -3.010227  6.256709
H    -0.712932  -4.345511  5.598269
H    -1.292048  -3.413023  7.006265
Pb    1.824529  0.241912  3.674729
