32
Energy: -606845.489697 eV PBE+vdW (tier 2 basis)
C    -0.857082  0.858645  5.959602
C    -2.270873  0.411818  5.918759
O    -2.910073  0.192401  7.010477
H    -0.787836  1.871905  6.383547
H    -0.361074  0.821736  4.985849
H    -0.323421  0.203405  6.665109
N    -2.928971  0.230744  4.756288
C    -2.906991  1.165848  3.631166
C    -3.388688  2.538265  4.152007
O    -4.071116  2.642205  5.234433
H    -3.783446  -0.321752  4.831321
H    -1.875458  1.265913  3.261602
C    -3.801779  0.646634  2.462961
C    -5.328082  0.748374  2.711281
C    -3.338512  -0.744236  2.013334
C    -5.965363  -0.106374  3.811085
H    -3.596197  1.340540  1.632155
H    -5.806554  0.455632  1.764746
H    -5.615813  1.801542  2.854131
H    -3.502614  -1.523421  2.770325
H    -2.270556  -0.751870  1.760304
H    -3.893047  -1.045305  1.116124
H    -7.058989  -0.099695  3.727299
H    -5.764650  0.289496  4.837944
H    -5.646883  -1.158229  3.799068
N    -3.096710  3.602876  3.432696
C    -3.503564  4.983326  3.712101
H    -2.542700  3.455216  2.590005
H    -2.610552  5.607206  3.837536
H    -4.105250  5.008881  4.622285
H    -4.090651  5.364965  2.868117
Pb    -4.839053  1.413372  6.997575
