32
Energy: -606846.097496 eV PBE+vdW (tier 2 basis)
C    -1.692517  -0.131900  -0.416946
C    -1.358900  0.207021  0.998655
O    -0.297452  -0.288983  1.501040
H    -0.869069  0.193145  -1.067704
H    -2.629172  0.314059  -0.766670
H    -1.755212  -1.225300  -0.510108
N    -2.199102  1.003009  1.668508
C    -2.246846  1.462834  3.080192
C    -1.108576  2.435296  3.410271
O    0.126435  2.110115  3.344239
H    -3.001184  1.301193  1.119558
H    -3.167286  2.061403  3.093583
C    -2.520461  0.366641  4.167217
C    -1.341508  -0.519451  4.635274
C    -3.731191  -0.474170  3.736856
C    -1.655545  -1.408336  5.846816
H    -2.817549  0.959409  5.049830
H    -0.508290  0.147648  4.958146
H    -1.022035  -1.178113  3.803177
H    -3.483860  -1.161837  2.916760
H    -4.566990  0.160377  3.412909
H    -4.099703  -1.076026  4.573780
H    -2.060033  -0.811990  6.674692
H    -0.751208  -1.911306  6.209034
H    -2.381424  -2.188089  5.591667
N    -1.450952  3.649804  3.803719
C    -0.526835  4.710712  4.212944
H    -2.441668  3.883325  3.808793
H    0.476268  4.296099  4.329595
H    -0.870597  5.135427  5.162773
H    -0.512840  5.500064  3.450792
Pb    1.185304  0.135918  3.112609
