32
Energy: -606845.345556 eV PBE+vdW (tier 2 basis)
C    0.593549  0.906713  0.831335
C    0.129773  0.582955  2.203357
O    0.981014  0.490835  3.163415
H    1.056643  1.903850  0.801808
H    -0.194366  0.827136  0.077634
H    1.398678  0.196789  0.583099
N    -1.170405  0.382039  2.482219
C    -2.257115  1.273189  2.048116
C    -1.885427  2.669529  2.572103
O    -1.195958  2.784866  3.663585
H    -1.350645  -0.068181  3.382365
H    -2.317428  1.282860  0.951421
C    -3.599096  0.721143  2.627975
C    -3.887650  -0.656438  1.992105
C    -4.769549  1.693976  2.467941
C    -5.004794  -1.436700  2.687621
H    -3.424830  0.582112  3.713381
H    -2.972591  -1.270487  1.997456
H    -4.139825  -0.502430  0.929832
H    -4.595480  2.663561  2.952207
H    -5.659320  1.268136  2.944236
H    -5.021369  1.857169  1.411546
H    -5.106092  -2.428972  2.232521
H    -5.978903  -0.941076  2.599141
H    -4.793855  -1.584691  3.755930
N    -2.245006  3.775240  1.952753
C    -3.008619  3.962787  0.715586
H    -1.961689  4.633529  2.431077
H    -2.492840  4.709406  0.101349
H    -4.015949  4.326834  0.951441
H    -3.089717  3.028707  0.155723
Pb    0.501139  1.907704  4.871196
