32
Energy: -606845.974169 eV PBE+vdW (tier 2 basis)
C    -1.258377  -0.672295  -0.167753
C    -0.917223  -0.243112  1.221808
O    0.299900  -0.327680  1.590918
H    -2.323268  -0.585351  -0.406458
H    -0.942145  -1.716550  -0.300118
H    -0.675650  -0.072914  -0.880800
N    -1.911689  0.197802  2.002017
C    -1.990014  0.620318  3.424807
C    -1.170485  1.880214  3.707822
O    0.111539  1.896449  3.648192
H    -2.817473  0.191261  1.539512
H    -3.041785  0.910228  3.521817
C    -1.827944  -0.519778  4.482310
C    -2.524872  -0.111750  5.802660
C    -0.413365  -1.044607  4.765473
C    -4.053152  -0.087329  5.742676
H    -2.398124  -1.359381  4.050652
H    -2.126450  0.855934  6.153807
H    -2.219916  -0.837093  6.570417
H    0.071226  -1.461840  3.863626
H    -0.459798  -1.895100  5.459938
H    0.211806  -0.296762  5.288685
H    -4.467650  0.195648  6.717618
H    -4.455987  -1.077671  5.492985
H    -4.458618  0.627682  5.011373
N    -1.773467  3.001291  4.063794
C    -3.200501  3.308336  4.218729
H    -1.126001  3.762241  4.279924
H    -3.317427  4.393536  4.143174
H    -3.565361  2.981898  5.200297
H    -3.795638  2.848711  3.423346
Pb    1.716484  0.424163  3.140764
