32
Energy: -606846.00876 eV PBE+vdW (tier 2 basis)
C    1.077916  0.240745  0.154681
C    0.686597  -0.518085  1.379745
O    1.525961  -1.342628  1.870772
H    1.978525  0.832147  0.370327
H    0.291568  0.902089  -0.223166
H    1.353805  -0.478597  -0.629280
N    -0.531933  -0.303866  1.888002
C    -1.296709  -0.937402  2.989894
C    -0.734736  -0.584992  4.365584
O    0.492272  -0.780833  4.680680
H    -1.073776  0.378776  1.364701
H    -2.266528  -0.432064  2.915199
C    -1.663612  -2.454060  2.823796
C    -0.588482  -3.508491  3.178213
C    -2.255141  -2.681255  1.425846
C    -1.113696  -4.948747  3.251616
H    -2.474031  -2.596640  3.560254
H    -0.188198  -3.278506  4.193520
H    0.220336  -3.476553  2.422250
H    -1.485841  -2.640209  0.642978
H    -3.026595  -1.936545  1.189001
H    -2.735345  -3.663417  1.366068
H    -0.336752  -5.631755  3.614735
H    -1.427910  -5.309007  2.265832
H    -1.967626  -5.020058  3.937433
N    -1.540766  -0.081444  5.284370
C    -2.960933  0.281635  5.173356
H    -1.091372  0.090828  6.185462
H    -3.576289  -0.590370  4.922412
H    -3.108063  1.079676  4.435089
H    -3.284776  0.657213  6.147772
Pb    2.066130  -2.170585  3.869857
