32
Energy: -606846.089061 eV PBE+vdW (tier 2 basis)
C    -1.623997  -0.043417  -0.525710
C    -1.550315  0.252637  0.934237
O    -0.687747  -0.372264  1.635470
H    -1.824257  -1.116393  -0.657091
H    -0.643422  0.151701  -0.981496
H    -2.391260  0.534239  -1.051245
N    -2.400406  1.150281  1.445555
C    -2.603357  1.585990  2.847254
C    -1.394194  2.408083  3.328350
O    -0.316435  1.834420  3.713723
H    -3.037430  1.565272  0.770415
H    -3.460359  2.271724  2.790020
C    -3.026688  0.497409  3.867482
C    -4.201291  -0.381723  3.373697
C    -3.333952  1.172017  5.210325
C    -3.829854  -1.665774  2.632068
H    -2.174860  -0.214037  4.043146
H    -4.875928  0.235826  2.757974
H    -4.788149  -0.653225  4.261579
H    -3.558421  0.414893  5.970426
H    -4.222474  1.813515  5.120323
H    -2.508723  1.789047  5.591541
H    -3.143157  -2.286505  3.227564
H    -3.371965  -1.493100  1.650619
H    -4.727012  -2.271509  2.457418
N    -1.498974  3.722050  3.350652
C    -0.458834  4.660072  3.784023
H    -2.382364  4.128307  3.048797
H    0.379009  4.104127  4.209193
H    -0.880329  5.335421  4.537431
H    -0.116629  5.249963  2.924609
Pb    0.247772  -0.340048  3.660651
