32
Energy: -606846.111555 eV PBE+vdW (tier 2 basis)
C    -0.522056  0.527008  -0.227161
C    -0.755545  0.452535  1.241693
O    -0.738657  1.537259  1.927510
H    -0.539815  -0.452103  -0.716923
H    0.440212  1.018953  -0.422773
H    -1.299852  1.165880  -0.671080
N    -1.002898  -0.729154  1.806558
C    -1.424445  -0.967543  3.197857
C    -0.169586  -0.916101  4.093568
O    0.229957  0.213123  4.562354
H    -1.022756  -1.534883  1.183407
H    -2.046456  -0.108972  3.501441
C    -2.302339  -2.235529  3.325847
C    -3.486712  -2.181845  2.332253
C    -2.784571  -2.381043  4.776875
C    -4.370990  -3.430522  2.352288
H    -1.689694  -3.119204  3.054514
H    -3.115866  -2.042644  1.304139
H    -4.094030  -1.289112  2.558533
H    -1.972625  -2.350854  5.515291
H    -3.298209  -3.338311  4.912135
H    -3.502323  -1.587633  5.029528
H    -5.124905  -3.367058  1.559136
H    -4.909455  -3.545221  3.300134
H    -3.786152  -4.344254  2.178036
N    0.494607  -2.020319  4.349230
C    1.716684  -2.137134  5.148915
H    0.090651  -2.886839  3.994631
H    1.519188  -2.780220  6.015334
H    2.029102  -1.147850  5.487723
H    2.505897  -2.592705  4.538890
Pb    -0.185356  2.322295  3.935119
