32
Energy: -606845.33148 eV PBE+vdW (tier 2 basis)
C    0.596600  -1.058426  0.345493
C    0.285371  -0.746993  1.762419
O    1.117965  -0.070830  2.470309
H    0.660187  -0.135023  -0.248963
H    -0.108841  -1.758583  -0.109886
H    1.606181  -1.498411  0.320948
N    -0.860974  -1.150675  2.341328
C    -2.191726  -1.008892  1.738049
C    -2.352337  0.482888  1.391184
O    -1.704880  1.376539  2.068634
H    -0.864999  -1.097021  3.362210
H    -2.254729  -1.621131  0.829109
C    -3.249367  -1.533457  2.770658
C    -4.608730  -1.871874  2.133260
C    -3.412298  -0.606992  3.981493
C    -4.590470  -3.038050  1.145233
H    -2.808070  -2.486860  3.110813
H    -5.056941  -0.969808  1.687874
H    -5.281935  -2.130052  2.963509
H    -3.913962  0.334907  3.719038
H    -4.027200  -1.103115  4.741512
H    -2.463488  -0.356218  4.487312
H    -3.945163  -2.872677  0.268005
H    -5.598347  -3.228659  0.757883
H    -4.246251  -3.962148  1.628088
N    -3.142002  0.907910  0.426015
C    -3.928089  0.166641  -0.564251
H    -3.178843  1.926497  0.342030
H    -3.665225  0.537030  -1.562207
H    -4.997456  0.338675  -0.393057
H    -3.725423  -0.904074  -0.509796
Pb    0.133154  1.799169  3.308470
