32
Energy: -606845.994021 eV PBE+vdW (tier 2 basis)
C    0.071870  -0.067884  0.078467
C    0.065021  -0.155773  1.567345
O    1.136965  -0.509780  2.158654
H    -0.888056  0.243238  -0.346228
H    0.348191  -1.050182  -0.330649
H    0.855445  0.635488  -0.235681
N    -1.070769  0.127917  2.216697
C    -1.384178  0.055184  3.662012
C    -0.617511  1.153696  4.417183
O    0.607176  0.985763  4.759377
H    -1.852406  0.380731  1.617795
H    -2.450850  0.305882  3.714481
C    -1.263255  -1.330421  4.346224
C    -1.957718  -2.466377  3.557554
C    -1.795042  -1.213957  5.780597
C    -1.092465  -3.229143  2.554311
H    -0.183801  -1.632857  4.417690
H    -2.854872  -2.061174  3.061012
H    -2.336950  -3.181276  4.300287
H    -2.877600  -1.021727  5.770197
H    -1.314317  -0.417114  6.364752
H    -1.640485  -2.155797  6.319517
H    -1.642574  -4.093779  2.164363
H    -0.183164  -3.625442  3.031554
H    -0.790828  -2.631514  1.685687
N    -1.211768  2.286217  4.738587
C    -2.598614  2.703150  4.486120
H    -0.618054  2.945497  5.245786
H    -2.698749  3.740954  4.815348
H    -3.304809  2.090456  5.059728
H    -2.835819  2.663118  3.416721
Pb    2.050227  -0.636690  4.193750
