32
Energy: -606845.973958 eV PBE+vdW (tier 2 basis)
C    -0.133536  0.163599  -0.062518
C    -0.052399  0.126337  1.428229
O    1.102555  0.088439  1.966669
H    0.410742  1.046433  -0.426102
H    -1.158719  0.188339  -0.445923
H    0.384652  -0.716231  -0.468493
N    -1.197336  0.139970  2.121300
C    -1.487313  0.094925  3.575681
C    -0.762486  1.192703  4.361541
O    0.453342  1.060382  4.756250
H    -2.031057  0.160209  1.538821
H    -2.551214  0.350373  3.619763
C    -1.426333  -1.324811  4.218504
C    -2.038487  -1.311031  5.637179
C    -0.080410  -2.060864  4.216938
C    -3.515077  -0.920299  5.715337
H    -2.096697  -1.920729  3.575003
H    -1.432279  -0.668543  6.298450
H    -1.923755  -2.327883  6.040023
H    0.406113  -2.090920  3.229026
H    -0.227579  -3.114799  4.492594
H    0.591895  -1.685719  5.017927
H    -4.134486  -1.547767  5.059855
H    -3.705040  0.131067  5.456260
H    -3.887302  -1.056135  6.737514
N    -1.396214  2.295499  4.720020
C    -2.757888  2.764912  4.451978
H    -0.824465  2.921386  5.293088
H    -3.369859  2.678652  5.358683
H    -3.223477  2.205455  3.637637
H    -2.706261  3.820099  4.159826
Pb    2.199371  -0.045048  3.909938
