32
Energy: -606844.299446 eV PBE+vdW (tier 2 basis)
C    0.678477  0.020797  0.854458
C    0.512868  -0.495065  2.237939
O    1.599271  -0.563457  3.003554
H    1.196181  0.989172  0.880189
H    -0.277785  0.137905  0.337291
H    1.306189  -0.673566  0.276884
N    -0.604736  -0.884409  2.767112
C    -1.965873  -0.967293  2.221418
C    -2.780147  -0.995555  3.548456
O    -2.186595  -1.440968  4.549219
H    -0.686448  -1.231031  3.766321
H    -2.182560  -0.076887  1.618515
C    -2.103672  -2.254191  1.318830
C    -3.480654  -2.368108  0.622468
C    -1.682601  -3.539469  2.035127
C    -4.586111  -3.116369  1.371140
H    -1.372272  -2.062203  0.514985
H    -3.294620  -2.896612  -0.325139
H    -3.824289  -1.367621  0.318038
H    -2.309134  -3.763754  2.907029
H    -0.638302  -3.508668  2.374428
H    -1.767957  -4.385002  1.341209
H    -5.529565  -3.037242  0.817116
H    -4.766603  -2.736830  2.384933
H    -4.360756  -4.185533  1.463338
N    -4.036631  -0.539901  3.603276
C    -4.848955  0.134805  2.596841
H    -4.452612  -0.642741  4.529300
H    -5.653903  -0.520603  2.240097
H    -4.241580  0.443113  1.742463
H    -5.296145  1.030866  3.042886
Pb    3.331042  -0.613423  4.169637
