32
Energy: -606846.155937 eV PBE+vdW (tier 2 basis)
C    -0.753630  -0.787999  0.022274
C    -0.582947  -0.686855  1.500272
O    0.418996  -1.270130  2.036316
H    0.147161  -0.399937  -0.472667
H    -1.634042  -0.256735  -0.353528
H    -0.829368  -1.850733  -0.249528
N    -1.491134  -0.001692  2.202728
C    -1.648129  0.152305  3.667511
C    -0.589245  1.119293  4.217768
O    0.626875  0.747856  4.372405
H    -2.240993  0.402591  1.647199
H    -2.627543  0.636171  3.781536
C    -1.737508  -1.164023  4.484253
C    -2.689868  -2.197997  3.847406
C    -2.066955  -0.836043  5.945617
C    -4.140568  -1.738533  3.670591
H    -0.733611  -1.666546  4.491319
H    -2.667705  -3.087227  4.493624
H    -2.284118  -2.528730  2.879660
H    -3.039222  -0.332129  6.029038
H    -1.315094  -0.189367  6.418258
H    -2.126536  -1.757818  6.535998
H    -4.739048  -2.565780  3.270997
H    -4.247021  -0.906157  2.959103
H    -4.603760  -1.437657  4.618260
N    -0.962669  2.341304  4.541281
C    -0.096547  3.389613  5.088966
H    -1.942696  2.582791  4.407671
H    0.894327  2.976922  5.287819
H    -0.538186  3.767686  6.018318
H    -0.019156  4.212774  4.367874
Pb    1.620939  -1.214221  3.915661
