32
Energy: -606845.715367 eV PBE+vdW (tier 2 basis)
C    -0.609417  -1.411854  0.495935
C    -0.426042  -0.741977  1.811983
O    0.730967  -0.292447  2.132356
H    -0.359201  -0.698411  -0.302638
H    -1.628451  -1.781411  0.341507
H    0.100751  -2.245399  0.408362
N    -1.465303  -0.606051  2.641779
C    -1.377216  0.147207  3.891506
C    -0.459853  -0.578015  4.898296
O    0.619705  0.050731  5.243836
H    -2.379182  -0.922565  2.322583
H    -0.796190  1.053584  3.652872
C    -2.733744  0.724739  4.398859
C    -3.791331  -0.297731  4.854932
C    -3.259303  1.700053  3.331725
C    -5.096328  0.348108  5.332966
H    -2.447958  1.318590  5.283954
H    -3.384906  -0.891673  5.684598
H    -4.026467  -1.003913  4.037550
H    -2.478057  2.387236  2.978239
H    -4.061436  2.316592  3.749710
H    -3.679826  1.180191  2.458593
H    -5.752203  -0.413757  5.769924
H    -5.651110  0.824677  4.516773
H    -4.907255  1.104260  6.107069
N    -0.652100  -1.778460  5.404402
C    -1.676290  -2.795963  5.159064
H    0.083124  -2.056947  6.059459
H    -2.336602  -2.504682  4.343247
H    -2.270564  -2.952961  6.067217
H    -1.168900  -3.734515  4.904139
Pb    2.046414  0.728863  3.657909
