32
Energy: -606845.221071 eV PBE+vdW (tier 2 basis)
C    -1.348092  1.622862  0.690916
C    -0.586252  0.685038  1.554658
O    0.703433  0.668558  1.453914
H    -1.652303  1.118665  -0.241052
H    -0.679637  2.444329  0.407497
H    -2.244085  2.012910  1.180691
N    -1.142412  -0.140672  2.457820
C    -2.296984  -1.044174  2.266132
C    -1.759905  -2.196844  1.371812
O    -0.634536  -2.097170  0.748372
H    -0.450504  -0.518227  3.107181
H    -2.486478  -1.476004  3.262136
C    -3.630212  -0.361633  1.827778
C    -3.990624  0.731137  2.863985
C    -4.778849  -1.370710  1.682459
C    -5.056951  1.714076  2.377980
H    -3.480617  0.104348  0.842274
H    -3.088998  1.292952  3.150993
H    -4.331174  0.234426  3.787303
H    -4.689312  -2.012101  0.796762
H    -5.720623  -0.825255  1.555493
H    -4.905142  -1.989163  2.586073
H    -5.231899  2.484275  3.138478
H    -6.022319  1.230412  2.185980
H    -4.753528  2.227491  1.453956
N    -2.465216  -3.303466  1.281994
C    -2.137257  -4.488674  0.486284
H    -3.347332  -3.326266  1.793014
H    -3.034310  -4.809053  -0.055211
H    -1.814132  -5.301321  1.149783
H    -1.344559  -4.250113  -0.224958
Pb    1.473071  -1.273153  0.641995
