32
Energy: -606845.424609 eV PBE+vdW (tier 2 basis)
C    -0.213292  0.694318  -0.701467
C    -0.123462  0.222288  0.702790
O    1.026992  -0.049496  1.213400
H    0.221363  1.700724  -0.799596
H    -1.232787  0.684856  -1.096630
H    0.419798  0.033742  -1.313203
N    -1.212729  0.066252  1.472475
C    -2.295851  1.044443  1.585768
C    -1.687295  2.301870  2.240084
O    -0.530998  2.261240  2.817114
H    -1.068014  -0.479179  2.325230
H    -2.646869  1.309784  0.578038
C    -3.489805  0.443267  2.387318
C    -3.086564  0.035979  3.820323
C    -4.127295  -0.689856  1.575928
C    -4.277258  -0.329612  4.712266
H    -4.227624  1.255704  2.476932
H    -2.533698  0.862908  4.299033
H    -2.402920  -0.834243  3.793373
H    -4.419833  -0.356667  0.571237
H    -5.034407  -1.049887  2.073100
H    -3.451097  -1.549497  1.466959
H    -5.003576  0.492731  4.761376
H    -3.940554  -0.536135  5.734741
H    -4.799955  -1.224413  4.355269
N    -2.332967  3.450284  2.231320
C    -3.630714  3.786486  1.636647
H    -1.853242  4.209829  2.718648
H    -3.550341  4.776310  1.174486
H    -4.405618  3.819359  2.413042
H    -3.913496  3.061446  0.868969
Pb    1.431298  1.163545  3.081251
