32
Energy: -606844.576823 eV PBE+vdW (tier 2 basis)
C    -0.111670  -0.568003  -0.170353
C    -0.128079  0.025732  1.191674
O    1.049360  0.300126  1.755456
H    0.321371  -1.578247  -0.127642
H    0.526794  0.035944  -0.828999
H    -1.114091  -0.635507  -0.602584
N    -1.188213  0.304378  1.879599
C    -2.611320  0.151532  1.571710
C    -3.224098  1.095499  2.650329
O    -2.467596  1.489072  3.559142
H    -1.179625  0.808971  2.828304
H    -2.817316  0.533235  0.561588
C    -3.077614  -1.340152  1.680910
C    -4.479239  -1.564666  1.080808
C    -2.977833  -1.873449  3.112368
C    -4.674539  -1.105976  -0.364691
H    -2.371183  -1.903128  1.046106
H    -5.245389  -1.126745  1.740488
H    -4.658214  -2.648846  1.136249
H    -1.970267  -1.766729  3.536566
H    -3.226392  -2.941419  3.128751
H    -3.679649  -1.364242  3.786841
H    -5.650199  -1.434136  -0.742649
H    -3.913172  -1.534531  -1.032648
H    -4.649110  -0.011786  -0.489175
N    -4.511231  1.421937  2.535918
C    -5.224050  2.278823  3.481714
H    -5.034543  1.046499  1.750415
H    -5.680088  3.120793  2.947458
H    -4.513519  2.652722  4.222579
H    -6.012635  1.706792  3.987020
Pb    2.895922  0.788579  2.585898
