32
Energy: -606845.770533 eV PBE+vdW (tier 2 basis)
C    0.181526  -1.597773  0.445431
C    -0.069613  -1.111870  1.829860
O    0.917723  -0.699423  2.535001
H    0.623176  -0.779089  -0.141250
H    -0.724900  -1.951126  -0.056802
H    0.925912  -2.405169  0.471531
N    -1.316397  -1.098337  2.310344
C    -1.697171  -0.517974  3.597576
C    -1.178745  -1.396662  4.763567
O    -0.183662  -0.925662  5.444376
H    -2.067724  -1.397894  1.690193
H    -1.092738  0.394937  3.715773
C    -3.163629  0.013761  3.628625
C    -3.467890  0.543042  5.045987
C    -4.269144  -0.895339  3.080469
C    -4.748716  1.374926  5.136955
H    -3.107800  0.887366  2.955968
H    -2.619861  1.159363  5.389530
H    -3.534250  -0.308387  5.745350
H    -4.007117  -1.427916  2.152281
H    -5.134243  -0.275967  2.817288
H    -4.617450  -1.631833  3.812240
H    -4.859091  1.789266  6.145696
H    -5.646706  0.779700  4.932086
H    -4.729979  2.218314  4.433410
N    -1.634508  -2.582355  5.106003
C    -2.701789  -3.410618  4.545225
H    -1.148171  -2.982557  5.911946
H    -2.366857  -4.453420  4.569694
H    -2.916862  -3.129398  3.513921
H    -3.611590  -3.318795  5.151304
Pb    1.676529  -0.067426  4.551690
