32
Energy: -606844.890416 eV PBE+vdW (tier 2 basis)
C    -0.364779  0.483848  0.157252
C    -0.322565  0.307191  1.629387
O    0.779789  0.497207  2.266556
H    0.532011  0.069705  -0.317430
H    -0.340932  1.572767  -0.028181
H    -1.277296  0.096808  -0.304033
N    -1.408430  -0.049539  2.334217
C    -2.345983  -1.132344  1.946288
C    -1.423599  -2.342401  1.618012
O    -0.334176  -2.457687  2.321171
H    -1.330901  0.117210  3.336788
H    -2.796557  -1.429428  2.909839
C    -3.546735  -0.721808  1.046800
C    -3.929234  0.755849  1.289760
C    -4.732206  -1.654447  1.354182
C    -5.121653  1.218961  0.450943
H    -3.258889  -0.808532  -0.013133
H    -3.069124  1.403120  1.065093
H    -4.150620  0.899306  2.360968
H    -5.490217  -1.601752  0.565576
H    -5.212528  -1.351636  2.295484
H    -4.450621  -2.709320  1.462656
H    -5.280914  2.294617  0.590297
H    -6.054237  0.716254  0.732734
H    -4.952868  1.047983  -0.621651
N    -1.633906  -3.301335  0.738082
C    -2.664428  -3.583371  -0.270399
H    -0.909401  -4.021560  0.792963
H    -2.156060  -4.008524  -1.142709
H    -3.195899  -2.683039  -0.569914
H    -3.372693  -4.325255  0.119495
Pb    1.414369  -1.417104  3.299808
