32
Energy: -606845.240115 eV PBE+vdW (tier 2 basis)
C    -0.392323  0.437677  -0.457410
C    -0.261050  0.093108  0.979404
O    0.714216  0.566924  1.667824
H    -0.490020  1.524414  -0.590991
H    -1.208662  -0.089866  -0.957881
H    0.557444  0.162017  -0.944598
N    -1.143886  -0.714221  1.599510
C    -2.604924  -0.573899  1.517377
C    -2.909385  0.887111  1.884514
O    -2.159886  1.507141  2.739290
H    -0.826042  -1.083066  2.498619
H    -2.940584  -0.775662  0.492403
C    -3.247479  -1.661789  2.449110
C    -4.784628  -1.770683  2.309022
C    -2.798321  -1.570361  3.912858
C    -5.643364  -0.858452  3.190385
H    -2.832156  -2.590779  2.023814
H    -5.038128  -2.812517  2.552225
H    -5.058227  -1.662306  1.248386
H    -3.251596  -2.395000  4.477645
H    -3.109605  -0.637513  4.400445
H    -1.712299  -1.700781  4.059211
H    -5.399032  0.209209  3.104287
H    -5.560434  -1.120966  4.252077
H    -6.700709  -0.973047  2.922787
N    -3.903094  1.558873  1.338028
C    -4.904958  1.139079  0.354485
H    -4.004879  2.512461  1.692665
H    -4.566651  0.263715  -0.204988
H    -5.067905  1.968148  -0.342349
H    -5.850562  0.902000  0.857751
Pb    -0.042681  1.676990  3.506710
