32
Energy: -606846.095804 eV PBE+vdW (tier 2 basis)
C    -0.289559  -1.051688  -0.224745
C    -0.185824  -0.763613  1.232913
O    0.892505  -0.229855  1.682694
H    -0.180383  -0.104673  -0.774021
H    -1.238159  -1.521047  -0.505122
H    0.545473  -1.693968  -0.534927
N    -1.217984  -1.040088  2.026862
C    -1.405294  -0.649784  3.434489
C    -0.688417  -1.654951  4.357117
O    0.596694  -1.638485  4.429121
H    -2.035777  -1.456962  1.582727
H    -0.860592  0.298334  3.581245
C    -2.905986  -0.373370  3.716321
C    -3.863199  -1.475838  3.190971
C    -3.282199  1.010647  3.167301
C    -5.208250  -1.505846  3.924052
H    -2.996788  -0.325009  4.814890
H    -3.406550  -2.481286  3.249586
H    -4.056207  -1.306154  2.117051
H    -3.142678  1.067729  2.078117
H    -2.691030  1.809444  3.634231
H    -4.336252  1.230010  3.369796
H    -5.859356  -2.281103  3.504380
H    -5.740287  -0.550859  3.838863
H    -5.081314  -1.720524  4.994775
N    -1.381509  -2.500662  5.084517
C    -0.840773  -3.495852  6.013393
H    -2.395573  -2.458308  4.990428
H    -1.067938  -4.502789  5.641326
H    -1.314565  -3.361870  6.992896
H    0.239598  -3.368143  6.100840
Pb    2.212174  -0.432437  3.454912
