32
Energy: -606845.328154 eV PBE+vdW (tier 2 basis)
C    0.669180  0.248764  0.839040
C    0.209057  -0.406213  2.087936
O    1.068609  -0.912217  2.900182
H    1.277076  1.136644  1.067506
H    -0.146285  0.508741  0.158878
H    1.348905  -0.454788  0.332387
N    -1.095244  -0.492202  2.408013
C    -2.043555  0.623979  2.341448
C    -1.477422  1.728202  3.260425
O    -0.687258  1.442673  4.238383
H    -1.316306  -1.167257  3.143614
H    -2.082206  1.012542  1.313988
C    -3.474595  0.105826  2.704581
C    -4.575294  1.182742  2.513992
C    -3.548993  -0.589939  4.068911
C    -4.959647  2.039926  3.725593
H    -3.646095  -0.656067  1.926737
H    -5.476238  0.647165  2.183178
H    -4.313342  1.820312  1.651355
H    -2.923044  -1.494844  4.138475
H    -4.571740  -0.949888  4.236931
H    -3.301925  0.076959  4.905924
H    -4.115571  2.560461  4.197376
H    -5.445219  1.442492  4.506493
H    -5.684256  2.804581  3.420654
N    -1.817014  2.975233  3.013928
C    -1.449126  4.155687  3.798041
H    -2.468445  3.126513  2.244223
H    -1.048232  4.922835  3.125867
H    -0.701233  3.883573  4.544735
H    -2.342044  4.551655  4.299466
Pb    0.853281  -0.042346  4.984510
