32
Energy: -606845.22481 eV PBE+vdW (tier 2 basis)
C    0.141017  0.073425  1.597576
C    -0.929046  0.557626  2.508619
O    -0.664949  1.504906  3.344074
H    -0.225896  -0.053331  0.572799
H    0.519634  -0.904718  1.938228
H    0.975105  0.781627  1.616529
N    -2.168388  0.039897  2.523131
C    -2.501062  -1.397732  2.465762
C    -1.798099  -2.035398  3.694171
O    -1.300343  -1.302674  4.634155
H    -2.841778  0.609889  3.034811
H    -3.578761  -1.434602  2.696488
C    -2.342672  -2.068761  1.064906
C    -2.945586  -1.148577  -0.025147
C    -2.990646  -3.468951  1.009270
C    -4.443707  -0.861598  0.090368
H    -1.270168  -2.188306  0.851751
H    -2.740558  -1.639868  -0.987130
H    -2.395411  -0.196507  -0.059793
H    -3.947303  -3.526716  1.546705
H    -2.327102  -4.276646  1.354723
H    -3.202042  -3.726484  -0.035876
H    -4.706067  -0.301054  1.001189
H    -5.050140  -1.775852  0.071563
H    -4.771290  -0.244178  -0.754297
N    -1.751565  -3.341930  3.815124
C    -1.187172  -4.063979  4.960815
H    -2.154311  -3.888604  3.053166
H    -0.111865  -3.867024  5.045289
H    -1.345858  -5.133231  4.800745
H    -1.687864  -3.756816  5.886254
Pb    -0.777302  0.739981  5.459409
