32
Energy: -606845.345943 eV PBE+vdW (tier 2 basis)
C    0.427282  2.005368  0.063985
C    0.458113  1.112476  1.248856
O    1.303422  1.328379  2.193541
H    0.188232  3.037344  0.358578
H    -0.252265  1.661067  -0.720198
H    1.450868  2.040757  -0.342791
N    -0.381741  0.068668  1.369642
C    -1.832329  0.145801  1.145567
C    -2.345948  1.244734  2.086428
O    -1.733685  1.472110  3.206444
H    -0.115062  -0.615014  2.081560
H    -2.034442  0.414898  0.100453
C    -2.443250  -1.262299  1.436724
C    -1.849635  -2.304530  0.458782
C    -3.974849  -1.271397  1.448187
C    -2.162519  -2.092070  -1.022315
H    -2.107583  -1.528725  2.457119
H    -2.236570  -3.282236  0.781716
H    -0.758404  -2.370583  0.595482
H    -4.399841  -0.619298  2.222171
H    -4.404368  -0.995669  0.477715
H    -4.319908  -2.288079  1.671453
H    -3.239890  -2.089243  -1.228979
H    -1.726869  -2.905524  -1.614415
H    -1.734648  -1.159500  -1.422100
N    -3.402214  1.979837  1.804081
C    -4.274326  1.970784  0.625937
H    -3.655289  2.647456  2.536086
H    -4.425267  3.006135  0.300181
H    -5.245435  1.531699  0.884642
H    -3.829825  1.396853  -0.189902
Pb    0.287314  1.586360  4.209009
