32
Energy: -606846.001073 eV PBE+vdW (tier 2 basis)
C    -2.153867  0.150210  -0.532178
C    -1.668736  0.340396  0.867459
O    -0.646049  -0.322663  1.243030
H    -3.043519  0.740628  -0.773770
H    -2.375509  -0.915932  -0.682731
H    -1.345791  0.405754  -1.231243
N    -2.343885  1.184384  1.654849
C    -2.236854  1.546196  3.093993
C    -0.963333  2.345743  3.378381
O    0.207955  1.902363  3.117900
H    -3.140358  1.615822  1.193253
H    -3.068261  2.254002  3.209222
C    -2.584773  0.415155  4.126333
C    -1.495216  -0.596130  4.552914
C    -3.859369  -0.306124  3.665217
C    -0.508020  -0.138670  5.634871
H    -2.835186  0.981033  5.040296
H    -1.008071  -1.027395  3.644869
H    -2.014950  -1.486235  4.938294
H    -3.671063  -0.971629  2.811903
H    -4.655435  0.396052  3.382935
H    -4.250871  -0.923307  4.482450
H    0.211532  -0.931680  5.882726
H    -1.050868  0.077007  6.564556
H    0.051567  0.778272  5.395908
N    -1.109543  3.535690  3.933470
C    -0.023508  4.435228  4.330881
H    -2.057943  3.875260  4.080366
H    -0.229149  4.816715  5.337102
H    0.031644  5.279043  3.631319
H    0.923233  3.891482  4.321829
Pb    1.034015  -0.144295  2.700127
