20
Energy: -14935.7677926 eV PBE+vdW (tier 2 basis)
N    -0.052730  1.136704  0.323978
C    -0.085780  0.652368  1.717187
C    1.336818  0.215876  2.121246
O    1.701171  0.074292  3.266484
H    0.149565  2.135385  0.284049
H    -0.949848  0.990125  -0.138333
H    -0.419128  1.412356  2.439127
C    -1.047408  -0.561028  1.815069
C    -1.332531  -0.995273  3.212825
N    -2.218898  -0.291696  4.005135
C    -0.785314  -2.039028  3.925142
C    -2.205721  -0.895827  5.177213
N    -1.351882  -1.962859  5.177574
H    -0.640373  -1.393915  1.223246
H    -1.999202  -0.258651  1.349505
H    -0.038784  -2.780952  3.671162
H    -2.790613  -0.615432  6.046997
H    -1.156764  -2.578757  5.957178
O    2.131074  -0.042199  1.058194
H    1.572350  0.235510  0.279021
