20
Energy: -14935.5841528 eV PBE+vdW (tier 2 basis)
N    0.231314  -0.020448  -0.820829
C    -0.311999  0.441419  0.458895
C    0.587550  0.087436  1.640577
O    0.298435  0.291047  2.799385
H    -0.337240  0.346100  -1.584162
H    1.183584  0.315991  -0.957566
H    -0.392171  1.547056  0.524657
C    -1.729793  -0.110917  0.691258
C    -1.829464  -1.596661  0.864460
N    -2.849287  -2.132571  1.628592
C    -1.029857  -2.607117  0.369997
C    -2.671563  -3.439017  1.601168
N    -1.579201  -3.776674  0.854011
H    -2.361611  0.222361  -0.150009
H    -2.146424  0.358133  1.591426
H    -0.154980  -2.583227  -0.266128
H    -3.289828  -4.177344  2.101432
H    -1.228033  -4.711373  0.686414
O    1.791539  -0.431852  1.265002
H    2.279031  -0.576340  2.099421
