20
Energy: -14935.691111 eV PBE+vdW (tier 2 basis)
N    2.988807  -0.798132  1.198782
C    1.691068  -1.414185  0.925827
C    0.644531  -0.310529  0.999045
O    0.515507  0.449217  1.938387
H    3.711713  -1.515532  1.257982
H    2.956648  -0.317380  2.100090
H    1.697499  -1.822327  -0.093299
C    1.282160  -2.552066  1.910099
C    -0.023739  -3.194866  1.579992
N    -0.143894  -4.084410  0.528508
C    -1.255344  -2.990356  2.166389
C    -1.419637  -4.414277  0.481489
N    -2.136823  -3.776306  1.454084
H    1.257823  -2.134628  2.926998
H    2.078741  -3.310099  1.875381
H    -1.570920  -2.372153  2.998057
H    -1.875108  -5.104156  -0.221569
H    -3.128945  -3.872204  1.632329
O    -0.159277  -0.277344  -0.092899
H    -0.804811  0.438733  0.071327
