20
Energy: -14935.7413355 eV PBE+vdW (tier 2 basis)
N    1.655079  -1.251802  0.500783
C    0.749470  -0.127042  0.665063
C    0.264594  0.215083  2.082571
O    -0.395662  1.196647  2.360681
H    2.350181  -1.276927  1.245038
H    1.129687  -2.129947  0.535475
H    1.257666  0.794101  0.330329
C    -0.496949  -0.306502  -0.238778
C    -1.403605  -1.401177  0.224026
N    -1.028354  -2.733976  0.180937
C    -2.657021  -1.288776  0.786709
C    -2.034185  -3.410070  0.701799
N    -3.047193  -2.577769  1.082881
H    -0.128279  -0.521516  -1.251756
H    -1.049969  0.639638  -0.268574
H    -3.278973  -0.429324  1.004250
H    -2.084576  -4.487150  0.822760
H    -3.930133  -2.853698  1.494516
O    0.660576  -0.686161  3.024267
H    0.297645  -0.352634  3.868025
