20
Energy: -14935.6910374 eV PBE+vdW (tier 2 basis)
N    0.385205  0.323041  0.348415
C    0.064126  -0.380452  1.579991
C    1.215095  -0.206908  2.562633
O    2.069502  0.649772  2.489133
H    -0.436247  0.324930  -0.259248
H    0.680193  1.278726  0.543324
H    -0.809690  0.041423  2.130611
C    -0.276345  -1.854983  1.276234
C    -1.634159  -2.018435  0.666066
N    -2.069661  -1.247823  -0.398543
C    -2.627352  -2.901104  1.033801
C    -3.294288  -1.657050  -0.668546
N    -3.677296  -2.662014  0.171022
H    -0.228453  -2.447812  2.197027
H    0.498802  -2.233188  0.590928
H    -2.679030  -3.655391  1.809405
H    -3.939895  -1.267341  -1.448683
H    -4.567747  -3.143828  0.166376
O    1.150479  -1.084525  3.607555
H    1.889762  -0.839040  4.196500
