20
Energy: -14935.693252 eV PBE+vdW (tier 2 basis)
N    1.056066  0.965422  0.756956
C    0.440725  -0.278483  1.217958
C    1.262328  -0.974232  2.306590
O    2.473358  -1.053500  2.312167
H    1.078611  1.645538  1.518174
H    2.034142  0.781889  0.518539
H    -0.551524  -0.047672  1.629759
C    0.259295  -1.229035  0.006716
C    -0.492705  -2.486225  0.297073
N    0.131235  -3.608416  0.809086
C    -1.842286  -2.728943  0.146271
C    -0.818367  -4.509537  0.965262
N    -2.035413  -4.024051  0.577865
H    1.255862  -1.488559  -0.380982
H    -0.253597  -0.641408  -0.766086
H    -2.656328  -2.117239  -0.223541
H    -0.685882  -5.518257  1.342885
H    -2.915314  -4.525056  0.586266
O    0.480093  -1.490702  3.292145
H    1.085702  -1.969535  3.891898
