20
Energy: -14935.6717127 eV PBE+vdW (tier 2 basis)
N    0.704438  -2.255726  3.041756
C    0.790391  -1.241039  1.996139
C    0.925421  0.152487  2.584685
O    1.558136  1.061221  2.091817
H    0.573102  -3.171254  2.608793
H    -0.106016  -2.086018  3.639290
H    1.708807  -1.415330  1.419840
C    -0.394617  -1.213612  0.973626
C    -0.534339  -2.516362  0.260900
N    0.417112  -2.949459  -0.644316
C    -1.524272  -3.468679  0.391153
C    0.006957  -4.130909  -1.060694
N    -1.167991  -4.491789  -0.463330
H    -0.209367  -0.410498  0.244752
H    -1.326126  -0.976614  1.508429
H    -2.429494  -3.501412  0.985247
H    0.511036  -4.762259  -1.785357
H    -1.688379  -5.345773  -0.622548
O    0.183162  0.307614  3.721249
H    0.311041  1.236411  3.994570
