20
Energy: -14935.6480299 eV PBE+vdW (tier 2 basis)
N    0.656173  -2.292962  3.070400
C    0.793852  -1.311303  1.990457
C    1.080635  0.100673  2.496199
O    2.075603  0.753389  2.260855
H    -0.041776  -1.980957  3.747482
H    1.537221  -2.397035  3.573620
H    1.662975  -1.592026  1.381972
C    -0.456534  -1.322216  1.080612
C    -0.580940  -2.591842  0.305587
N    0.247381  -2.856328  -0.768364
C    -1.433974  -3.653141  0.513945
C    -0.097584  -4.052611  -1.202502
N    -1.115897  -4.578416  -0.457824
H    -0.386168  -0.477997  0.378617
H    -1.352236  -1.158022  1.696696
H    -2.205412  -3.832775  1.252318
H    0.342779  -4.578469  -2.043457
H    -1.558390  -5.479105  -0.592097
O    0.072544  0.570459  3.297693
H    0.355750  1.459684  3.584793
