20
Energy: -14935.6081415 eV PBE+vdW (tier 2 basis)
N    -0.215582  0.689941  0.299072
C    0.077366  0.053992  1.589861
C    1.590970  0.153224  1.764857
O    2.400492  -0.310022  0.990761
H    0.294833  0.201639  -0.439892
H    -1.210136  0.601092  0.088392
H    -0.401659  0.655529  2.375365
C    -0.385417  -1.414283  1.698163
C    -0.253888  -2.067771  3.040443
N    -0.521427  -3.417879  3.176097
C    0.087916  -1.533301  4.266257
C    -0.345112  -3.695226  4.452519
N    0.025266  -2.586134  5.157044
H    0.163306  -2.013335  0.954996
H    -1.444334  -1.445890  1.391784
H    0.376554  -0.538132  4.579940
H    -0.467753  -4.668668  4.916339
H    0.228772  -2.539147  6.147760
O    1.948773  0.836514  2.886246
H    2.926690  0.841327  2.894195
