20
Energy: -14935.6398413 eV PBE+vdW (tier 2 basis)
N    2.871237  -1.087075  1.274494
C    1.490415  -1.542582  1.028784
C    0.596587  -0.303709  1.058054
O    -0.257325  -0.035754  1.873775
H    3.498486  -1.891345  1.230253
H    3.163077  -0.443845  0.537835
H    1.352943  -2.005424  0.031564
C    1.072573  -2.563911  2.095509
C    -0.167505  -3.318781  1.738205
N    -0.124275  -4.392156  0.866099
C    -1.465210  -3.095832  2.144615
C    -1.369375  -4.812073  0.750805
N    -2.220830  -4.057453  1.508079
H    0.956805  -2.049304  3.057468
H    1.894274  -3.287714  2.201323
H    -1.900250  -2.345220  2.792071
H    -1.708517  -5.648187  0.147880
H    -3.221951  -4.181837  1.594503
O    0.892765  0.522237  0.010457
H    0.316077  1.303965  0.113227
