20
Energy: -14935.7650719 eV PBE+vdW (tier 2 basis)
N    -0.216039  1.189632  0.344789
C    -0.067895  0.363581  1.558839
C    1.355523  -0.244038  1.557718
O    1.685862  -1.212751  2.205027
H    -0.887895  1.941063  0.493993
H    -0.561443  0.628938  -0.436320
H    -0.088162  1.056592  2.415258
C    -1.163411  -0.706305  1.787766
C    -1.420779  -1.010336  3.229686
N    -2.311043  -0.242413  3.958532
C    -0.858563  -1.974938  4.036221
C    -2.290457  -0.735330  5.182557
N    -1.425381  -1.788733  5.278103
H    -0.900190  -1.622319  1.240797
H    -2.100857  -0.318112  1.364693
H    -0.098777  -2.721434  3.845256
H    -2.876241  -0.380676  6.024256
H    -1.229329  -2.334256  6.108379
O    2.214096  0.434727  0.769862
H    1.631981  1.109107  0.319590
