20
Energy: -14935.6478992 eV PBE+vdW (tier 2 basis)
N    -1.279699  0.328815  0.242933
C    -0.380083  -0.009314  1.339775
C    1.066951  0.050469  0.825276
O    1.372448  0.554371  -0.232546
H    -2.027224  0.943252  0.558436
H    -0.743601  0.817834  -0.477249
H    -0.421743  0.720935  2.172222
C    -0.769714  -1.390168  1.942023
C    -0.164441  -1.684688  3.278184
N    -0.448360  -0.901419  4.385397
C    0.708173  -2.696668  3.636447
C    0.226057  -1.431950  5.385262
N    0.942689  -2.523673  4.984193
H    -0.532244  -2.183847  1.220410
H    -1.863714  -1.376173  2.045314
H    1.150076  -3.508915  3.071618
H    0.237327  -1.071161  6.408737
H    1.542321  -3.098760  5.563678
O    2.024720  -0.466770  1.634713
H    1.606060  -0.895169  2.414177
