20
Energy: -14935.692149 eV PBE+vdW (tier 2 basis)
N    -0.681780  0.799908  0.418200
C    -0.071338  0.169226  1.581002
C    1.404084  -0.241139  1.476925
O    2.121728  -0.446109  2.433293
H    -0.691875  0.143326  -0.364325
H    -0.133595  1.604779  0.116072
H    -0.097379  0.884607  2.416788
C    -0.914268  -1.058078  2.023082
C    -1.043312  -2.114525  0.973785
N    -0.055464  -3.059933  0.764778
C    -2.073615  -2.308084  0.075742
C    -0.479511  -3.809723  -0.232792
N    -1.699855  -3.394406  -0.687162
H    -1.908691  -0.677968  2.290891
H    -0.456352  -1.490732  2.922058
H    -3.011290  -1.787472  -0.076069
H    0.043796  -4.658931  -0.660346
H    -2.241342  -3.814832  -1.432426
O    1.840924  -0.345963  0.190875
H    2.760876  -0.667855  0.256515
