20
Energy: -14935.6898675 eV PBE+vdW (tier 2 basis)
N    2.853902  -1.097226  1.721623
C    1.606460  -1.642427  1.170902
C    0.587088  -0.540189  0.880503
O    0.306293  -0.107641  -0.217377
H    2.668743  -0.576047  2.580414
H    3.282546  -0.447616  1.061637
H    1.835432  -2.095516  0.197787
C    1.045731  -2.731676  2.101941
C    -0.174282  -3.392052  1.546120
N    -0.090018  -4.294372  0.502159
C    -1.493715  -3.206133  1.900730
C    -1.330590  -4.650082  0.233470
N    -2.220647  -4.017816  1.055286
H    0.822593  -2.294209  3.085360
H    1.843625  -3.474080  2.240827
H    -1.963186  -2.584908  2.653498
H    -1.641367  -5.353825  -0.531898
H    -3.227458  -4.124956  1.049896
O    0.053483  -0.011959  2.028260
H    -0.524632  0.717732  1.733861
