20
Energy: -14935.6286896 eV PBE+vdW (tier 2 basis)
N    0.917925  -1.380524  -0.851231
C    0.190165  -0.727307  0.230521
C    1.098541  -0.399854  1.409312
O    0.893073  0.500431  2.195288
H    0.286546  -1.564570  -1.631840
H    1.282667  -2.282140  -0.539976
H    -0.158528  0.249228  -0.134468
C    -1.079541  -1.480209  0.761678
C    -0.808493  -2.848895  1.289262
N    -0.413336  -3.057890  2.597991
C    -0.848662  -4.053620  0.615837
C    -0.223676  -4.356765  2.714962
N    -0.474398  -5.007195  1.539465
H    -1.789064  -1.535102  -0.076995
H    -1.544083  -0.870302  1.549041
H    -1.119694  -4.311666  -0.400764
H    0.085891  -4.877987  3.615095
H    -0.415404  -6.004986  1.377357
O    2.150615  -1.252827  1.517865
H    2.608456  -0.999819  2.342597
