20
Energy: -14935.679113 eV PBE+vdW (tier 2 basis)
N    -0.170713  -0.435300  -0.185181
C    0.084386  -0.290017  1.251620
C    1.547244  -0.555798  1.578225
O    1.967786  -1.086058  2.584086
H    -1.136294  -0.162635  -0.374371
H    0.431793  0.190041  -0.719314
H    -0.098510  0.741036  1.626036
C    -0.834690  -1.223932  2.052965
C    -2.274344  -0.855874  1.890076
N    -2.754831  0.380037  2.285916
C    -3.298648  -1.604338  1.350577
C    -4.042184  0.374914  2.000256
N    -4.422831  -0.807736  1.432234
H    -0.548045  -1.168245  3.111718
H    -0.672086  -2.257440  1.718388
H    -3.326433  -2.603344  0.933064
H    -4.739413  1.186780  2.180889
H    -5.356162  -1.059674  1.131153
O    2.376901  -0.062126  0.612655
H    3.283846  -0.246626  0.924594
