20
Energy: -14935.6945066 eV PBE+vdW (tier 2 basis)
N    0.448672  0.159827  0.037254
C    0.144877  -0.096274  1.434548
C    1.352488  -0.538604  2.274642
O    2.452034  -0.828075  1.846955
H    1.342008  0.644509  -0.050942
H    0.552869  -0.725467  -0.461186
H    -0.186826  0.848273  1.898834
C    -1.038163  -1.076336  1.571713
C    -0.842351  -2.437117  0.968325
N    -1.944846  -3.165134  0.561832
C    0.308836  -3.169331  0.745389
C    -1.476655  -4.311434  0.108846
N    -0.115671  -4.362277  0.196960
H    -1.907310  -0.619443  1.079907
H    -1.294320  -1.174320  2.637023
H    1.358042  -2.959313  0.914764
H    -2.068027  -5.126884  -0.294741
H    0.481745  -5.124888  -0.098006
O    1.063077  -0.538171  3.606180
H    1.881522  -0.815541  4.061703
