20
Energy: -14935.7118028 eV PBE+vdW (tier 2 basis)
N    -0.406540  0.493205  0.385470
C    0.187829  0.310978  1.705009
C    1.694695  0.198966  1.551104
O    2.315227  0.481594  0.546124
H    0.230021  1.026545  -0.207310
H    -1.286858  0.999139  0.459799
H    0.039241  1.179056  2.381110
C    -0.434768  -0.910108  2.422343
C    -1.900642  -0.720148  2.641027
N    -2.382903  0.291569  3.451989
C    -2.951559  -1.430967  2.104027
C    -3.697302  0.189057  3.412774
N    -4.093028  -0.842890  2.609531
H    0.067441  -1.053284  3.388638
H    -0.263337  -1.804521  1.808323
H    -2.986490  -2.272468  1.423303
H    -4.403284  0.822660  3.939997
H    -5.045765  -1.128269  2.419713
O    2.306034  -0.218319  2.693928
H    3.262658  -0.210547  2.497437
