20
Energy: -14935.6136324 eV PBE+vdW (tier 2 basis)
N    1.271486  -1.340983  0.924566
C    0.630886  -0.069073  0.583575
C    0.307687  0.712343  1.861530
O    -0.728728  1.294639  2.108631
H    2.273122  -1.236061  1.067736
H    1.108001  -2.030711  0.191356
H    1.295168  0.611769  0.008936
C    -0.629726  -0.283175  -0.275836
C    -1.516886  -1.391087  0.194720
N    -1.347932  -2.682021  -0.273577
C    -2.540399  -1.355459  1.116586
C    -2.249537  -3.413223  0.354057
N    -2.996900  -2.653076  1.207739
H    -0.304371  -0.522637  -1.297864
H    -1.182861  0.662978  -0.314799
H    -2.952021  -0.546859  1.707106
H    -2.408857  -4.479018  0.227761
H    -3.757098  -2.976754  1.792986
O    1.374197  0.734872  2.706999
H    1.091768  1.262536  3.478792
