20
Energy: -14935.6502161 eV PBE+vdW (tier 2 basis)
N    -1.295386  -0.994705  2.223088
C    0.152183  -1.220577  2.124106
C    0.985425  -0.104789  2.753789
O    1.776552  -0.239386  3.663447
H    -1.583315  -0.949672  3.200993
H    -1.537994  -0.097230  1.799443
H    0.393050  -2.125086  2.697846
C    0.572756  -1.438972  0.656031
C    0.126316  -2.748941  0.085304
N    1.039388  -3.595175  -0.516561
C    -1.132026  -3.315962  0.053241
C    0.350884  -4.651168  -0.906144
N    -0.970317  -4.529191  -0.581778
H    1.668580  -1.413104  0.582033
H    0.198682  -0.592503  0.057459
H    -2.085958  -2.973053  0.431121
H    0.750896  -5.520884  -1.417001
H    -1.701419  -5.204937  -0.766946
O    0.728873  1.111296  2.180086
H    1.297828  1.752040  2.648441
