20
Energy: -14935.7016183 eV PBE+vdW (tier 2 basis)
N    0.708887  -0.568684  -0.143021
C    0.103374  -0.323799  1.161641
C    1.112448  0.174999  2.182182
O    0.855209  0.918891  3.105784
H    0.043018  -1.099383  -0.712197
H    1.531963  -1.163089  -0.034487
H    -0.630845  0.489465  1.062558
C    -0.649005  -1.542645  1.797314
C    -1.858648  -1.924544  1.010847
N    -1.772943  -2.419405  -0.280182
C    -3.183139  -1.816512  1.379583
C    -3.016710  -2.607117  -0.679582
N    -3.908153  -2.257845  0.292702
H    -0.951072  -1.286575  2.822929
H    0.051923  -2.389779  1.854820
H    -3.658398  -1.476352  2.291452
H    -3.325231  -2.991075  -1.646348
H    -4.917095  -2.321453  0.235104
O    2.353237  -0.360352  1.997822
H    2.905142  -0.004136  2.720650
