20
Energy: -14935.6662374 eV PBE+vdW (tier 2 basis)
N    1.596606  0.514155  0.026153
C    0.399091  0.003993  0.701617
C    0.655697  -0.500083  2.124169
O    0.109323  -0.084462  3.124327
H    2.003472  1.283981  0.558694
H    2.308795  -0.216733  -0.022245
H    -0.308131  0.836692  0.815766
C    -0.259255  -1.085007  -0.174464
C    -1.532854  -1.627050  0.388413
N    -1.536293  -2.636425  1.332927
C    -2.825956  -1.222749  0.130004
C    -2.802573  -2.838075  1.640132
N    -3.625054  -2.004971  0.936380
H    0.452909  -1.912584  -0.308594
H    -0.430690  -0.632432  -1.160425
H    -3.236546  -0.473029  -0.535430
H    -3.178922  -3.565343  2.352066
H    -4.635708  -1.970635  0.987911
O    1.617799  -1.466273  2.154623
H    1.681293  -1.750971  3.085973
