20
Energy: -14935.7503469 eV PBE+vdW (tier 2 basis)
N    -0.317307  0.616362  0.360629
C    0.147748  -0.058112  1.562640
C    1.518381  -0.731472  1.407628
O    2.113117  -0.884285  0.362299
H    -0.397275  -0.070437  -0.393146
H    0.385104  1.286189  0.044886
H    0.257177  0.690349  2.363602
C    -0.914030  -1.082087  2.046498
C    -1.148501  -2.197809  1.080036
N    -0.334488  -3.315732  1.056512
C    -2.104893  -2.293707  0.089606
C    -0.788676  -4.071323  0.076548
N    -1.862775  -3.495791  -0.541507
H    -1.843347  -0.520279  2.206512
H    -0.594064  -1.502111  3.008314
H    -2.911977  -1.634771  -0.206546
H    -0.387828  -5.033232  -0.226123
H    -2.392845  -3.881941  -1.313036
O    2.017523  -1.128863  2.610455
H    2.855777  -1.590494  2.415485
