20
Energy: -14935.8963116 eV PBE+vdW (tier 2 basis)
N    -1.621091  0.006855  0.299050
C    -0.635261  -0.030349  1.376332
C    0.603548  0.863862  1.079789
O    0.745014  1.412125  0.003658
H    -1.114960  0.024263  -0.591499
H    -2.105411  0.905203  0.325461
H    -1.116332  0.359679  2.287240
C    -0.221372  -1.504180  1.657963
C    0.115541  -1.783140  3.088090
N    0.862984  -0.895797  3.840548
C    -0.224963  -2.860530  3.874709
C    0.980410  -1.418832  5.048295
N    0.336777  -2.614331  5.112045
H    0.625045  -1.781236  1.007810
H    -1.069513  -2.130948  1.355946
H    -0.801842  -3.753382  3.670191
H    1.506057  -0.978494  5.887905
H    0.271311  -3.213212  5.925921
O    1.505981  1.002820  2.059703
H    1.294078  0.397622  2.844842
