20
Energy: -14935.7294915 eV PBE+vdW (tier 2 basis)
N    -1.231049  0.598815  0.518200
C    -0.449519  0.217454  1.697128
C    1.049785  0.508324  1.433252
O    1.616351  1.424788  1.990961
H    -1.102944  -0.069589  -0.242523
H    -2.226603  0.614715  0.740765
H    -0.702977  0.930049  2.491447
C    -0.719865  -1.212023  2.270835
C    -0.842522  -2.290859  1.242780
N    0.049267  -2.391473  0.189635
C    -1.779405  -3.293778  1.132008
C    -0.327272  -3.430369  -0.534910
N    -1.432415  -4.010294  0.003916
H    -1.655120  -1.177640  2.848089
H    0.077709  -1.462386  2.990243
H    -2.634564  -3.557137  1.741465
H    0.155200  -3.789228  -1.437008
H    -1.915301  -4.823501  -0.358010
O    1.695061  -0.281407  0.556573
H    1.135182  -1.074463  0.285155
