20
Energy: -14935.7496065 eV PBE+vdW (tier 2 basis)
N    -1.121736  0.668702  0.787048
C    -0.345850  0.207551  1.950200
C    1.155638  0.460441  1.647904
O    1.690410  1.460388  2.091491
H    -2.120048  0.645095  1.003529
H    -0.889930  1.643837  0.591669
H    -0.518206  0.816715  2.855027
C    -0.744279  -1.242143  2.321204
C    -0.881850  -2.190335  1.173758
N    0.151540  -2.391295  0.281125
C    -1.956139  -2.964839  0.800465
C    -0.278662  -3.258780  -0.615815
N    -1.554351  -3.638425  -0.336337
H    -1.706976  -1.202117  2.852702
H    -0.012017  -1.628471  3.047571
H    -2.942534  -3.093138  1.227827
H    0.281735  -3.631627  -1.465590
H    -2.109586  -4.298254  -0.866663
O    1.823161  -0.405453  0.881911
H    1.246680  -1.180853  0.567974
