20
Energy: -14935.7018307 eV PBE+vdW (tier 2 basis)
N    1.004541  -1.100597  0.183100
C    0.247826  -0.555796  1.310525
C    1.179428  0.028772  2.368981
O    1.008887  -0.008544  3.569700
H    1.523523  -0.365065  -0.294905
H    0.338303  -1.510800  -0.477970
H    -0.407846  0.302159  1.031389
C    -0.655803  -1.639785  1.918175
C    -1.852831  -1.936670  1.072153
N    -1.746136  -2.271028  -0.267846
C    -3.180962  -1.926448  1.440712
C    -2.979533  -2.459193  -0.696701
N    -3.886329  -2.264729  0.304026
H    -0.978417  -1.319162  2.915882
H    -0.044854  -2.547362  2.047537
H    -3.671473  -1.715773  2.383088
H    -3.269862  -2.734851  -1.705157
H    -4.892057  -2.354997  0.230597
O    2.232928  0.682423  1.802997
H    2.748668  1.047446  2.547718
