20
Energy: -14935.9385703 eV PBE+vdW (tier 2 basis)
N    0.331069  -0.549358  -0.081255
C    0.061046  -0.240966  1.333892
C    1.394929  -0.211002  2.113293
O    1.496570  0.209567  3.245527
H    -0.443193  -1.092808  -0.479631
H    0.416372  0.305297  -0.630354
H    -0.415951  0.741969  1.477786
C    -0.844448  -1.318385  1.970975
C    -2.212424  -1.367383  1.374619
N    -2.411276  -1.749323  0.057806
C    -3.422539  -1.055307  1.954604
C    -3.712045  -1.669930  -0.152041
N    -4.367621  -1.255085  0.969918
H    -0.905477  -1.116056  3.047159
H    -0.354650  -2.298196  1.849893
H    -3.686552  -0.722937  2.950893
H    -4.224950  -1.901911  -1.079393
H    -5.367619  -1.130992  1.069788
O    2.417108  -0.732945  1.413102
H    1.987347  -0.955425  0.531655
