20
Energy: -14935.7118602 eV PBE+vdW (tier 2 basis)
N    -0.419817  -2.075515  3.217143
C    0.472912  -1.387754  2.293373
C    0.857112  0.013488  2.767221
O    0.185322  0.709452  3.502428
H    -1.104679  -1.406255  3.577218
H    0.102068  -2.407621  4.027953
H    1.392855  -1.976143  2.171795
C    -0.182746  -1.262782  0.887891
C    -0.348793  -2.588233  0.224644
N    0.730563  -3.247483  -0.332528
C    -1.486790  -3.352533  0.091575
C    0.255252  -4.386919  -0.795982
N    -1.087297  -4.497489  -0.564560
H    0.447383  -0.620283  0.256691
H    -1.157066  -0.765593  1.002542
H    -2.509030  -3.195817  0.412136
H    0.824938  -5.156185  -1.307207
H    -1.682286  -5.273910  -0.825764
O    2.043193  0.428349  2.242664
H    2.176905  1.342224  2.562770
