20
Energy: -14935.6913096 eV PBE+vdW (tier 2 basis)
N    1.599857  -1.243911  0.413905
C    0.667776  -0.127627  0.496163
C    0.290571  0.226414  1.931694
O    -0.250391  1.268215  2.249190
H    1.105043  -2.120472  0.598517
H    1.943857  -1.316616  -0.544220
H    1.172826  0.769839  0.108626
C    -0.666165  -0.285073  -0.310872
C    -1.535870  -1.381320  0.207190
N    -1.207782  -2.717551  0.045574
C    -2.693117  -1.271513  0.949539
C    -2.148487  -3.397697  0.673289
N    -3.072142  -2.565460  1.237343
H    -0.392197  -0.485077  -1.357061
H    -1.210696  0.668226  -0.282003
H    -3.254861  -0.411581  1.293021
H    -2.213248  -4.478359  0.746584
H    -3.895313  -2.843859  1.757117
O    0.563482  -0.757338  2.824707
H    0.239856  -0.422242  3.683697
