19
Energy: -568405.3210057  eV PBE+vdW (tier 2 basis)
 N    0.47990   -0.55965   -0.07094
 C   -0.01196   -0.27874    1.31324
 C    1.15575    0.26800    2.19163
 O    0.94484    1.28146    2.81688
 H    0.04413    0.08256   -0.73629
 H    1.49212   -0.43028   -0.13137
 H   -0.72538    0.54929    1.22057
 C   -0.78880   -1.38480    2.10724
 C   -0.01889   -2.59317    2.68108
 C    0.68439   -3.19823    1.46685
 O   -0.07434   -3.88481    0.69740
 O    1.83162   -2.77780    1.15759
 H   -1.60330   -1.74563    1.46311
 H   -1.24655   -0.84004    2.94419
 H   -0.73072   -3.31236    3.09663
 H    0.70693   -2.30798    3.45084
 O    2.30601   -0.38832    2.21643
 H    2.23299   -1.31970    1.83146
Hg    0.62118   -2.83085   -1.17375
