19
Energy: -568405.5131492  eV PBE+vdW (tier 2 basis)
N    -0.19843  0.29723  0.14573
C    -0.14580  0.10421  1.54948
C    1.31309  -0.14552  2.00722
O    2.15972  -0.56018  1.23173
H    0.28093  -0.37418  -0.44752
H    -1.03556  0.71125  -0.24737
H    -0.51415  1.01600  2.04504
C    -1.06441  -1.08063  2.10961
C    -1.02230  -2.42253  1.39016
C    0.44004  -2.94353  1.33079
O    1.01218  -3.13923  2.43729
O    0.97436  -2.98215  0.19126
H    -2.08566  -0.68861  2.00395
H    -0.85923  -1.22269  3.17980
H    -1.40120  -2.36135  0.36548
H    -1.60323  -3.16265  1.95398
O    1.60579  0.03321  3.29525
H    0.86418  0.41778  3.79814
Hg    3.10666  -2.97042  1.31096
