19
Energy: -568405.5796703  eV PBE+vdW (tier 2 basis)
N    0.04783  0.07919  -0.13383
C    -0.21752  0.28043  1.26096
C    1.00409  0.79179  2.07518
O    0.98656  1.46447  3.09970
H    0.24962  0.91443  -0.67750
H    0.68032  -0.68304  -0.36531
H    -0.97820  1.07104  1.35868
C    -0.75666  -1.03495  1.89920
C    -2.13615  -0.91457  2.59199
C    -1.98770  0.18761  3.64294
O    -1.42861  -0.10088  4.73695
O    -2.27429  1.36409  3.25164
H    -0.03539  -1.46024  2.60910
H    -0.88245  -1.76167  1.08207
H    -2.39540  -1.86243  3.07581
H    -2.92101  -0.62764  1.88469
O    2.15424  0.38822  1.52991
H    2.89770  0.70759  2.08291
Hg    -0.85499  2.19456  4.90790
