19
Energy: -568405.4462620  eV PBE+vdW (tier 2 basis)
N    -0.88092  0.39696  0.20130
C    -0.45942  -0.00139  1.51681
C    1.06034  0.36855  1.72178
O    1.95593  -0.36167  1.32261
H    -0.39111  -0.05487  -0.56866
H    -0.98321  1.39616  0.04593
H    -1.03546  0.58784  2.24949
C    -0.71898  -1.50634  1.74501
C    -0.45455  -2.10388  3.13922
C    1.04538  -1.96967  3.47560
O    1.36900  -0.90710  4.08769
O    1.84768  -2.81048  2.98975
H    -0.18102  -2.08703  0.98308
H    -1.79490  -1.63847  1.55840
H    -0.70576  -3.16937  3.12917
H    -1.03386  -1.59785  3.91903
O    1.34663  1.53075  2.30397
H    0.54645  1.98031  2.63400
Hg    3.56678  -1.19545  3.19182
