19
Energy: -568405.4996734  eV PBE+vdW (tier 2 basis)
N    -0.17239  -0.51969  -0.00619
C    0.03658  -0.05483  1.32019
C    1.50450  0.33528  1.58715
O    1.97362  0.40726  2.69763
H    0.41562  -0.14159  -0.74199
H    -1.11744  -0.76515  -0.28317
H    -0.49633  0.91160  1.49793
C    -0.55231  -0.98740  2.41119
C    0.23136  -2.28525  2.55657
C    -0.49422  -3.32605  3.45790
O    0.30215  -4.19115  3.94577
O    -1.73111  -3.28555  3.61892
H    -1.60004  -1.19837  2.15714
H    -0.55552  -0.43607  3.35841
H    1.22702  -2.12940  2.98465
H    0.36340  -2.80313  1.59410
O    2.16001  0.62494  0.44600
H    3.06556  0.91314  0.68025
Hg    -1.41470  -5.29376  5.05211
