19
Energy: -568405.6718396  eV PBE+vdW (tier 2 basis)
N    -0.47747  0.73782  0.61514
C    -0.15307  -0.03829  1.75099
C    1.36470  -0.00366  2.16263
O    1.85405  -0.82026  2.90261
H    -0.25335  1.72766  0.63046
H    -0.39519  0.30985  -0.30259
H    -0.62373  0.42005  2.65533
C    -0.64630  -1.48098  1.68724
C    -2.16054  -1.64170  1.81460
C    -2.70909  -1.23869  3.20152
O    -3.71567  -1.89656  3.58833
O    -2.15719  -0.28919  3.83258
H    -0.12689  -2.04686  2.47256
H    -0.34568  -1.95151  0.73592
H    -2.46550  -2.67623  1.62730
H    -2.71162  -1.01035  1.10085
O    1.99664  1.05275  1.63285
H    2.92007  1.05462  1.96024
Hg    -3.83232  -0.65853  5.60655
