19
Energy: -568405.8613874  eV PBE+vdW (tier 2 basis)
N    1.44584  -1.39534  1.60754
C    0.47912  -0.26771  1.62155
C    1.16771  0.96241  2.23227
O    2.30864  0.97277  2.67580
H    0.96642  -2.29505  1.53388
H    2.11595  -1.30673  0.84207
H    0.28565  0.02722  0.57592
C    -0.92460  -0.63367  2.20851
C    -1.14587  -0.68272  3.74622
C    0.10738  -1.30858  4.35319
O    0.91927  -0.45880  4.88030
O    0.39091  -2.49371  4.06044
H    -1.18956  -1.60969  1.77759
H    -1.63688  0.09022  1.79421
H    -2.02226  -1.30484  3.95813
H    -1.30022  0.31671  4.16205
O    0.38324  2.03379  2.16900
H    0.85928  2.80244  2.54691
Hg    2.63297  -1.39071  3.73043
