19
Energy: -568405.6760620  eV PBE+vdW (tier 2 basis)
N    0.00484  0.17168  0.30572
C    -0.64525  -0.22379  1.61178
C    0.13357  0.68908  2.63671
O    1.16100  1.21859  2.18116
H    0.85770  0.72618  0.70482
H    -0.57717  0.79549  -0.26213
H    -1.70238  0.06937  1.57883
C    -0.51184  -1.75065  1.87083
C    -1.85833  -2.50764  2.05442
C    -2.49912  -1.81317  3.24911
O    -2.05043  -2.12984  4.39973
O    -3.20234  -0.78673  3.00726
H    0.10885  -1.92604  2.75891
H    0.02373  -2.22183  1.03274
H    -1.65454  -3.56036  2.27429
H    -2.50396  -2.42510  1.17361
O    -0.24641  0.88436  3.84919
H    0.29740  -0.62545  -0.26737
Hg    -2.05032  0.11884  4.90639
