19
Energy: -568405.7561585  eV PBE+vdW (tier 2 basis)
N    -0.00686  -0.05081  -0.05149
C    0.07028  -0.03242  1.46190
C    1.42497  -0.80281  1.71759
O    1.78853  -1.55975  0.80758
H    0.67019  -0.86219  -0.25706
H    0.35717  0.80730  -0.47927
H    0.13802  1.00232  1.81544
C    -1.18247  -0.75283  2.01149
C    -1.32097  -0.94350  3.52896
C    -0.17444  -1.81540  4.08986
O    0.41106  -1.39408  5.12572
O    0.18671  -2.79738  3.37873
H    -1.26022  -1.73598  1.52440
H    -2.05149  -0.14744  1.70364
H    -2.26734  -1.46346  3.72998
H    -1.32793  0.00434  4.07663
O    1.95182  -0.54105  2.84826
H    -0.94759  -0.23098  -0.41750
Hg    2.38556  -2.36088  4.20613
