19
Energy: -568405.6717431  eV PBE+vdW (tier 2 basis)
N    -0.12242  -0.13230  0.16356
C    0.19957  0.19192  1.50081
C    1.68103  0.67078  1.72676
O    2.19075  0.70545  2.81895
H    0.05605  -1.07821  -0.16141
H    0.00807  0.57979  -0.54784
H    -0.36287  1.10957  1.80171
C    -0.15964  -0.89139  2.51391
C    -1.65832  -1.06509  2.75558
C    -2.31844  0.15637  3.43389
O    -3.27963  -0.11814  4.20606
O    -1.89255  1.31816  3.16423
H    0.36170  -0.65742  3.45211
H    0.23579  -1.86960  2.19204
H    -1.85878  -1.93934  3.38312
H    -2.22153  -1.20498  1.82022
O    2.25368  1.06647  0.58159
H    3.15165  1.39998  0.78733
Hg    -3.62310  2.17499  4.70238
