19
Energy: -568405.5696500  eV PBE+vdW (tier 2 basis)
N    0.69886  -0.17110  -0.20843
C    0.27074  -0.13846  1.21061
C    1.52304  -0.26955  2.11092
O    2.64540  -0.48482  1.67900
H    -0.06604  -0.44960  -0.82644
H    1.07132  0.73015  -0.51101
H    -0.11435  0.87552  1.41893
C    -0.91514  -1.11172  1.53443
C    -0.65541  -2.62812  1.75050
C    0.36828  -3.05819  0.70034
O    0.07373  -2.94116  -0.50902
O    1.55762  -3.23117  1.16945
H    -1.63976  -0.98521  0.71751
H    -1.42297  -0.72842  2.43102
H    -1.59782  -3.16885  1.60839
H    -0.26717  -2.83708  2.75171
O    1.35196  -0.08890  3.41745
H    0.42679  0.11430  3.65090
Hg    2.41491  -1.89562  -0.42325
