19
Energy: -568405.6757451  eV PBE+vdW (tier 2 basis)
N    0.26670  -0.19490  0.33354
C    0.06847  -0.24878  1.83063
C    1.53621  -0.55031  2.32734
O    1.91359  -0.43711  3.55070
H    0.27147  0.75951  -0.03961
H    -0.41029  -0.75575  -0.19218
H    -0.24702  0.74323  2.17844
C    -0.98407  -1.32373  2.22239
C    -2.20006  -0.79175  3.03348
C    -1.56444  -0.18283  4.27633
O    -1.19513  1.02740  4.19715
O    -1.18946  -0.99731  5.18214
H    -0.50415  -2.12390  2.80034
H    -1.37627  -1.80353  1.31290
H    -2.85347  -1.62970  3.29626
H    -2.76509  -0.03212  2.48290
O    2.32019  -0.91067  1.43302
H    1.27624  -0.61475  0.28566
Hg    0.75759  0.23002  5.33357
