19
Energy: -568405.6444640  eV PBE+vdW (tier 2 basis)
N    1.06076  -0.92572  0.46103
C    0.17212  -0.51263  1.60081
C    0.93355  -0.44928  2.92676
O    0.38464  -0.37285  3.99543
H    1.85300  -0.28131  0.40597
H    0.54421  -0.87647  -0.42171
H    -0.09378  0.54136  1.39638
C    -1.19246  -1.25714  1.70738
C    -1.25491  -2.61738  2.44893
C    -0.08618  -3.42191  1.88658
O    0.99162  -3.37918  2.56695
O    -0.17392  -3.80786  0.68569
H    -1.58808  -1.38085  0.68947
H    -1.87178  -0.57553  2.23340
H    -2.19924  -3.11921  2.21571
H    -1.14061  -2.49479  3.52873
O    2.27911  -0.41252  2.73537
H    2.69496  -0.31053  3.61566
Hg    2.10299  -3.15421  0.55346
