19
Energy: -568405.6064039  eV PBE+vdW (tier 2 basis)
N    -0.27275  -0.10666  0.16558
C    0.04759  -0.05034  1.54064
C    1.58844  -0.25875  1.81699
O    2.28479  -1.00077  1.17500
H    0.09294  -0.89908  -0.35787
H    -0.25748  0.76364  -0.35599
H    -0.19997  0.94379  1.93756
C    -0.65387  -1.16738  2.38153
C    -2.11117  -0.80699  2.59514
C    -2.96422  -2.00515  3.14773
O    -3.96083  -1.62353  3.83167
O    -2.65439  -3.17720  2.86091
H    -0.13828  -1.26844  3.34512
H    -0.55450  -2.12352  1.85100
H    -2.61157  -0.54674  1.64983
H    -2.24789  0.02817  3.28988
O    1.96668  0.48737  2.86673
H    2.91786  0.32049  3.03383
Hg    -4.66250  -3.83431  4.19257
