19
Energy: -568405.5728972  eV PBE+vdW (tier 2 basis)
N    -0.75836  0.62420  1.45863
C    0.50759  0.03089  1.65245
C    1.57132  0.37244  0.52852
O    1.28641  0.72475  -0.58532
H    -0.77962  1.63588  1.36627
H    -1.39781  0.16553  0.81402
H    0.97610  0.45494  2.56639
C    0.46158  -1.48941  1.81662
C    -0.42813  -1.97766  2.96482
C    0.03654  -1.51503  4.36292
O    0.82675  -0.53857  4.48257
O    -0.46360  -2.18632  5.31440
H    1.48625  -1.85643  1.94966
H    0.07622  -1.96234  0.89721
H    -0.47353  -3.07280  2.98886
H    -1.46593  -1.62660  2.87154
O    2.81115  0.19631  1.01532
H    3.44947  0.38011  0.29556
Hg    0.68339  -0.90949  6.91983
