19
Energy: -568405.8312130  eV PBE+vdW (tier 2 basis)
N    0.46445  0.11483  0.36112
C    0.16982  -0.11013  1.83130
C    1.45380  -0.69392  2.51933
O    1.32679  -1.17413  3.63647
H    1.31610  0.67651  0.24323
H    0.66013  -0.84805  -0.05241
H    -0.05713  0.86241  2.28678
C    -1.03526  -1.05565  2.02788
C    -1.08961  -2.43246  1.29316
C    0.32634  -2.98119  1.06322
O    0.98453  -2.50334  0.10473
O    0.80504  -3.75749  1.96359
H    -1.94414  -0.50675  1.73693
H    -1.08849  -1.21675  3.11046
H    -1.56268  -2.33660  0.30874
H    -1.67948  -3.12810  1.89653
O    2.49419  -0.72484  1.73674
H    -0.31741  0.56862  -0.12531
Hg    2.91000  -2.94297  1.95051
