33
Energy: -18209.1124718 eV PBE+vdW (tier 2 basis)
C    -0.270343  0.780228  -0.205028
C    -0.022041  0.716099  1.291725
O    1.087198  0.905625  1.781839
H    -1.322725  0.652246  -0.488067
H    0.327767  0.000280  -0.693092
H    0.084886  1.747750  -0.579496
N    -1.129117  0.444797  2.058014
C    -1.017654  0.175905  3.496693
C    -2.205796  -0.678402  3.969212
O    -2.015588  -1.774509  4.488982
H    -1.960768  0.118306  1.579747
H    -0.143544  -0.472807  3.649866
C    -0.793343  1.456534  4.328581
C    -0.707023  1.182848  5.832804
C    -0.462232  2.438322  6.678548
C    0.899285  3.098438  6.457061
N    1.056502  4.257343  7.345798
H    -1.586355  2.190863  4.125840
H    0.142074  1.897275  3.959988
H    0.089635  0.445116  6.024133
H    -1.638376  0.704709  6.175681
H    -0.548343  2.164867  7.743598
H    -1.250057  3.186172  6.493051
H    0.975427  3.467998  5.423790
H    1.691385  2.330839  6.573320
H    1.936857  4.736264  7.156322
H    1.098256  3.953009  8.319826
N    -3.486883  -0.218819  3.767266
C    -3.961266  1.124078  3.461207
H    -4.172135  -0.863579  4.153027
H    -4.950807  1.052186  2.993414
H    -3.293298  1.626007  2.754089
H    -4.047494  1.755298  4.359932
