33
Energy: -18209.1916431 eV PBE+vdW (tier 2 basis)
C    -1.408142  1.245069  0.797781
C    -0.445102  1.017134  1.945162
O    0.360460  1.868521  2.317183
H    -2.451151  1.244748  1.145026
H    -1.324586  0.459765  0.033933
H    -1.179925  2.215227  0.349715
N    -0.501595  -0.206300  2.570415
C    -1.484210  -1.261652  2.380362
C    -2.929613  -0.934588  2.825924
O    -3.867810  -1.341970  2.141228
H    0.155011  -0.290961  3.341624
H    -1.601438  -1.453855  1.303448
C    -1.010034  -2.568919  3.037536
C    0.225676  -3.180439  2.370991
C    0.683914  -4.475234  3.044734
C    1.902529  -5.103849  2.370728
N    2.326063  -6.313666  3.086418
H    -1.845678  -3.282412  2.993678
H    -0.812519  -2.392392  4.108990
H    1.054068  -2.453827  2.372766
H    -0.004301  -3.373018  1.309940
H    -0.146368  -5.202949  3.042583
H    0.926865  -4.291573  4.103276
H    2.740877  -4.390309  2.401670
H    1.674643  -5.272593  1.298512
H    1.619119  -7.045138  2.996788
H    3.181868  -6.690044  2.678805
N    -3.152694  -0.215798  3.966087
C    -2.225817  0.286626  4.971511
H    -4.143553  -0.072507  4.134670
H    -1.511190  -0.483134  5.291508
H    -2.809167  0.570537  5.854500
H    -1.666420  1.168772  4.631508
