33
Energy: -18208.794904 eV PBE+vdW (tier 2 basis)
C    0.086487  -0.701784  0.669333
C    -0.119693  -0.062297  2.027125
O    0.831881  0.237420  2.751644
H    -0.173084  0.000010  -0.135652
H    -0.520371  -1.607536  0.544635
H    1.145265  -0.956214  0.575543
N    -1.400796  0.172773  2.447496
C    -2.669481  0.151628  1.717401
C    -3.041059  -1.317975  1.349972
O    -3.149468  -2.119560  2.274473
H    -1.429455  0.556105  3.386627
H    -3.420745  0.351500  2.496868
C    -2.830751  1.283360  0.684594
C    -2.755409  2.707244  1.268347
C    -1.338560  3.214701  1.620944
C    -1.093772  3.420357  3.120963
N    0.336576  3.529296  3.397036
H    -3.818597  1.155476  0.216111
H    -2.090261  1.198330  -0.122873
H    -3.406547  2.766898  2.157452
H    -3.210255  3.382927  0.530520
H    -1.131888  4.163373  1.106599
H    -0.582540  2.511032  1.243760
H    -1.600069  2.606802  3.685225
H    -1.584352  4.351433  3.445875
H    0.499068  3.817190  4.361342
H    0.780665  2.613923  3.283282
N    -3.294327  -1.731423  0.067433
C    -3.128374  -1.105968  -1.236795
H    -3.571789  -2.708806  0.065646
H    -2.136820  -0.654487  -1.360183
H    -3.891589  -0.343324  -1.443939
H    -3.226902  -1.890743  -1.994585
