33
Energy: -18209.3577007 eV PBE+vdW (tier 2 basis)
C    1.604567  -2.600912  0.029620
C    0.224010  -2.640039  0.652694
O    -0.593945  -3.521079  0.369563
H    2.200316  -1.731962  0.334154
H    1.498861  -2.601747  -1.062021
H    2.140976  -3.517102  0.307295
N    -0.049962  -1.647077  1.542079
C    -1.329631  -1.537443  2.224928
C    -1.651272  -0.036492  2.290147
O    -0.801378  0.758220  2.697458
H    0.629866  -0.920732  1.746435
H    -2.054925  -2.085557  1.611936
C    -1.264935  -2.139644  3.646997
C    -2.617465  -2.238790  4.379664
C    -3.335669  -3.597154  4.325908
C    -3.731959  -4.166186  2.952493
N    -2.650258  -4.903263  2.290863
H    -0.567358  -1.514129  4.222572
H    -0.806177  -3.134879  3.563303
H    -3.296748  -1.446729  4.023134
H    -2.450501  -2.001666  5.440661
H    -4.253105  -3.499973  4.929012
H    -2.714934  -4.358567  4.823912
H    -4.170634  -3.356268  2.330639
H    -4.549399  -4.882455  3.120863
H    -3.036938  -5.566157  1.620850
H    -2.018867  -4.306240  1.749284
N    -2.885674  0.378145  1.892835
C    -3.952036  -0.403217  1.281838
H    -3.019417  1.380886  1.981986
H    -4.722576  0.289717  0.927876
H    -4.422677  -1.098092  1.992012
H    -3.594205  -0.977030  0.416480
