33
Energy: -18209.0688367 eV PBE+vdW (tier 2 basis)
C    1.230892  -0.463331  0.471389
C    0.920564  0.219859  1.795083
O    1.808206  0.751285  2.461054
H    1.702487  0.266710  -0.197960
H    0.357488  -0.897228  -0.030902
H    1.965820  -1.257628  0.653116
N    -0.399759  0.184923  2.153553
C    -1.077098  0.653545  3.370439
C    -1.926576  1.936262  3.176637
O    -3.104634  1.916543  3.538841
H    -1.016129  -0.273673  1.493043
H    -1.863596  -0.089181  3.559183
C    -0.232749  0.748476  4.654371
C    0.487426  -0.526953  5.119486
C    -0.373426  -1.781537  5.354750
C    -0.640658  -2.670131  4.133136
N    0.607829  -3.214320  3.584136
H    -0.946640  1.061269  5.433161
H    0.509637  1.550508  4.564352
H    0.975451  -0.267027  6.070784
H    1.318266  -0.746481  4.434613
H    -1.340332  -1.492201  5.798933
H    0.134736  -2.411215  6.100287
H    -1.249102  -2.125282  3.385375
H    -1.253339  -3.523763  4.459517
H    0.411284  -3.873894  2.831882
H    1.178312  -2.471808  3.178457
N    -1.377675  3.064778  2.645641
C    -0.035694  3.328436  2.155089
H    -2.060340  3.813141  2.566010
H    0.226906  4.370176  2.377487
H    0.043349  3.176705  1.066563
H    0.704394  2.682826  2.638341
