33
Energy: -18209.4041415 eV PBE+vdW (tier 2 basis)
C    -0.796590  -1.209143  -0.133392
C    -0.547929  -0.933646  1.335923
O    0.582292  -1.070738  1.826985
H    -0.104921  -0.600462  -0.728348
H    -1.824342  -1.010263  -0.459861
H    -0.558987  -2.261871  -0.333519
N    -1.629196  -0.528028  2.050268
C    -1.746169  -0.281872  3.501673
C    -1.021007  0.974410  4.039476
O    -1.557875  1.637214  4.927532
H    -2.486025  -0.401436  1.526181
H    -2.804137  -0.028871  3.637151
C    -1.463391  -1.537074  4.374784
C    -0.051882  -1.695024  4.957433
C    0.239953  -3.118607  5.452739
C    0.383853  -4.156523  4.333618
N    1.501439  -3.828700  3.441267
H    -1.728338  -2.412045  3.762690
H    -2.182425  -1.517542  5.206618
H    0.070511  -0.987316  5.790830
H    0.704719  -1.420412  4.212727
H    -0.553324  -3.448743  6.144397
H    1.179104  -3.105868  6.025630
H    -0.586593  -4.273879  3.806911
H    0.596966  -5.133349  4.792787
H    1.681446  -4.598648  2.798234
H    1.287941  -3.010979  2.865813
N    0.191749  1.252362  3.501150
C    1.013034  2.339227  3.998984
H    0.610702  0.538635  2.898886
H    1.617779  2.750973  3.182281
H    1.685674  2.009144  4.806255
H    0.358908  3.120565  4.400031
