33
Energy: -18209.4547001 eV PBE+vdW (tier 2 basis)
C    -2.032835  -1.575268  0.025306
C    -1.540338  -0.655439  1.121333
O    -0.449173  -0.829809  1.679755
H    -3.064309  -1.373403  -0.288404
H    -1.953769  -2.613853  0.366581
H    -1.371642  -1.462857  -0.844216
N    -2.355633  0.387425  1.435500
C    -1.993614  1.450598  2.375965
C    -2.295335  1.007452  3.840421
O    -3.180564  1.525072  4.518866
H    -3.259019  0.458602  0.981993
H    -0.901506  1.574910  2.293777
C    -2.706514  2.758592  2.029727
C    -2.069846  3.637444  0.943321
C    -1.999498  3.068532  -0.486269
C    -0.706433  2.311664  -0.852187
N    0.523093  3.105112  -0.920375
H    -2.776850  3.335928  2.961038
H    -3.754559  2.534471  1.766366
H    -1.058277  3.936748  1.268404
H    -2.646548  4.574020  0.921778
H    -2.104824  3.897729  -1.205231
H    -2.867349  2.412491  -0.671620
H    -0.849127  1.837128  -1.835986
H    -0.520000  1.490352  -0.147296
H    0.394753  3.921806  -1.519828
H    0.786695  3.456105  0.000252
N    -1.476551  0.011091  4.266025
C    -1.622270  -0.619296  5.562780
H    -0.831528  -0.382412  3.574346
H    -0.653454  -0.672681  6.076957
H    -2.028942  -1.638196  5.474973
H    -2.314230  -0.016058  6.159948
