33
Energy: -18208.9474195 eV PBE+vdW (tier 2 basis)
C    0.325184  0.206895  -0.421914
C    -0.717359  -0.005017  0.663489
O    -1.157404  -1.117972  0.926098
H    0.365004  1.234619  -0.805266
H    0.121503  -0.482244  -1.247870
H    1.309565  -0.047108  -0.004796
N    -1.120220  1.153766  1.287244
C    -1.870021  1.272118  2.533188
C    -0.928137  1.042318  3.742188
O    0.106931  0.391049  3.660205
H    -0.578242  1.974850  1.044988
H    -2.153463  2.334570  2.571010
C    -3.211499  0.459747  2.560301
C    -3.434491  -0.564588  3.688975
C    -2.657764  -1.884379  3.568164
C    -3.242420  -2.840510  2.515752
N    -2.401459  -3.981896  2.146389
H    -3.298891  -0.043075  1.590923
H    -4.029556  1.193585  2.596933
H    -4.514862  -0.787452  3.709776
H    -3.218164  -0.103363  4.664099
H    -2.657618  -2.389043  4.548591
H    -1.608282  -1.683450  3.316090
H    -3.447032  -2.286842  1.588559
H    -4.214203  -3.224965  2.869510
H    -2.107453  -4.490200  2.982525
H    -1.548673  -3.626961  1.709106
N    -1.298595  1.645861  4.915671
C    -2.404947  2.558138  5.152959
H    -0.644726  1.478213  5.673384
H    -2.319121  3.484297  4.563154
H    -2.399210  2.838348  6.211451
H    -3.379969  2.097117  4.940995
