33
Energy: -18209.2724691 eV PBE+vdW (tier 2 basis)
C    -0.365259  -0.456952  0.139899
C    -0.408342  -0.271028  1.643024
O    0.617418  -0.157204  2.309531
H    -0.379281  0.531072  -0.341454
H    -1.200248  -1.040905  -0.263206
H    0.583436  -0.940075  -0.112718
N    -1.641235  -0.243600  2.266684
C    -2.987971  -0.161446  1.685716
C    -3.455535  -1.483744  1.021125
O    -4.360782  -1.497698  0.191605
H    -1.552163  -0.007381  3.250870
H    -3.652541  -0.053048  2.559552
C    -3.254313  1.047965  0.776370
C    -2.871082  2.383601  1.417964
C    -3.179951  3.614394  0.548154
C    -4.601923  4.171940  0.662307
N    -5.624240  3.197944  0.256734
H    -4.322953  1.040023  0.534620
H    -2.723666  0.926567  -0.179742
H    -1.795545  2.380252  1.653269
H    -3.391332  2.489069  2.386153
H    -2.960987  3.382974  -0.509279
H    -2.492525  4.430562  0.818595
H    -4.645941  5.124032  0.096359
H    -4.796433  4.428526  1.716042
H    -5.549923  2.997061  -0.741973
H    -6.559142  3.576934  0.405980
N    -2.825799  -2.602700  1.475206
C    -3.150088  -3.932318  1.000846
H    -2.062628  -2.468830  2.129751
H    -2.299199  -4.389327  0.475385
H    -3.989773  -3.839946  0.303489
H    -3.445105  -4.588263  1.831541
