33
Energy: -18209.2215887 eV PBE+vdW (tier 2 basis)
C    -0.373264  -0.702703  -0.745021
C    -0.009958  -0.448141  0.709696
O    1.153381  -0.491185  1.102064
H    -0.857590  0.174539  -1.198198
H    -1.057292  -1.554893  -0.857110
H    0.550730  -0.915247  -1.288695
N    -1.034131  -0.156705  1.572772
C    -2.448859  -0.025469  1.288949
C    -3.002681  0.983867  2.312372
O    -2.421122  1.188256  3.379089
H    -0.761579  0.114281  2.517662
H    -2.578657  0.390859  0.278388
C    -3.204086  -1.386997  1.336698
C    -3.176442  -2.102316  2.695390
C    -4.313257  -1.720911  3.650779
C    -4.080893  -2.163012  5.106846
N    -2.961622  -1.534244  5.812466
H    -2.730330  -2.023028  0.575673
H    -4.243161  -1.243307  1.000819
H    -2.202441  -1.908224  3.171258
H    -3.209600  -3.189287  2.525208
H    -5.257859  -2.161526  3.287621
H    -4.467401  -0.630807  3.651969
H    -3.931183  -3.253889  5.146892
H    -4.998305  -1.963121  5.682754
H    -2.978632  -0.521469  5.676647
H    -2.068884  -1.850453  5.434257
N    -4.162448  1.632077  2.007062
C    -5.015369  1.486962  0.840776
H    -4.489717  2.230269  2.760095
H    -5.573213  2.418347  0.690570
H    -5.737890  0.662772  0.944996
H    -4.419214  1.311811  -0.062368
