33
Energy: -18209.1258377 eV PBE+vdW (tier 2 basis)
C    0.920532  1.153943  1.906533
C    0.118101  -0.119651  1.741140
O    0.641901  -1.228061  1.647315
H    0.829498  1.542475  2.930834
H    0.582287  1.952558  1.233154
H    1.970056  0.921903  1.708890
N    -1.252110  0.003176  1.693310
C    -2.063611  1.189606  1.942845
C    -1.894634  1.758287  3.375525
O    -1.696442  2.962579  3.544616
H    -1.729077  -0.888337  1.590581
H    -1.709799  2.008667  1.298931
C    -3.539513  0.888448  1.583226
C    -4.347934  2.070865  1.021459
C    -4.474667  3.319833  1.902087
C    -5.132045  3.090037  3.262748
N    -5.056675  4.318551  4.061683
H    -4.056863  0.456056  2.452275
H    -3.527442  0.102648  0.811796
H    -5.353057  1.689512  0.777225
H    -3.900013  2.367369  0.059653
H    -5.054210  4.081313  1.359645
H    -3.478688  3.756322  2.069874
H    -4.665030  2.218013  3.763147
H    -6.195207  2.835241  3.123575
H    -5.517674  4.190444  4.962560
H    -4.076330  4.526998  4.263013
N    -1.959158  0.911397  4.446188
C    -2.150896  -0.530647  4.512686
H    -1.795499  1.398028  5.322105
H    -2.409230  -0.789764  5.545622
H    -1.249574  -1.092318  4.229240
H    -2.983537  -0.860712  3.879371
