33
Energy: -18209.5282858 eV PBE+vdW (tier 2 basis)
C    -0.363677  -0.201476  0.506614
C    -0.862093  0.532370  1.735543
O    -0.102911  1.214577  2.435690
H    0.423804  -0.903769  0.807405
H    0.092252  0.526532  -0.176008
H    -1.147672  -0.750273  -0.029520
N    -2.188434  0.398209  2.009944
C    -2.834026  1.044354  3.154085
C    -2.755817  0.113603  4.386921
O    -3.706377  -0.551218  4.796298
H    -2.732979  -0.260558  1.463265
H    -2.245471  1.948150  3.372240
C    -4.268099  1.456995  2.834111
C    -4.444380  2.389578  1.626099
C    -3.977964  3.851956  1.751593
C    -2.462043  4.120832  1.741152
N    -1.865440  4.049272  3.083928
H    -4.677967  1.934962  3.736350
H    -4.875061  0.549422  2.687954
H    -5.520123  2.408172  1.391731
H    -3.961889  1.944767  0.738977
H    -4.410316  4.303738  2.660448
H    -4.418492  4.403588  0.906163
H    -2.281813  5.095414  1.250155
H    -1.959467  3.367979  1.115326
H    -0.854607  3.928552  3.024234
H    -2.042100  4.907974  3.604897
N    -1.514512  0.109189  4.949675
C    -1.153193  -0.764023  6.047279
H    -0.790876  0.640373  4.465301
H    -2.068914  -1.243045  6.410235
H    -0.697056  -0.193848  6.868109
H    -0.447472  -1.546060  5.728627
