33
Energy: -18209.1536386 eV PBE+vdW (tier 2 basis)
C    0.922981  1.533856  0.730072
C    0.506728  0.633241  1.874636
O    1.197897  0.470068  2.878112
H    0.285413  2.427909  0.679392
H    0.843013  1.030128  -0.242610
H    1.956963  1.843798  0.900449
N    -0.700049  -0.017183  1.751366
C    -1.722926  0.168255  0.731548
C    -2.342928  1.584292  0.685367
O    -2.509353  2.130908  -0.405972
H    -0.926432  -0.595139  2.556395
H    -1.263962  0.076902  -0.264154
C    -2.763436  -0.962726  0.862037
C    -3.901367  -0.952311  -0.171191
C    -5.114038  -0.090011  0.197773
C    -6.230873  -0.158776  -0.854258
N    -7.431031  0.638345  -0.588932
H    -3.190812  -0.958561  1.878967
H    -2.195524  -1.901435  0.774072
H    -4.242152  -1.990537  -0.308867
H    -3.506091  -0.631327  -1.148003
H    -4.816813  0.961608  0.321655
H    -5.515549  -0.422193  1.171538
H    -6.547096  -1.206440  -0.986552
H    -5.828475  0.161029  -1.828254
H    -7.845930  0.375102  0.306189
H    -7.191092  1.628121  -0.516710
N    -2.692168  2.215963  1.845018
C    -2.647452  1.755071  3.225749
H    -3.057563  3.147935  1.676057
H    -3.257435  2.436517  3.829114
H    -1.628992  1.747676  3.637972
H    -3.080488  0.752628  3.334841
