33
Energy: -18209.2038372 eV PBE+vdW (tier 2 basis)
C    -0.135243  -0.864458  1.172265
C    -0.441372  0.340158  2.046070
O    0.446230  0.956297  2.631357
H    -0.519139  -0.751654  0.149763
H    -0.569224  -1.782189  1.590411
H    0.951619  -0.973194  1.132681
N    -1.753489  0.731549  2.166803
C    -2.968117  0.112231  1.637404
C    -3.831571  1.251008  1.046007
O    -4.722506  1.787153  1.701010
H    -1.882595  1.515006  2.804199
H    -2.663361  -0.572060  0.834101
C    -3.765345  -0.666898  2.692156
C    -3.012019  -1.851587  3.296410
C    -3.818190  -2.579289  4.374749
C    -3.061482  -3.747768  5.003280
N    -3.896447  -4.436590  5.995619
H    -4.699111  -1.013575  2.222187
H    -4.075210  0.035597  3.479839
H    -2.060700  -1.502776  3.729834
H    -2.745712  -2.568437  2.499975
H    -4.765450  -2.955866  3.958320
H    -4.095361  -1.860498  5.165297
H    -2.097815  -3.376246  5.407711
H    -2.808458  -4.479468  4.219449
H    -3.404605  -5.243689  6.379146
H    -4.090823  -3.817634  6.784405
N    -3.538901  1.660135  -0.225049
C    -2.435155  1.243733  -1.073495
H    -4.083912  2.465617  -0.516967
H    -2.446116  0.159267  -1.251766
H    -1.456085  1.524745  -0.657452
H    -2.545261  1.732613  -2.047138
