33
Energy: -18209.1938646 eV PBE+vdW (tier 2 basis)
C    0.472339  -0.387997  1.360899
C    -0.090364  -0.760683  2.724080
O    0.619005  -1.253528  3.601296
H    0.372003  0.690094  1.169553
H    -0.029203  -0.922908  0.542624
H    1.532935  -0.651871  1.356791
N    -1.417424  -0.523371  2.948694
C    -2.431007  -0.052036  2.025681
C    -3.137008  1.159136  2.666280
O    -3.329421  1.203375  3.879117
H    -1.723945  -0.666455  3.908780
H    -1.932942  0.240929  1.093412
C    -3.513898  -1.115531  1.713330
C    -3.089220  -2.309549  0.841226
C    -2.017471  -3.268596  1.382927
C    -2.308602  -3.887818  2.749904
N    -1.149356  -4.672418  3.193027
H    -4.346786  -0.605599  1.202549
H    -3.927569  -1.456544  2.674160
H    -2.753383  -1.930057  -0.138541
H    -4.003414  -2.888868  0.630825
H    -1.042608  -2.765370  1.437094
H    -1.880508  -4.085467  0.658520
H    -3.172956  -4.566359  2.669383
H    -2.597395  -3.096821  3.467879
H    -1.365098  -5.164018  4.060379
H    -0.375358  -4.040216  3.410612
N    -3.580023  2.141722  1.828513
C    -3.396257  2.238590  0.389498
H    -4.074840  2.890163  2.303421
H    -3.852928  1.394335  -0.147652
H    -2.334418  2.301519  0.108134
H    -3.884949  3.154171  0.040737
