33
Energy: -18209.344645 eV PBE+vdW (tier 2 basis)
C    0.025033  1.240505  1.512310
C    0.401274  0.463150  2.757026
O    1.239109  0.858452  3.561903
H    -1.052575  1.449422  1.468750
H    0.280102  0.677450  0.603160
H    0.579673  2.181918  1.517299
N    -0.255572  -0.734045  2.964815
C    -1.196221  -1.407129  2.075516
C    -2.587619  -0.738328  2.027115
O    -3.279989  -0.800929  1.012360
H    0.110517  -1.260856  3.754169
H    -0.836451  -1.368148  1.035946
C    -1.272717  -2.890043  2.500749
C    -2.259097  -3.774402  1.719644
C    -3.667025  -3.852032  2.321741
C    -4.628781  -4.698129  1.475763
N    -5.998539  -4.832354  1.979292
H    -1.514063  -2.932460  3.576948
H    -0.252472  -3.289125  2.394714
H    -1.842793  -4.792539  1.670980
H    -2.325567  -3.421396  0.678924
H    -4.092983  -2.843227  2.428740
H    -3.606405  -4.279690  3.338022
H    -4.216420  -5.713062  1.353025
H    -4.687186  -4.269673  0.463046
H    -5.996630  -5.227487  2.920931
H    -6.439728  -3.914470  2.052635
N    -2.973750  -0.130030  3.180458
C    -4.254076  0.531260  3.332159
H    -2.281160  -0.063330  3.919038
H    -4.130197  1.609054  3.508499
H    -4.825336  0.100064  4.165894
H    -4.813884  0.386178  2.401853
