33
Energy: -18209.4954803 eV PBE+vdW (tier 2 basis)
C    -0.788341  -1.028126  -0.438549
C    -0.464146  -0.927250  1.040714
O    0.535220  -0.338501  1.455108
H    0.056519  -1.503206  -0.952251
H    -0.891213  -0.015024  -0.847088
H    -1.703834  -1.593599  -0.650729
N    -1.365477  -1.519037  1.877081
C    -1.148563  -1.612958  3.304807
C    -1.948756  -2.836473  3.788152
O    -2.712122  -3.450213  3.038464
H    -2.092316  -2.140005  1.524042
H    -0.075886  -1.808602  3.476556
C    -1.482346  -0.291856  4.046709
C    -2.901150  0.258976  3.864336
C    -4.011899  -0.487352  4.613340
C    -5.389965  0.162746  4.470374
N    -5.441514  1.488377  5.105523
H    -0.755732  0.444067  3.676040
H    -1.264444  -0.416374  5.120780
H    -3.137383  0.290091  2.787768
H    -2.880529  1.306643  4.202731
H    -3.761116  -0.541574  5.685565
H    -4.092167  -1.519830  4.243641
H    -6.131120  -0.470916  4.978785
H    -5.670595  0.173505  3.397314
H    -4.936587  2.177259  4.547527
H    -6.404996  1.818361  5.155354
N    -1.742575  -3.184262  5.084806
C    -2.492806  -4.236836  5.743718
H    -1.143207  -2.592106  5.647165
H    -3.306551  -3.829017  6.362801
H    -1.829668  -4.839096  6.376807
H    -2.930737  -4.874810  4.969607
