33
Energy: -18209.4019759 eV PBE+vdW (tier 2 basis)
C    0.031789  0.697231  -0.461255
C    0.064507  0.196500  0.969898
O    0.918984  -0.599585  1.362014
H    -0.106460  -0.160960  -1.130817
H    1.004512  1.144590  -0.699216
H    -0.758317  1.432911  -0.655234
N    -0.906260  0.702855  1.789313
C    -1.068692  0.277997  3.174292
C    -2.259206  -0.701154  3.244109
O    -3.413324  -0.288033  3.109550
H    -1.655067  1.254759  1.384509
H    -0.128257  -0.220106  3.434306
C    -1.304476  1.488535  4.086651
C    -1.480486  1.147782  5.573683
C    -0.339217  0.355021  6.225613
C    1.032333  1.025791  6.155265
N    2.032207  0.216790  6.862862
H    -2.209513  2.010070  3.740539
H    -0.459476  2.177795  3.940679
H    -2.419582  0.588798  5.702258
H    -1.620715  2.094463  6.119401
H    -0.255181  -0.651021  5.787123
H    -0.597171  0.191344  7.285379
H    0.944496  2.066145  6.531796
H    1.360892  1.101942  5.107544
H    2.964968  0.611917  6.745890
H    1.841731  0.212486  7.866013
N    -1.985636  -2.020977  3.429894
C    -0.691505  -2.682771  3.551146
H    -2.820915  -2.598066  3.468862
H    -0.809680  -3.730120  3.250596
H    -0.308793  -2.665314  4.583491
H    0.049090  -2.224850  2.884383
