33
Energy: -18209.2194242 eV PBE+vdW (tier 2 basis)
C    -0.076944  1.498522  0.577738
C    -0.164579  0.625549  1.812913
O    0.764582  0.504202  2.608797
H    0.952909  1.851747  0.483758
H    -0.748772  2.365035  0.654806
H    -0.364493  0.953288  -0.331550
N    -1.346813  -0.047799  2.019026
C    -2.596847  0.083976  1.285301
C    -3.274820  1.473200  1.384574
O    -3.693207  2.012663  0.357323
H    -1.348331  -0.605078  2.869175
H    -2.388233  -0.002819  0.210062
C    -3.542221  -1.067294  1.693336
C    -4.974326  -0.960626  1.161492
C    -5.100900  -1.003984  -0.365846
C    -6.486445  -0.594266  -0.870488
N    -6.817945  0.763479  -0.419862
H    -3.578117  -1.120010  2.793863
H    -3.071040  -2.005145  1.357264
H    -5.439764  -0.033304  1.525702
H    -5.564102  -1.782452  1.597398
H    -4.865229  -2.013595  -0.738386
H    -4.365083  -0.323665  -0.822306
H    -7.249891  -1.280463  -0.466796
H    -6.502124  -0.717313  -1.971283
H    -7.678827  1.091019  -0.855650
H    -6.075547  1.416208  -0.680430
N    -3.406144  2.085330  2.595778
C    -3.004440  1.647330  3.925134
H    -3.857202  2.991698  2.519071
H    -3.346766  0.627216  4.140310
H    -3.482012  2.308158  4.656713
H    -1.916973  1.695578  4.075079
