33
Energy: -18209.5076911 eV PBE+vdW (tier 2 basis)
C    -0.238272  -0.382862  0.060253
C    -0.130023  -0.157350  1.555585
O    0.969785  -0.162951  2.125054
H    0.420760  0.327446  -0.453129
H    -1.256448  -0.280553  -0.334241
H    0.128831  -1.392164  -0.166671
N    -1.306615  0.049004  2.206121
C    -1.519560  0.154911  3.660216
C    -1.020999  1.473371  4.303519
O    -1.774113  2.113851  5.038792
H    -2.143916  0.058353  1.637956
H    -2.608656  0.209551  3.781888
C    -1.012874  -1.069541  4.447483
C    -1.650117  -2.387915  4.008161
C    -1.185522  -3.578051  4.851081
C    -1.831174  -4.909159  4.459739
N    -3.286277  -4.878643  4.669430
H    -1.246724  -0.874953  5.505844
H    0.081811  -1.131530  4.370673
H    -1.404920  -2.584979  2.951493
H    -2.747277  -2.316059  4.061819
H    -1.393368  -3.378708  5.917327
H    -0.091447  -3.684620  4.773841
H    -1.320830  -5.725630  5.007116
H    -1.656831  -5.095018  3.387896
H    -3.717086  -5.734461  4.320649
H    -3.497090  -4.836315  5.667862
N    0.265192  1.806404  4.034373
C    0.894239  2.987297  4.589647
H    0.797020  1.169675  3.430078
H    1.303097  3.625078  3.793508
H    1.710975  2.719238  5.276003
H    0.135992  3.547934  5.146677
