33
Energy: -18209.4076413 eV PBE+vdW (tier 2 basis)
C    0.593006  1.566149  0.691926
C    0.345405  1.439732  2.183396
O    1.208637  1.796060  2.996204
H    0.848859  2.608312  0.465321
H    -0.254250  1.259709  0.066679
H    1.464901  0.952357  0.432332
N    -0.869556  0.931073  2.527041
C    -1.435526  0.563994  3.843299
C    -1.528399  1.660236  4.933845
O    -2.484054  1.621645  5.712581
H    -1.476902  0.711903  1.747140
H    -2.493081  0.369766  3.624090
C    -0.869938  -0.753024  4.424024
C    0.545280  -0.715867  5.005009
C    0.966356  -2.071551  5.576918
C    2.364283  -2.052625  6.191580
N    2.737836  -3.386435  6.682006
H    -0.928637  -1.516292  3.631139
H    -1.575996  -1.065338  5.209161
H    0.594696  0.047020  5.798257
H    1.264978  -0.397623  4.237472
H    0.939600  -2.844866  4.792647
H    0.238250  -2.388174  6.344612
H    2.404596  -1.262460  6.968576
H    3.095370  -1.766352  5.419325
H    3.690344  -3.378860  7.047098
H    2.134901  -3.657049  7.460778
N    -0.539198  2.577337  4.991469
C    -0.515909  3.593768  6.025670
H    0.275914  2.435660  4.379364
H    0.161721  4.398431  5.719865
H    -0.175771  3.190498  6.992577
H    -1.523518  4.000664  6.171531
