33
Energy: -18209.1626288 eV PBE+vdW (tier 2 basis)
C    -0.827408  0.845957  -0.209729
C    -0.686637  0.705732  1.293109
O    0.310590  1.095657  1.897380
H    -1.003777  1.904677  -0.442807
H    -1.645318  0.250998  -0.634543
H    0.116376  0.553075  -0.682657
N    -1.746138  0.114902  1.927717
C    -1.889091  0.080260  3.384359
C    -1.565357  1.486073  3.964291
O    -2.175354  2.466615  3.548394
H    -2.578513  -0.058652  1.378964
H    -2.972930  0.003520  3.561447
C    -1.260045  -1.157707  4.059046
C    0.240023  -1.441889  3.822526
C    0.536918  -2.350758  2.619043
C    0.217706  -3.824842  2.865812
N    0.424071  -4.610603  1.642633
H    -1.846277  -2.031238  3.733238
H    -1.465572  -1.067136  5.137063
H    0.657114  -1.914048  4.727325
H    0.783570  -0.498731  3.675330
H    1.604773  -2.258519  2.361947
H    -0.020352  -2.013321  1.734154
H    -0.840437  -3.938455  3.150923
H    0.813019  -4.177832  3.733116
H    0.205949  -5.593710  1.805343
H    1.405782  -4.575823  1.362867
N    -0.681416  1.540355  4.998975
C    -0.256353  2.817339  5.544754
H    -0.060986  0.749499  5.122081
H    0.142119  2.669312  6.555100
H    -1.121842  3.486331  5.589902
H    0.511536  3.295749  4.917043
