33
Energy: -18209.4566756 eV PBE+vdW (tier 2 basis)
C    0.836104  0.517127  0.344142
C    0.424628  0.287568  1.785261
O    1.272963  0.130751  2.673384
H    1.508272  1.382784  0.302873
H    -0.004832  0.681669  -0.340336
H    1.405883  -0.356059  0.001907
N    -0.916578  0.271111  2.017709
C    -1.599120  -0.022383  3.291568
C    -1.466629  1.108420  4.342436
O    -2.479900  1.626231  4.818044
H    -1.518620  0.462459  1.226915
H    -2.669542  -0.011098  3.050209
C    -1.247201  -1.429449  3.821149
C    -2.068378  -1.897427  5.031336
C    -1.617540  -1.358198  6.394888
C    -2.275157  -2.083080  7.572218
N    -1.878942  -3.499095  7.620159
H    -0.173725  -1.482350  4.050528
H    -1.416984  -2.121516  2.981707
H    -2.013342  -2.994565  5.074119
H    -3.132283  -1.648486  4.878590
H    -1.840576  -0.286513  6.486626
H    -0.520737  -1.455068  6.482000
H    -3.369542  -2.050233  7.451327
H    -2.046854  -1.528263  8.502714
H    -0.897670  -3.580907  7.890685
H    -2.416260  -3.999333  8.327614
N    -0.199405  1.425038  4.700365
C    0.096464  2.432234  5.697913
H    0.559552  0.945139  4.203121
H    0.853938  3.134399  5.325031
H    0.468792  1.978147  6.629145
H    -0.826487  2.978199  5.921468
