33
Energy: -18209.4116388 eV PBE+vdW (tier 2 basis)
C    0.141451  0.047221  0.267500
C    0.105858  0.218918  1.774241
O    1.125897  0.292296  2.454312
H    -0.440590  0.821682  -0.250467
H    -0.271075  -0.928264  -0.027894
H    1.184775  0.099263  -0.053440
N    -1.136816  0.308126  2.364259
C    -2.445958  0.166936  1.743196
C    -3.051790  1.489609  1.212507
O    -4.130745  1.483757  0.621813
H    -1.098946  0.344813  3.379977
H    -2.337496  -0.450199  0.839326
C    -3.430846  -0.585008  2.663984
C    -3.624654  -0.046604  4.089677
C    -4.283372  1.334035  4.232226
C    -5.716108  1.425416  3.694596
N    -6.593104  0.448672  4.355611
H    -3.079151  -1.624950  2.732895
H    -4.394753  -0.616994  2.139354
H    -2.665142  -0.041979  4.634957
H    -4.251123  -0.777829  4.619852
H    -3.680054  2.113731  3.742621
H    -4.289330  1.597633  5.303671
H    -5.722998  1.210357  2.617244
H    -6.057306  2.473715  3.800195
H    -6.779927  0.726794  5.320108
H    -7.496546  0.403614  3.886149
N    -2.302972  2.604880  1.418709
C    -2.731835  3.924919  1.004718
H    -1.441992  2.489924  1.943059
H    -1.955561  4.420577  0.406791
H    -2.970573  4.559924  1.870765
H    -3.635048  3.805550  0.396489
