33
Energy: -18209.0605002 eV PBE+vdW (tier 2 basis)
C    -0.044827  -0.301402  0.568814
C    -0.324654  -0.763180  1.986698
O    0.574716  -1.186067  2.708750
H    0.998980  -0.537186  0.345981
H    -0.189514  0.782614  0.470730
H    -0.692545  -0.802760  -0.161711
N    -1.609325  -0.679840  2.478340
C    -2.890056  -0.358657  1.835387
C    -3.331667  -1.508247  0.890562
O    -3.690188  -2.583370  1.362646
H    -1.677812  -1.116903  3.392590
H    -3.615406  -0.442541  2.655373
C    -2.981736  1.081600  1.303933
C    -4.415325  1.574690  1.030476
C    -5.391345  1.523426  2.214960
C    -4.951392  2.315395  3.445993
N    -6.037023  2.365459  4.433686
H    -2.380707  1.214325  0.390721
H    -2.499322  1.725610  2.053610
H    -4.855222  1.001924  0.199300
H    -4.345705  2.614014  0.672002
H    -5.584761  0.476256  2.504504
H    -6.363495  1.920725  1.887525
H    -4.725733  3.351596  3.145993
H    -4.008160  1.895537  3.849305
H    -6.249559  1.425944  4.773639
H    -5.753058  2.907301  5.250005
N    -3.274756  -1.260446  -0.449531
C    -3.640541  -2.249136  -1.446579
H    -2.994307  -0.337940  -0.758021
H    -3.922877  -3.163127  -0.913923
H    -2.796062  -2.470481  -2.114022
H    -4.492489  -1.908806  -2.051616
