33
Energy: -18209.3702946 eV PBE+vdW (tier 2 basis)
C    -1.513832  3.368968  3.636939
C    -0.925698  2.114333  4.255690
O    -0.391454  2.116692  5.359251
H    -0.769078  4.171897  3.686306
H    -2.375004  3.685656  4.239659
H    -1.838619  3.240830  2.596590
N    -1.021528  0.978742  3.479718
C    -0.689779  -0.344144  3.995072
C    0.493297  -1.021645  3.266997
O    0.730210  -2.216319  3.430616
H    -1.595095  1.027671  2.644589
H    -0.333104  -0.161632  5.021672
C    -1.910309  -1.276637  4.052044
C    -2.561521  -1.549582  2.690573
C    -3.643619  -2.640500  2.680808
C    -4.905100  -2.357645  3.508633
N    -4.762505  -2.760646  4.915700
H    -2.632417  -0.821627  4.747243
H    -1.572394  -2.224163  4.492735
H    -1.774294  -1.847097  1.979509
H    -3.009106  -0.621733  2.290104
H    -3.214403  -3.594993  3.022995
H    -3.948987  -2.792439  1.634021
H    -5.731797  -2.954488  3.096676
H    -5.193837  -1.293856  3.372286
H    -4.102604  -2.160722  5.409937
H    -5.654635  -2.669815  5.401699
N    1.243223  -0.200589  2.482180
C    2.456197  -0.642117  1.824078
H    0.986151  0.779842  2.465315
H    2.435298  -0.394957  0.754067
H    2.519011  -1.729471  1.940915
H    3.349334  -0.186814  2.276384
