33
Energy: -18209.2375154 eV PBE+vdW (tier 2 basis)
C    -0.249242  -0.177266  -0.593956
C    0.322588  0.425703  0.668853
O    1.457557  0.903299  0.679540
H    0.455552  -0.940650  -0.947320
H    -0.287421  0.624838  -1.344438
H    -1.243966  -0.620360  -0.501351
N    -0.406743  0.410787  1.846736
C    -1.848932  0.270949  2.087450
C    -2.431617  -1.051358  1.519266
O    -3.558237  -1.117876  1.037049
H    0.106669  0.897678  2.578502
H    -1.926154  0.120574  3.177716
C    -2.728135  1.498813  1.764273
C    -2.465852  2.250855  0.450049
C    -1.435983  3.383272  0.574277
C    -1.029897  4.021114  -0.756225
N    -0.226529  3.092837  -1.566285
H    -2.635977  2.207087  2.603085
H    -3.761592  1.127627  1.779751
H    -3.417627  2.689154  0.112125
H    -2.171332  1.557533  -0.347134
H    -0.523151  3.027286  1.078181
H    -1.848372  4.169533  1.227801
H    -0.513680  4.978025  -0.546139
H    -1.933588  4.273074  -1.334239
H    -0.020866  3.499168  -2.478475
H    0.673039  2.919606  -1.112133
N    -1.620862  -2.132300  1.697294
C    -1.965998  -3.453616  1.212236
H    -0.671426  -1.948403  2.003827
H    -1.708084  -4.215629  1.958577
H    -1.449632  -3.691141  0.269109
H    -3.045745  -3.475553  1.031591
