33
Energy: -18209.5178577 eV PBE+vdW (tier 2 basis)
C    -2.979307  2.865649  3.270354
C    -2.288796  1.716215  3.982092
O    -2.666586  1.319496  5.089773
H    -2.518395  3.133213  2.311997
H    -2.973433  3.741773  3.930283
H    -4.028583  2.592945  3.099412
N    -1.246159  1.164758  3.309434
C    -0.443147  0.049773  3.773274
C    0.641366  -0.150121  2.693032
O    0.614675  0.467625  1.626545
H    -0.972734  1.499935  2.385458
H    0.057090  0.331300  4.716731
C    -1.262390  -1.234591  4.047645
C    -2.119111  -1.704785  2.867246
C    -3.243559  -2.676973  3.259007
C    -4.507418  -2.021973  3.835099
N    -4.323793  -1.452906  5.176676
H    -1.885329  -1.038382  4.925814
H    -0.571071  -2.038003  4.349642
H    -1.471337  -2.172283  2.108665
H    -2.570355  -0.830058  2.371094
H    -2.869747  -3.422076  3.980124
H    -3.549189  -3.235317  2.359861
H    -5.280531  -2.800862  3.913875
H    -4.883974  -1.287088  3.092352
H    -3.889755  -0.526281  5.143888
H    -5.229210  -1.322628  5.625861
N    1.608983  -1.048823  3.009793
C    2.689947  -1.399225  2.107585
H    1.547692  -1.521724  3.903600
H    2.598304  -0.766850  1.218835
H    2.629799  -2.453359  1.801953
H    3.667053  -1.219373  2.575997
