33
Energy: -18209.5146673 eV PBE+vdW (tier 2 basis)
C    -2.234768  -1.287966  -0.751103
C    -1.694798  -0.615788  0.492366
O    -0.557434  -0.849836  0.920198
H    -2.134533  -2.374382  -0.642152
H    -1.615999  -0.985205  -1.605807
H    -3.281432  -1.040810  -0.966762
N    -2.525788  0.275678  1.100033
C    -2.126504  1.072358  2.260266
C    -2.341247  0.263009  3.570863
O    -3.261738  0.496784  4.351561
H    -3.473661  0.379050  0.756021
H    -1.044125  1.237507  2.152942
C    -2.874401  2.402645  2.300962
C    -2.703826  3.318819  1.080417
C    -1.271519  3.810165  0.791089
C    -0.467227  2.943008  -0.195171
N    0.855940  3.448648  -0.567677
H    -2.543232  2.932764  3.205923
H    -3.942578  2.195654  2.470528
H    -3.353741  4.190151  1.247109
H    -3.102964  2.829830  0.175293
H    -0.709732  3.908482  1.736015
H    -1.322593  4.826776  0.368243
H    -1.055336  2.826368  -1.120645
H    -0.323950  1.927123  0.199282
H    1.472963  3.468320  0.245235
H    0.790856  4.410845  -0.904168
N    -1.410006  -0.713516  3.740371
C    -1.469001  -1.665584  4.831659
H    -0.774396  -0.878131  2.955729
H    -1.808426  -2.655483  4.490373
H    -2.180671  -1.289290  5.574086
H    -0.482133  -1.775995  5.299920
