33
Energy: -18209.5661721 eV PBE+vdW (tier 2 basis)
C    -1.046957  -0.899659  0.928397
C    -1.013238  -0.806235  2.438315
O    -1.392698  0.201002  3.051575
H    -0.241759  -1.528186  0.526412
H    -0.974616  0.105090  0.501923
H    -2.005850  -1.345683  0.628588
N    -0.566129  -1.916165  3.083915
C    -0.658959  -2.082830  4.532691
C    0.630034  -1.547350  5.212695
O    1.486811  -2.282361  5.699092
H    -0.277211  -2.716660  2.533471
H    -1.482461  -1.431941  4.858427
C    -0.940179  -3.537905  4.903453
C    -2.165448  -4.183148  4.236893
C    -3.546169  -3.643148  4.647110
C    -4.033491  -2.366208  3.948481
N    -4.062952  -2.519631  2.484892
H    -1.039899  -3.585685  5.998243
H    -0.039545  -4.128900  4.674852
H    -2.132083  -5.254706  4.483910
H    -2.084373  -4.127166  3.140365
H    -3.572913  -3.470929  5.735813
H    -4.293419  -4.432405  4.457032
H    -3.371896  -1.518004  4.168548
H    -5.018949  -2.103092  4.379610
H    -4.327607  -1.633959  2.053154
H    -4.780509  -3.195223  2.215278
N    0.693461  -0.187716  5.196221
C    1.850597  0.546443  5.666736
H    -0.035948  0.297472  4.669235
H    1.546067  1.365176  6.332250
H    2.430910  0.969335  4.832507
H    2.490377  -0.148621  6.220916
