33
Energy: -18209.3458207 eV PBE+vdW (tier 2 basis)
C    0.086885  0.729491  -0.179844
C    -0.061278  1.083463  1.291542
O    0.859033  1.594120  1.926022
H    -0.661806  1.239628  -0.802435
H    -0.012580  -0.349502  -0.357163
H    1.083117  1.048804  -0.496261
N    -1.259931  0.806545  1.898413
C    -2.486380  0.286440  1.324822
C    -3.640584  1.221496  1.729641
O    -3.691436  1.716753  2.852810
H    -1.344469  1.156032  2.852235
H    -2.383469  0.277249  0.231333
C    -2.811061  -1.142111  1.829012
C    -1.809563  -2.209872  1.379792
C    -1.928595  -2.598324  -0.096696
C    -0.837072  -3.562958  -0.555509
N    -0.982504  -3.873205  -1.983395
H    -3.825212  -1.413177  1.491664
H    -2.851396  -1.096932  2.927280
H    -1.952547  -3.107395  2.001393
H    -0.788013  -1.858651  1.599183
H    -1.887922  -1.710583  -0.747825
H    -2.917595  -3.056583  -0.272956
H    -0.842378  -4.455619  0.102137
H    0.145996  -3.085146  -0.418621
H    -0.201010  -4.442927  -2.307389
H    -1.825952  -4.426552  -2.142385
N    -4.595840  1.407649  0.775175
C    -5.796249  2.191066  1.004133
H    -4.459355  0.974425  -0.130070
H    -6.700674  1.576300  0.895729
H    -5.855271  3.039156  0.308383
H    -5.746259  2.575064  2.028374
