33
Energy: -18209.6315869 eV PBE+vdW (tier 2 basis)
C    -2.396580  -1.994084  -0.807315
C    -2.718446  -1.434963  0.566542
O    -3.645125  -0.642820  0.747683
H    -1.556917  -2.699581  -0.809514
H    -2.166586  -1.158901  -1.480722
H    -3.287982  -2.496581  -1.202707
N    -1.923313  -1.886968  1.579614
C    -1.973754  -1.326256  2.914818
C    -0.528769  -1.223758  3.429758
O    0.394161  -1.849079  2.898880
H    -1.052486  -2.376363  1.374701
H    -2.381124  -0.308954  2.826566
C    -2.865635  -2.144217  3.884763
C    -4.346849  -1.731871  3.879094
C    -4.649085  -0.261046  4.204121
C    -4.410084  0.214789  5.639220
N    -2.982489  0.228763  6.056262
H    -2.451967  -2.071716  4.899908
H    -2.778391  -3.202987  3.600973
H    -4.890555  -2.380909  4.586452
H    -4.763571  -1.941996  2.883832
H    -5.715270  -0.087688  3.988286
H    -4.107686  0.397007  3.508397
H    -5.027254  -0.383986  6.334133
H    -4.775432  1.248696  5.714408
H    -2.743800  -0.663733  6.491264
H    -2.855616  0.926655  6.790191
N    -0.387581  -0.399088  4.496427
C    0.878233  -0.216050  5.177322
H    -1.236906  0.023068  4.895328
H    1.114788  0.851923  5.278202
H    1.659247  -0.700422  4.581716
H    0.870823  -0.669884  6.180398
