33
Energy: -18209.5390395 eV PBE+vdW (tier 2 basis)
C    0.002129  -2.119476  2.887389
C    -1.256739  -2.965769  2.851783
O    -1.203005  -4.199772  2.870625
H    -0.039181  -1.342417  3.662528
H    0.163945  -1.618239  1.922046
H    0.849252  -2.782199  3.082503
N    -2.466865  -2.320961  2.816717
C    -2.701623  -0.936204  2.423454
C    -3.770671  -0.251818  3.313477
O    -4.270908  0.823609  2.989648
H    -3.252613  -2.976739  2.640149
H    -1.782967  -0.363124  2.617335
C    -3.061549  -0.776595  0.932118
C    -4.163649  -1.734096  0.443484
C    -3.666501  -3.101549  -0.084846
C    -4.461995  -4.301162  0.438504
N    -4.223050  -4.499133  1.879710
H    -2.150649  -0.919175  0.330160
H    -3.376159  0.266714  0.801206
H    -4.735417  -1.233691  -0.349586
H    -4.885056  -1.897496  1.260560
H    -2.606209  -3.252365  0.172160
H    -3.703915  -3.110856  -1.184200
H    -4.214461  -5.196151  -0.160636
H    -5.537790  -4.115074  0.297168
H    -4.933242  -5.103188  2.290786
H    -3.315075  -4.946926  2.041062
N    -4.060969  -0.909545  4.466925
C    -4.992371  -0.398107  5.450429
H    -3.577514  -1.788328  4.623643
H    -4.492122  -0.195145  6.408166
H    -5.813711  -1.107154  5.624621
H    -5.405450  0.538593  5.060393
