33
Energy: -18209.1457973 eV PBE+vdW (tier 2 basis)
C    -0.280962  -0.413609  -0.254937
C    -0.140154  -0.089306  1.219691
O    0.961533  -0.070054  1.764750
H    -1.183602  -0.018334  -0.730374
H    -0.285758  -1.505861  -0.375733
H    0.606036  -0.027975  -0.767019
N    -1.276056  0.120689  1.977330
C    -2.667336  0.394109  1.592039
C    -3.239887  -0.649226  0.598293
O    -4.004879  -0.338383  -0.309754
H    -1.029317  0.359121  2.934880
H    -3.240804  0.194419  2.514215
C    -3.014402  1.846801  1.217677
C    -2.313367  2.542573  0.041452
C    -0.873822  3.046051  0.258491
C    -0.629655  3.850059  1.536804
N    -1.561792  4.980446  1.653959
H    -2.893638  2.462032  2.121633
H    -4.092426  1.837777  1.004452
H    -2.937808  3.413146  -0.203953
H    -2.346297  1.900072  -0.850288
H    -0.605984  3.672918  -0.609429
H    -0.146895  2.223784  0.249935
H    0.437281  4.144064  1.557913
H    -0.780810  3.203060  2.415345
H    -1.424462  5.631751  0.879163
H    -1.379490  5.507605  2.507701
N    -2.889362  -1.936190  0.882464
C    -3.305187  -3.058908  0.066539
H    -2.193597  -2.078523  1.606544
H    -3.695117  -3.871785  0.692951
H    -2.475904  -3.448990  -0.543494
H    -4.097432  -2.709292  -0.603730
