33
Energy: -18209.5114064 eV PBE+vdW (tier 2 basis)
C    0.139735  -0.290816  1.645583
C    -0.471252  -0.241438  3.037668
O    0.155731  -0.612624  4.029066
H    0.150201  0.696993  1.163737
H    -0.412976  -0.976218  0.987319
H    1.167521  -0.649239  1.745148
N    -1.745145  0.257672  3.158223
C    -2.682061  0.550691  2.085598
C    -3.350512  1.937706  2.252185
O    -4.380302  2.232858  1.647250
H    -2.171331  0.146316  4.097629
H    -2.102077  0.668460  1.158093
C    -3.714468  -0.573098  1.821696
C    -4.244543  -1.360221  3.030107
C    -5.295014  -0.705792  3.943221
C    -4.858767  0.472202  4.821394
N    -3.580467  0.207666  5.510022
H    -3.228943  -1.300528  1.154212
H    -4.542347  -0.125231  1.253454
H    -3.395990  -1.716887  3.633970
H    -4.709450  -2.272134  2.625558
H    -5.686351  -1.497612  4.604583
H    -6.152049  -0.369002  3.339608
H    -5.684536  0.696541  5.521330
H    -4.724416  1.374153  4.210703
H    -3.358114  0.970250  6.150566
H    -3.647746  -0.635487  6.083636
N    -2.675303  2.796045  3.063025
C    -3.102577  4.159165  3.296577
H    -1.850903  2.425192  3.525805
H    -2.323483  4.876284  3.002750
H    -3.352418  4.326122  4.354550
H    -3.997160  4.335463  2.689115
