33
Energy: -18209.0358835 eV PBE+vdW (tier 2 basis)
C    0.540725  -0.826736  -1.273182
C    0.600943  0.325814  -0.300049
O    1.430667  1.226659  -0.427029
H    0.058366  -1.731393  -0.893098
H    1.568904  -1.056648  -1.572623
H    -0.006988  -0.509449  -2.175224
N    -0.274170  0.382795  0.768786
C    -1.451809  -0.396602  1.152138
C    -1.275363  -1.928895  1.057043
O    -2.094671  -2.647146  0.488203
H    -0.128109  1.240295  1.295852
H    -1.544569  -0.228386  2.240672
C    -2.780948  0.118718  0.546491
C    -2.817953  0.446125  -0.952441
C    -3.025582  -0.733734  -1.906051
C    -3.039961  -0.321021  -3.379207
N    -1.740735  0.231521  -3.804089
H    -3.020530  1.042314  1.095922
H    -3.565405  -0.609560  0.798258
H    -1.899416  0.994926  -1.213846
H    -3.639840  1.164566  -1.110441
H    -3.982014  -1.224857  -1.666725
H    -2.253135  -1.497068  -1.755820
H    -3.886665  0.371552  -3.561596
H    -3.230344  -1.214129  -3.991380
H    -1.679222  0.253768  -4.821322
H    -1.638047  1.198380  -3.494695
N    -0.204052  -2.474015  1.710190
C    0.847533  -1.830710  2.481147
H    -0.165056  -3.483448  1.610649
H    1.642077  -1.408793  1.849330
H    1.291311  -2.578870  3.148231
H    0.446696  -1.025004  3.108823
