33
Energy: -18209.2356579 eV PBE+vdW (tier 2 basis)
C    -0.465681  0.048335  -0.562163
C    -0.192409  -0.272209  0.893839
O    0.947989  -0.274632  1.347989
H    0.365588  -0.347262  -1.154829
H    -0.469258  1.140073  -0.685052
H    -1.413174  -0.342728  -0.947899
N    -1.259345  -0.590933  1.715635
C    -2.702412  -0.453497  1.477642
C    -3.243440  -1.487164  0.457790
O    -4.293104  -1.305376  -0.160403
H    -0.964670  -0.682405  2.684297
H    -3.160699  -0.760359  2.430296
C    -3.134835  1.004410  1.206672
C    -4.624635  1.370680  1.316969
C    -5.339591  1.057952  2.642964
C    -5.899817  -0.364733  2.806390
N    -6.808870  -0.713805  1.711857
H    -2.785301  1.303047  0.208149
H    -2.567010  1.614971  1.926994
H    -5.180928  0.925417  0.483943
H    -4.674845  2.458855  1.157279
H    -6.193800  1.745751  2.730491
H    -4.674333  1.280533  3.495638
H    -6.472910  -0.393438  3.745416
H    -5.075376  -1.095553  2.937887
H    -6.268818  -0.961223  0.879715
H    -7.358375  -1.536082  1.957777
N    -2.505928  -2.624484  0.358049
C    -2.871126  -3.726843  -0.508559
H    -1.630762  -2.650362  0.870712
H    -2.962082  -4.661521  0.061276
H    -2.129005  -3.870189  -1.306782
H    -3.838623  -3.488364  -0.962741
