33
Energy: -18209.1124612 eV PBE+vdW (tier 2 basis)
C    -0.011067  0.421403  -0.009675
C    -0.021183  0.487352  1.508687
O    0.983621  0.750194  2.161417
H    0.450158  1.336632  -0.399044
H    -1.004625  0.299037  -0.459248
H    0.621957  -0.420325  -0.318966
N    -1.236104  0.247192  2.095089
C    -1.434705  0.134369  3.540156
C    -0.813212  1.306793  4.343702
O    -0.142971  1.101700  5.348930
H    -2.008832  -0.013150  1.494850
H    -2.524523  0.216270  3.690860
C    -0.948813  -1.209210  4.107413
C    -1.506740  -2.444143  3.391784
C    -3.030322  -2.600302  3.453429
C    -3.557521  -3.846094  2.737176
N    -3.111970  -5.080926  3.395196
H    -1.212030  -1.235179  5.173826
H    0.148243  -1.215166  4.068647
H    -1.033820  -3.324896  3.852635
H    -1.180670  -2.444561  2.337209
H    -3.521920  -1.723363  2.998240
H    -3.355815  -2.632755  4.505523
H    -3.276568  -3.786900  1.664355
H    -4.656823  -3.836724  2.772306
H    -2.117126  -5.240180  3.235547
H    -3.597000  -5.887970  3.004402
N    -1.123480  2.584355  3.958441
C    -1.911305  3.061386  2.838644
H    -0.638005  3.277256  4.519008
H    -2.250080  4.080493  3.061705
H    -2.807605  2.445876  2.690911
H    -1.346844  3.083909  1.893136
