33
Energy: -18209.4332658 eV PBE+vdW (tier 2 basis)
C    -4.161130  2.914597  0.531534
C    -3.253897  1.770408  0.944625
O    -2.826673  0.948804  0.141581
H    -4.609044  3.452786  1.376584
H    -4.957408  2.522889  -0.111492
H    -3.576380  3.625054  -0.067856
N    -2.955965  1.716595  2.290294
C    -1.925159  0.835697  2.827965
C    -2.467860  -0.249825  3.784471
O    -1.703603  -0.915553  4.479611
H    -3.228245  2.511016  2.860718
H    -1.534406  0.288372  1.953609
C    -0.787983  1.624680  3.488606
C    0.012883  2.478127  2.501158
C    1.216792  3.201925  3.116951
C    0.860743  4.290803  4.129195
N    2.068611  5.017567  4.545552
H    -0.134301  0.892839  3.982859
H    -1.210956  2.246447  4.296218
H    -0.645738  3.220785  2.019485
H    0.369137  1.827198  1.687475
H    1.811719  3.668438  2.317543
H    1.878049  2.461107  3.599630
H    0.300489  3.848694  4.976161
H    0.184881  5.018304  3.650299
H    2.709255  4.384431  5.027505
H    1.832420  5.748846  5.216595
N    -3.818083  -0.417618  3.767924
C    -4.485875  -1.461745  4.518075
H    -4.343372  0.153115  3.115146
H    -5.294055  -1.047607  5.136185
H    -3.739879  -1.930251  5.169174
H    -4.905969  -2.229929  3.852621
