33
Energy: -18209.4784911 eV PBE+vdW (tier 2 basis)
C    0.611471  1.569780  0.764971
C    0.141821  0.574372  1.804550
O    0.668708  0.504449  2.923589
H    0.476834  2.582976  1.164580
H    0.082016  1.491840  -0.192336
H    1.685308  1.425341  0.594979
N    -0.882396  -0.236294  1.429684
C    -1.571771  -1.179578  2.309163
C    -0.803192  -2.518557  2.538376
O    -1.349307  -3.620235  2.456601
H    -1.227380  -0.162452  0.479889
H    -1.599651  -0.701342  3.302991
C    -3.021504  -1.393360  1.844727
C    -3.310281  -1.635478  0.349121
C    -2.788800  -2.940961  -0.277122
C    -1.350443  -2.884087  -0.818121
N    -0.794901  -4.153293  -1.293018
H    -3.594700  -0.506814  2.154784
H    -3.411541  -2.244487  2.419043
H    -2.981455  -0.771935  -0.260748
H    -4.406322  -1.617695  0.254867
H    -3.451413  -3.221407  -1.112494
H    -2.851756  -3.746890  0.467747
H    -0.661343  -2.509396  -0.048362
H    -1.301321  -2.159424  -1.649503
H    -1.404315  -4.564706  -2.002303
H    -0.769207  -4.818698  -0.518017
N    0.493971  -2.351873  2.885152
C    1.349616  -3.483167  3.190393
H    0.816788  -1.395113  3.063590
H    2.363030  -3.115112  3.380654
H    1.377886  -4.186569  2.347626
H    0.995076  -4.034011  4.074101
