33
Energy: -18209.1353846 eV PBE+vdW (tier 2 basis)
C    -0.591345  -1.530910  -0.362958
C    -0.089364  -0.969227  0.950308
O    1.093948  -1.041793  1.278412
H    -1.611260  -1.929619  -0.325544
H    -0.577493  -0.731311  -1.117658
H    0.105662  -2.310275  -0.683868
N    -0.984114  -0.333899  1.782532
C    -2.428987  -0.117946  1.655852
C    -3.216326  -1.447226  1.530124
O    -3.957868  -1.676193  0.576490
H    -0.524406  0.059117  2.597815
H    -2.724359  0.322772  2.622965
C    -2.835435  0.872465  0.557378
C    -2.119739  2.219465  0.661155
C    -2.593550  3.220427  -0.396936
C    -1.812235  4.535213  -0.407599
N    -1.991150  5.286618  0.844215
H    -3.924167  1.013662  0.624096
H    -2.662875  0.420870  -0.429370
H    -1.031889  2.069394  0.561256
H    -2.284812  2.641328  1.667747
H    -3.660781  3.444605  -0.241980
H    -2.505751  2.758376  -1.394101
H    -2.194321  5.165190  -1.223931
H    -0.750457  4.320226  -0.646262
H    -1.460884  4.855811  1.602044
H    -1.621875  6.231794  0.744309
N    -3.057368  -2.360468  2.534241
C    -2.256865  -2.271655  3.744229
H    -3.575320  -3.217995  2.370435
H    -2.620301  -3.022384  4.454959
H    -2.365679  -1.289961  4.225065
H    -1.188226  -2.452036  3.559229
