33
Energy: -18209.2673455 eV PBE+vdW (tier 2 basis)
C    -2.057326  -0.889136  -0.193024
C    -1.830868  -1.220650  1.275504
O    -1.335815  -2.294518  1.627060
H    -1.691085  -1.726820  -0.792039
H    -3.124212  -0.735827  -0.413257
H    -1.520994  0.025091  -0.485825
N    -2.204557  -0.283522  2.190754
C    -2.826045  0.995227  1.941964
C    -1.788630  2.084769  1.583515
O    -0.701956  2.154108  2.147606
H    -1.994507  -0.504812  3.181846
H    -3.552271  0.889816  1.121414
C    -3.588143  1.451119  3.202907
C    -4.722673  0.492866  3.637789
C    -4.560799  -0.209443  4.998813
C    -3.609876  -1.410835  5.064425
N    -2.191312  -1.026680  4.975833
H    -3.995975  2.453482  3.007174
H    -2.850603  1.578117  4.008200
H    -4.869509  -0.276636  2.862984
H    -5.662107  1.063311  3.672480
H    -5.552108  -0.575521  5.308609
H    -4.269982  0.530644  5.764956
H    -3.815216  -2.082488  4.216362
H    -3.837357  -1.983903  5.982579
H    -1.595695  -1.854653  4.936876
H    -1.905089  -0.485575  5.792447
N    -2.157511  2.995087  0.627638
C    -3.387716  3.041363  -0.145672
H    -1.456214  3.709063  0.458130
H    -4.278869  3.152874  0.489759
H    -3.516360  2.149899  -0.778004
H    -3.345768  3.912703  -0.808054
