33
Energy: -18209.5163358 eV PBE+vdW (tier 2 basis)
C    -0.879090  0.729743  0.261191
C    -0.820426  0.296458  1.710818
O    0.254356  0.142830  2.303052
H    -1.899347  0.843261  -0.124927
H    -0.343662  -0.006825  -0.350752
H    -0.350202  1.685471  0.159406
N    -2.020985  0.094230  2.323487
C    -2.129440  -0.302843  3.727914
C    -1.985233  -1.844421  3.847690
O    -2.954453  -2.590924  3.975781
H    -2.872622  0.143288  1.775397
H    -1.269246  0.165032  4.227987
C    -3.440777  0.207717  4.321338
C    -3.608183  0.013585  5.836160
C    -2.550739  0.701125  6.723776
C    -1.378491  -0.202841  7.146241
N    -0.365306  0.409110  8.009878
H    -4.273120  -0.303190  3.812308
H    -3.515654  1.280953  4.082583
H    -3.641330  -1.063369  6.060266
H    -4.603905  0.400524  6.096249
H    -3.034427  1.068262  7.643356
H    -2.155139  1.599742  6.218519
H    -0.856552  -0.603160  6.264344
H    -1.782234  -1.082599  7.672120
H    -0.797792  0.788282  8.853893
H    0.078126  1.197437  7.535992
N    -0.691646  -2.258609  3.783727
C    -0.322408  -3.660331  3.768033
H    -0.003240  -1.552072  3.516218
H    -1.182264  -4.243053  4.114640
H    0.529844  -3.838402  4.436285
H    -0.054411  -4.000413  2.756030
