33
Energy: -18209.1297834 eV PBE+vdW (tier 2 basis)
C    1.708832  -1.650383  1.448321
C    1.144333  -0.249470  1.364346
O    1.708550  0.630603  0.707579
H    1.090843  -2.356212  0.878618
H    2.700444  -1.625163  0.988511
H    1.787226  -1.998871  2.484775
N    0.002038  0.073078  2.062303
C    -1.102922  -0.734410  2.585585
C    -0.599658  -2.002317  3.317210
O    0.086144  -1.901883  4.330671
H    -0.222180  1.057576  1.936506
H    -1.512843  -0.150750  3.425340
C    -2.255618  -0.911132  1.565191
C    -1.880343  -1.412894  0.155928
C    -1.601834  -0.290982  -0.855878
C    -0.902951  -0.773191  -2.128900
N    0.427102  -1.310992  -1.814739
H    -2.754919  0.066435  1.466896
H    -3.010903  -1.564614  2.029356
H    -2.699615  -2.037157  -0.234551
H    -0.992254  -2.062114  0.184342
H    -2.548097  0.202752  -1.128764
H    -0.973622  0.486457  -0.395006
H    -0.886368  0.061173  -2.856572
H    -1.492183  -1.581565  -2.592247
H    0.872850  -1.682393  -2.652582
H    1.034511  -0.569025  -1.458092
N    -1.003067  -3.199244  2.807374
C    -0.579155  -4.462505  3.380130
H    -1.478470  -3.208076  1.913551
H    -1.406807  -5.182343  3.369092
H    -0.268432  -4.278051  4.413518
H    0.274762  -4.891057  2.833083
