33
Energy: -18209.1039758 eV PBE+vdW (tier 2 basis)
C    0.237884  2.387955  1.495473
C    0.301372  0.986146  2.073075
O    1.351804  0.517872  2.504067
H    -0.346144  3.054308  2.144392
H    -0.213894  2.402920  0.495270
H    1.261441  2.766614  1.435068
N    -0.856348  0.242098  2.137599
C    -2.192887  0.484540  1.583707
C    -2.159735  0.410932  0.031398
O    -1.866578  -0.644070  -0.522441
H    -0.667539  -0.709707  2.436504
H    -2.757363  -0.420865  1.850632
C    -2.934719  1.667959  2.230141
C    -4.458602  1.585996  2.080968
C    -5.182028  2.802185  2.662028
C    -6.703393  2.704149  2.561314
N    -7.337720  3.926283  3.069839
H    -2.571374  2.635807  1.846916
H    -2.671572  1.669140  3.298566
H    -4.814014  0.668574  2.578953
H    -4.732626  1.473501  1.018883
H    -4.857940  3.721632  2.148674
H    -4.895972  2.927285  3.720924
H    -7.039414  1.777543  3.069725
H    -6.989630  2.598534  1.502931
H    -8.348154  3.887871  2.936697
H    -7.183644  4.014957  4.075466
N    -2.455890  1.556257  -0.647973
C    -2.455621  1.628510  -2.097119
H    -2.691921  2.386371  -0.118807
H    -3.443150  1.921016  -2.480062
H    -2.204483  0.632031  -2.475254
H    -1.706813  2.346728  -2.459868
