33
Energy: -18209.5762016 eV PBE+vdW (tier 2 basis)
C    0.450212  -0.599291  0.469835
C    0.127183  -0.963776  1.903465
O    0.976936  -1.462908  2.654331
H    1.255770  0.145883  0.471700
H    -0.404556  -0.196598  -0.087006
H    0.829851  -1.489329  -0.046556
N    -1.144342  -0.710711  2.311067
C    -1.618963  -0.883077  3.686932
C    -1.992613  -2.362966  4.002535
O    -3.124004  -2.704380  4.359302
H    -1.809853  -0.353448  1.635575
H    -0.761800  -0.641645  4.335715
C    -2.767316  0.080037  3.990841
C    -3.938381  0.057313  2.989242
C    -5.242284  0.643354  3.562564
C    -6.116981  -0.365624  4.316954
N    -5.459477  -0.923432  5.504761
H    -2.358848  1.100904  4.046381
H    -3.142124  -0.157693  4.993753
H    -4.131282  -0.975272  2.657520
H    -3.664241  0.632179  2.088106
H    -5.848563  1.049717  2.738094
H    -5.007489  1.489764  4.228162
H    -6.445736  -1.142107  3.594739
H    -7.027958  0.155184  4.648726
H    -6.145303  -1.400697  6.088545
H    -4.769302  -1.629341  5.230071
N    -0.946523  -3.213552  3.876215
C    -1.058228  -4.639801  4.105741
H    -0.052734  -2.806001  3.579264
H    -0.847642  -5.207978  3.188177
H    -2.081306  -4.855212  4.431105
H    -0.358105  -4.966497  4.887146
