33
Energy: -18209.5470355 eV PBE+vdW (tier 2 basis)
C    0.378880  -0.412345  0.469834
C    0.110063  -0.745935  1.921850
O    1.007290  -1.150879  2.673613
H    1.121886  0.394182  0.428341
H    -0.514526  -0.100608  -0.084677
H    0.820245  -1.288465  -0.020549
N    -1.170142  -0.573799  2.345996
C    -1.604588  -0.735776  3.735018
C    -1.863053  -2.226278  4.113118
O    -2.953883  -2.625484  4.528915
H    -1.874299  -0.301161  1.670288
H    -0.756946  -0.407328  4.357733
C    -2.820526  0.144797  4.032095
C    -3.998626  0.008671  3.050510
C    -5.329253  0.551249  3.606008
C    -6.194398  -0.497932  4.335839
N    -5.646593  -1.166043  5.513872
H    -2.493560  1.195641  4.064735
H    -3.157435  -0.111773  5.043568
H    -4.135218  -1.049471  2.777296
H    -3.762238  0.548569  2.118044
H    -5.934113  0.956103  2.778265
H    -5.131836  1.403642  4.278836
H    -6.462817  -1.285924  3.613160
H    -7.144017  -0.018844  4.624360
H    -4.809878  -1.706873  5.280606
H    -5.388267  -0.490489  6.233383
N    -0.767931  -3.010170  3.972220
C    -0.774802  -4.430784  4.259432
H    0.088624  -2.553921  3.639882
H    -1.774095  -4.703419  4.614374
H    -0.039577  -4.677021  5.038153
H    -0.541376  -5.018132  3.359883
