33
Energy: -18209.4796274 eV PBE+vdW (tier 2 basis)
C    -1.096683  0.671306  -0.477212
C    -0.942995  0.363017  1.000016
O    0.146247  0.130471  1.512026
H    -2.139217  0.699259  -0.818499
H    -0.546672  -0.079594  -1.055921
H    -0.632270  1.645122  -0.681198
N    -2.118674  0.349664  1.723210
C    -2.124068  0.306622  3.179526
C    -2.714810  -0.979759  3.785215
O    -2.868165  -1.074404  5.003610
H    -2.948555  0.716997  1.267846
H    -1.060475  0.279643  3.465266
C    -2.789269  1.551618  3.783337
C    -1.955373  2.832183  3.664566
C    -0.576866  2.815498  4.345545
C    -0.561846  2.504821  5.860687
N    -0.541708  1.107650  6.297009
H    -3.016299  1.328379  4.833336
H    -3.769021  1.701241  3.296560
H    -2.549296  3.657701  4.089274
H    -1.817326  3.084989  2.599661
H    -0.130021  3.812021  4.194522
H    0.099207  2.113316  3.829965
H    -1.425506  2.992908  6.342321
H    0.327324  2.987595  6.295318
H    0.251371  0.610555  5.892071
H    -1.382035  0.588205  6.040238
N    -3.007708  -1.970465  2.903974
C    -3.462532  -3.282074  3.320584
H    -2.774093  -1.798831  1.932115
H    -4.380346  -3.566373  2.788650
H    -3.669466  -3.235614  4.395150
H    -2.695369  -4.049272  3.141632
