33
Energy: -18209.5615741 eV PBE+vdW (tier 2 basis)
C    0.776746  0.453438  -0.053916
C    0.283682  0.393721  1.376510
O    0.566984  1.272941  2.200727
H    1.872236  0.508905  -0.050783
H    0.403217  1.377237  -0.513320
H    0.460679  -0.400056  -0.665894
N    -0.489114  -0.678940  1.696958
C    -1.120573  -0.853510  3.006692
C    -0.125571  -1.503005  4.009118
O    -0.240798  -2.663710  4.398782
H    -0.647042  -1.397031  0.999062
H    -1.345395  0.162128  3.369472
C    -2.409047  -1.661827  2.884849
C    -3.490797  -0.980293  2.044773
C    -4.787120  -1.790728  1.971261
C    -5.823986  -1.208477  1.007259
N    -5.348651  -1.274176  -0.383758
H    -2.776733  -1.851977  3.903646
H    -2.170918  -2.659018  2.479392
H    -3.133745  -0.800508  1.019959
H    -3.710343  0.014980  2.467808
H    -5.239019  -1.869865  2.973132
H    -4.558375  -2.826624  1.663866
H    -5.989241  -0.146808  1.249476
H    -6.791828  -1.721447  1.167715
H    -5.363680  -2.240097  -0.714696
H    -5.968584  -0.749648  -1.000247
N    0.862128  -0.651271  4.393921
C    1.958605  -1.063496  5.246763
H    0.900758  0.251172  3.912086
H    2.897681  -1.164539  4.681483
H    1.705155  -2.036640  5.680583
H    2.113688  -0.336831  6.055323
