33
Energy: -18209.4230255 eV PBE+vdW (tier 2 basis)
C    -0.614234  1.457222  1.062399
C    -0.199125  1.046160  2.460411
O    0.432274  1.788727  3.209117
H    -1.708727  1.477239  0.974544
H    -0.229251  0.760330  0.304038
H    -0.207102  2.453372  0.871256
N    -0.533115  -0.225422  2.874008
C    -1.429721  -1.184496  2.236068
C    -2.885919  -0.900985  2.691934
O    -3.540614  -0.011356  2.144447
H    -0.305467  -0.390830  3.852131
H    -1.430195  -0.976594  1.158148
C    -0.921939  -2.608839  2.478331
C    -1.728765  -3.694340  1.745029
C    -1.647971  -5.088019  2.388784
C    -2.658557  -5.345564  3.510440
N    -2.496074  -4.429336  4.660400
H    -0.915343  -2.805149  3.560852
H    0.131219  -2.649093  2.162824
H    -1.374986  -3.751178  0.705085
H    -2.788577  -3.399842  1.680661
H    -0.624470  -5.272942  2.758969
H    -1.826067  -5.856901  1.621935
H    -2.595930  -6.408724  3.806636
H    -3.673922  -5.186712  3.115150
H    -3.200626  -4.641801  5.368684
H    -1.593241  -4.595559  5.110421
N    -3.346723  -1.611813  3.753976
C    -4.681132  -1.373039  4.273373
H    -2.871867  -2.467029  4.068923
H    -4.800056  -1.933362  5.207708
H    -5.463618  -1.686124  3.564533
H    -4.825676  -0.304334  4.473262
