33
Energy: -18209.1601829 eV PBE+vdW (tier 2 basis)
C    0.568099  -0.066943  1.422392
C    0.100808  0.750416  2.607800
O    0.877314  1.223294  3.439436
H    1.655927  0.015473  1.357418
H    0.305541  -1.126475  1.560803
H    0.111169  0.259055  0.478812
N    -1.250306  0.948536  2.736425
C    -2.329459  0.285739  2.014577
C    -2.725767  0.944992  0.673584
O    -2.954444  0.226929  -0.299653
H    -1.495498  1.454862  3.582962
H    -1.990093  -0.711069  1.698465
C    -3.559705  0.100088  2.927191
C    -3.478071  -1.099753  3.891950
C    -2.245046  -1.196996  4.801937
C    -2.100126  -0.077520  5.837791
N    -0.754667  -0.091167  6.413793
H    -4.439512  -0.039533  2.283288
H    -3.738513  1.036182  3.481024
H    -3.534727  -2.019732  3.289554
H    -4.390657  -1.092762  4.510392
H    -1.329860  -1.230734  4.191295
H    -2.268832  -2.158477  5.335269
H    -2.825877  -0.238768  6.650061
H    -2.379522  0.899578  5.386028
H    -0.068176  0.210043  5.717331
H    -0.686371  0.566406  7.190020
N    -2.834719  2.303631  0.585651
C    -2.668937  3.332657  1.601519
H    -3.091358  2.606447  -0.348720
H    -3.220752  3.093703  2.520119
H    -3.087257  4.266306  1.209236
H    -1.614989  3.505866  1.858654
