33
Energy: -18209.0474859 eV PBE+vdW (tier 2 basis)
C    1.576726  0.100883  1.214364
C    0.745792  0.651230  2.361424
O    1.119262  1.605260  3.037687
H    1.932285  0.937157  0.602037
H    1.041534  -0.614104  0.576866
H    2.459420  -0.398672  1.635310
N    -0.444191  0.005212  2.569108
C    -1.367197  0.223125  3.687633
C    -1.444212  1.691144  4.178818
O    -1.299885  1.967433  5.364742
H    -0.634178  -0.804955  1.990822
H    -2.372368  0.004798  3.283555
C    -1.119283  -0.754961  4.846459
C    0.257251  -0.657884  5.542688
C    0.998311  -1.997353  5.638483
C    1.596475  -2.466339  4.312915
N    2.210829  -3.792863  4.453788
H    -1.260539  -1.769521  4.437903
H    -1.924082  -0.608537  5.579202
H    0.111656  -0.245687  6.548031
H    0.893681  0.074295  5.026751
H    0.330850  -2.784823  6.024976
H    1.815502  -1.901854  6.373122
H    2.292784  -1.683824  3.948195
H    0.802096  -2.552890  3.553593
H    2.632555  -4.091244  3.574096
H    2.968412  -3.757160  5.137951
N    -1.838508  2.643701  3.277361
C    -1.983598  2.543890  1.838056
H    -1.812573  3.576020  3.678774
H    -2.625607  3.363527  1.493537
H    -2.473405  1.603738  1.557069
H    -1.021297  2.608004  1.305500
