33
Energy: -18209.1290729 eV PBE+vdW (tier 2 basis)
C    -0.284452  -0.247628  -0.438900
C    -0.492925  -0.440952  1.052819
O    -0.210459  0.425422  1.874628
H    -0.953870  0.549967  -0.786468
H    -0.471436  -1.149566  -1.035785
H    0.743931  0.091128  -0.610946
N    -1.026574  -1.650404  1.416661
C    -1.386565  -1.965430  2.788600
C    -0.250165  -2.449126  3.717833
O    -0.323219  -2.187425  4.915982
H    -1.290328  -2.298490  0.684394
H    -1.687546  -1.023333  3.266304
C    -2.549325  -2.970933  2.835527
C    -3.876399  -2.489548  2.227813
C    -4.514097  -1.264786  2.910374
C    -4.179577  0.079354  2.259203
N    -4.888374  1.166856  2.947385
H    -2.706875  -3.227307  3.892963
H    -2.237813  -3.906669  2.338616
H    -3.752860  -2.284693  1.150836
H    -4.575759  -3.336480  2.283413
H    -5.609116  -1.364540  2.909755
H    -4.215619  -1.240089  3.972780
H    -4.531902  0.062121  1.215088
H    -3.084923  0.228025  2.218999
H    -4.527370  1.267973  3.897895
H    -4.704114  2.056240  2.482520
N    0.792147  -3.187328  3.227608
C    1.040868  -3.722157  1.899532
H    1.459291  -3.422564  3.955701
H    1.824897  -4.483664  1.982827
H    1.382128  -2.955977  1.189094
H    0.153812  -4.218713  1.483119
