33
Energy: -18209.0949271 eV PBE+vdW (tier 2 basis)
C    0.113276  0.627386  1.279663
C    -0.239418  0.367288  2.728657
O    0.542326  0.632674  3.640051
H    1.179825  0.864887  1.239416
H    -0.449608  1.491042  0.897809
H    -0.098417  -0.243731  0.649848
N    -1.486913  -0.133289  3.047787
C    -2.582415  -0.671983  2.251795
C    -2.259947  -2.060892  1.653804
O    -1.137990  -2.365301  1.259620
H    -1.561278  -0.280628  4.049638
H    -3.404094  -0.791951  2.973732
C    -3.120042  0.252333  1.139045
C    -3.613444  1.599169  1.664343
C    -4.164726  2.525786  0.572561
C    -5.303874  1.943311  -0.271450
N    -6.385640  1.410848  0.571543
H    -3.952070  -0.277673  0.653148
H    -2.355051  0.387577  0.362033
H    -2.795796  2.114456  2.189202
H    -4.397021  1.416470  2.415814
H    -3.354130  2.822980  -0.112397
H    -4.510792  3.459267  1.047137
H    -4.925543  1.109885  -0.883238
H    -5.637476  2.721139  -0.984960
H    -6.799522  2.160511  1.128865
H    -7.137434  1.040324  -0.009706
N    -3.312836  -2.929356  1.541787
C    -4.670807  -2.777521  2.042740
H    -3.052430  -3.820218  1.130550
H    -5.155076  -1.866493  1.663780
H    -4.714878  -2.766585  3.143102
H    -5.262326  -3.631406  1.695485
