33
Energy: -18209.0864571 eV PBE+vdW (tier 2 basis)
C    0.218485  0.198229  0.743935
C    -0.281049  -0.018195  2.157924
O    0.493466  -0.040452  3.113051
H    1.135915  0.790963  0.806240
H    0.477179  -0.776250  0.305235
H    -0.495160  0.686065  0.073903
N    -1.621579  -0.258327  2.372088
C    -2.793527  -0.164991  1.497973
C    -2.577637  -0.771373  0.092879
O    -2.808147  -0.136355  -0.934163
H    -1.815684  -0.378015  3.363093
H    -3.541668  -0.830182  1.965338
C    -3.437860  1.234131  1.452328
C    -2.542287  2.400490  1.032959
C    -3.284072  3.740191  1.081054
C    -2.440477  4.930730  0.622633
N    -1.323238  5.189940  1.542310
H    -3.836485  1.437096  2.460069
H    -4.304669  1.174447  0.777429
H    -2.171073  2.229133  0.011635
H    -1.668744  2.443452  1.702380
H    -3.636323  3.934473  2.107111
H    -4.177808  3.680421  0.438644
H    -3.073091  5.830476  0.617091
H    -2.123500  4.761590  -0.426961
H    -0.612706  4.461753  1.464336
H    -0.859768  6.065133  1.299602
N    -2.168168  -2.074583  0.035742
C    -1.902040  -3.011069  1.115255
H    -2.047248  -2.402805  -0.917273
H    -1.977180  -4.029221  0.716546
H    -2.644332  -2.915628  1.917858
H    -0.903297  -2.880354  1.556691
