33
Energy: -18209.3329043 eV PBE+vdW (tier 2 basis)
C    -0.740281  1.728995  1.079883
C    0.022579  0.650035  1.821716
O    1.088457  0.867566  2.393371
H    -1.720422  1.900748  1.544776
H    -0.910488  1.455757  0.028600
H    -0.146083  2.645521  1.118607
N    -0.508912  -0.621906  1.817186
C    -1.839937  -1.048181  1.384704
C    -2.805883  -0.888957  2.585826
O    -3.359108  0.195276  2.782107
H    0.002079  -1.259948  2.423726
H    -2.197807  -0.317381  0.648603
C    -1.730492  -2.417517  0.694239
C    -2.975947  -2.899137  -0.073818
C    -4.210622  -3.351931  0.723365
C    -4.110562  -4.719664  1.408777
N    -3.049189  -4.802796  2.442557
H    -1.388266  -3.171043  1.419056
H    -0.908140  -2.315826  -0.029754
H    -2.665849  -3.727119  -0.733492
H    -3.284251  -2.087733  -0.752621
H    -5.056156  -3.418614  0.020552
H    -4.498692  -2.590506  1.461524
H    -3.989601  -5.502622  0.637937
H    -5.068753  -4.921198  1.907735
H    -3.295648  -5.509683  3.135121
H    -2.174093  -5.121477  2.026052
N    -2.903800  -1.939193  3.444072
C    -3.760827  -1.840907  4.612903
H    -2.708647  -2.893206  3.113332
H    -3.593281  -2.719159  5.246277
H    -4.828459  -1.789743  4.344100
H    -3.519337  -0.934488  5.179728
