33
Energy: -18209.2373616 eV PBE+vdW (tier 2 basis)
C    -0.167921  0.257790  0.287446
C    -0.254337  0.321662  1.803941
O    0.720933  0.594033  2.499282
H    -0.868922  0.948461  -0.201182
H    -0.386871  -0.752952  -0.084652
H    0.852376  0.526178  0.002001
N    -1.475687  0.064451  2.376764
C    -2.706295  -0.369639  1.722231
C    -3.860681  0.378318  2.417723
O    -4.318098  -0.015529  3.489455
H    -1.466558  0.055221  3.394722
H    -2.642022  -0.055235  0.675034
C    -2.909676  -1.890778  1.782802
C    -4.185592  -2.390399  1.086146
C    -4.389152  -1.917808  -0.360736
C    -3.285774  -2.326132  -1.335334
N    -3.522444  -1.729464  -2.656349
H    -2.938652  -2.191695  2.839372
H    -2.014323  -2.357978  1.345216
H    -5.057347  -2.081690  1.681400
H    -4.179675  -3.491490  1.113485
H    -4.500617  -0.822579  -0.402922
H    -5.349121  -2.320117  -0.724864
H    -3.205800  -3.432131  -1.345143
H    -2.312181  -1.951633  -0.982973
H    -4.391749  -2.087397  -3.055706
H    -2.780291  -1.988858  -3.306342
N    -4.328968  1.504374  1.805037
C    -3.781632  2.175634  0.635462
H    -5.033747  1.993769  2.348265
H    -4.395684  3.058109  0.427745
H    -3.814339  1.536849  -0.258762
H    -2.746798  2.513745  0.795593
