33
Energy: -18209.1569395 eV PBE+vdW (tier 2 basis)
C    0.075937  0.700027  1.338003
C    -1.262598  1.272711  0.907000
O    -1.375034  2.417084  0.473977
H    0.369975  -0.156178  0.714028
H    0.060156  0.361000  2.382551
H    0.825887  1.487340  1.228077
N    -2.359475  0.451548  1.000871
C    -2.445923  -0.896142  1.555679
C    -3.432884  -1.732594  0.705213
O    -4.453456  -2.225961  1.179886
H    -3.228794  0.914680  0.748414
H    -1.456143  -1.361937  1.429369
C    -2.796135  -0.935291  3.054018
C    -3.984663  -0.069458  3.479809
C    -4.297938  -0.214716  4.972049
C    -5.495052  0.613865  5.440500
N    -5.226376  2.056848  5.349512
H    -1.902419  -0.618471  3.615373
H    -2.986503  -1.984188  3.325028
H    -4.871145  -0.351637  2.891478
H    -3.756992  0.984322  3.252978
H    -3.417183  0.075664  5.567715
H    -4.502181  -1.274963  5.193491
H    -5.689521  0.385270  6.498648
H    -6.395341  0.292505  4.877848
H    -5.215166  2.362216  4.376006
H    -5.971803  2.584822  5.802638
N    -3.114709  -1.903361  -0.614192
C    -1.936679  -1.460174  -1.342163
H    -3.814131  -2.436351  -1.121132
H    -1.866998  -2.037437  -2.270723
H    -1.017924  -1.649479  -0.770635
H    -1.971719  -0.391223  -1.595064
