33
Energy: -18209.4295337 eV PBE+vdW (tier 2 basis)
C    -0.122515  -0.253118  -0.097999
C    -0.583488  -0.441568  1.332753
O    0.117481  -1.000564  2.175922
H    -0.698332  -0.898439  -0.777955
H    0.931658  -0.535079  -0.157356
H    -0.253315  0.778907  -0.448001
N    -1.832211  0.048704  1.666373
C    -2.887700  0.340241  0.693753
C    -2.782323  1.733399  0.042100
O    -3.349950  1.970732  -1.022033
H    -2.128883  -0.284003  2.588046
H    -2.826049  -0.368724  -0.145798
C    -4.299274  0.224193  1.320138
C    -4.506773  -0.951148  2.286107
C    -4.010252  -2.332828  1.825272
C    -3.462380  -3.160733  2.997805
N    -2.359372  -2.454915  3.662292
H    -5.001779  0.178882  0.477209
H    -4.527403  1.157579  1.858268
H    -5.579221  -1.003442  2.526429
H    -4.005321  -0.722563  3.239008
H    -3.210048  -2.232233  1.075089
H    -4.812959  -2.894769  1.325879
H    -3.190507  -4.168994  2.633613
H    -4.261699  -3.301640  3.742431
H    -2.167824  -2.847825  4.581579
H    -1.486648  -2.499680  3.131542
N    -2.071042  2.646089  0.756684
C    -1.900209  4.020090  0.332385
H    -1.618778  2.308344  1.600760
H    -0.838723  4.262248  0.181119
H    -2.320349  4.720113  1.068282
H    -2.432418  4.141745  -0.617483
