33
Energy: -18209.2654605 eV PBE+vdW (tier 2 basis)
C    -0.740144  -0.038310  -1.466828
C    -0.094692  0.043435  -0.098450
O    1.092014  0.324457  0.045650
H    -1.525904  -0.798702  -1.544275
H    0.046530  -0.241032  -2.199257
H    -1.191670  0.933397  -1.710845
N    -0.880382  -0.216557  1.009080
C    -2.335084  -0.385133  1.094193
C    -2.824041  -1.713562  0.453701
O    -3.944856  -1.818997  -0.036889
H    -0.387748  -0.016407  1.875016
H    -2.530591  -0.515585  2.171577
C    -3.168766  0.823175  0.620539
C    -4.444717  1.035271  1.439999
C    -5.295530  2.191062  0.909943
C    -6.551471  2.480649  1.734976
N    -7.445191  1.315983  1.777745
H    -3.437148  0.690492  -0.437050
H    -2.531172  1.718018  0.688331
H    -4.173319  1.236956  2.491519
H    -5.043308  0.115192  1.441101
H    -5.591424  1.974916  -0.131829
H    -4.693143  3.113687  0.865214
H    -7.029779  3.396895  1.335233
H    -6.258599  2.708783  2.772601
H    -7.794795  1.102217  0.842239
H    -8.261997  1.510004  2.356237
N    -1.932617  -2.739432  0.536413
C    -2.208847  -4.062975  0.015250
H    -1.003836  -2.515485  0.877261
H    -1.576007  -4.294582  -0.853986
H    -3.258503  -4.085576  -0.296611
H    -2.045729  -4.829417  0.784929
