33
Energy: -18209.4817931 eV PBE+vdW (tier 2 basis)
C    -1.412899  -1.230732  -0.921493
C    -1.974552  -0.914641  0.451861
O    -2.866539  -0.081159  0.621357
H    -1.026753  -0.304759  -1.365183
H    -2.229049  -1.585432  -1.563240
H    -0.614962  -1.983201  -0.908583
N    -1.427790  -1.617153  1.485065
C    -1.834578  -1.402098  2.860891
C    -0.605339  -1.682161  3.734935
O    0.186707  -2.581189  3.445627
H    -0.664286  -2.273840  1.347493
H    -2.146770  -0.351592  2.936265
C    -3.018557  -2.329799  3.234092
C    -3.687393  -2.131347  4.602283
C    -4.567269  -0.876711  4.760483
C    -3.836632  0.426910  5.126119
N    -4.680220  1.589160  5.408208
H    -2.651350  -3.364509  3.155473
H    -3.772766  -2.199649  2.443743
H    -2.936590  -2.166283  5.409649
H    -4.325153  -3.012334  4.767933
H    -5.305689  -1.068152  5.556671
H    -5.148287  -0.715732  3.837303
H    -3.155398  0.726340  4.314548
H    -3.211208  0.245885  6.018264
H    -5.366227  1.365344  6.130926
H    -5.211097  1.850605  4.576368
N    -0.483860  -0.895368  4.836568
C    0.576188  -1.060485  5.813283
H    -1.168006  -0.160657  4.974981
H    1.189092  -1.910531  5.496510
H    0.165395  -1.265218  6.811711
H    1.209840  -0.164511  5.866889
