33
Energy: -18209.0851162 eV PBE+vdW (tier 2 basis)
C    -0.235617  0.371910  0.129414
C    -0.100252  0.071820  1.607282
O    0.984044  0.121754  2.185977
H    -0.329438  -0.565514  -0.437245
H    0.676203  0.882203  -0.191812
H    -1.111924  0.982820  -0.115017
N    -1.223526  -0.310283  2.307236
C    -2.632191  -0.361697  1.909764
C    -2.857029  -1.178719  0.613798
O    -3.408316  -0.698796  -0.373348
H    -1.015744  -0.472271  3.288304
H    -3.125755  -0.941101  2.706755
C    -3.320620  1.009045  1.821663
C    -3.148390  1.923898  3.041365
C    -3.826608  1.473719  4.347845
C    -3.011047  0.530000  5.235788
N    -3.726741  0.264378  6.489015
H    -4.390016  0.832326  1.633451
H    -2.953494  1.528245  0.925788
H    -3.565706  2.901465  2.759591
H    -2.076660  2.106231  3.223628
H    -4.803751  1.011165  4.136238
H    -4.046626  2.371711  4.949078
H    -1.999171  0.962005  5.376521
H    -2.871722  -0.444721  4.741068
H    -3.189618  -0.365107  7.085450
H    -3.844778  1.131201  7.016240
N    -2.426427  -2.476714  0.622590
C    -1.801754  -3.231353  1.696701
H    -2.591634  -2.952004  -0.258924
H    -1.907784  -4.299486  1.476088
H    -2.299339  -3.045470  2.658210
H    -0.733131  -3.000218  1.811136
