33
Energy: -18209.5160103 eV PBE+vdW (tier 2 basis)
C    -2.438649  2.715981  -0.169699
C    -1.952428  1.530762  0.643969
O    -1.232331  0.652995  0.164877
H    -1.583765  3.378256  -0.366289
H    -3.226109  3.295792  0.327941
H    -2.805630  2.357824  -1.137950
N    -2.333145  1.530915  1.952155
C    -1.934267  0.499518  2.887021
C    -2.906495  0.584882  4.075289
O    -3.626898  1.569012  4.252656
H    -2.999894  2.205183  2.322002
H    -2.049196  -0.476661  2.386470
C    -0.453284  0.606442  3.339119
C    -0.095333  1.748540  4.303320
C    -0.303686  3.186747  3.800554
C    0.482161  3.555075  2.533893
N    0.246217  4.903393  2.004264
H    0.148848  0.651339  2.421669
H    -0.180972  -0.347220  3.819448
H    0.964768  1.620183  4.578004
H    -0.659882  1.622605  5.241447
H    -0.009110  3.877086  4.608802
H    -1.373982  3.373573  3.627298
H    0.258562  2.845325  1.725188
H    1.562528  3.454756  2.727388
H    0.459622  5.606325  2.714172
H    -0.743833  5.021004  1.781212
N    -2.880110  -0.483528  4.915354
C    -3.670524  -0.555437  6.130128
H    -2.269269  -1.257881  4.683984
H    -3.028300  -0.634104  7.018432
H    -4.354470  -1.414830  6.107595
H    -4.259145  0.365149  6.196289
