33
Energy: -18209.2812752 eV PBE+vdW (tier 2 basis)
C    0.592066  0.264892  0.279743
C    0.041449  -0.807399  1.202235
O    0.735422  -1.723896  1.633887
H    -0.128295  1.056355  0.037659
H    0.920170  -0.212532  -0.652350
H    1.476015  0.714236  0.747633
N    -1.286175  -0.681983  1.521087
C    -1.985815  -1.686164  2.322235
C    -3.440548  -1.772550  1.820818
O    -3.807008  -2.642859  1.038757
H    -1.824766  0.067832  1.104329
H    -1.531506  -2.655857  2.077796
C    -1.824210  -1.441651  3.832423
C    -2.457682  -2.542419  4.688589
C    -2.390007  -2.283505  6.198309
C    -0.974120  -2.255620  6.775432
N    -1.018323  -2.050321  8.228807
H    -2.235067  -0.454064  4.111406
H    -0.744178  -1.376729  4.023980
H    -1.966646  -3.501182  4.453905
H    -3.513626  -2.670771  4.401703
H    -2.962997  -3.071489  6.715125
H    -2.889836  -1.333320  6.447175
H    -0.409153  -1.415100  6.345475
H    -0.443717  -3.179238  6.465932
H    -1.443631  -2.857532  8.687680
H    -0.074861  -1.968414  8.607504
N    -4.263512  -0.772155  2.266988
C    -5.670416  -0.709317  1.915609
H    -3.925776  -0.179906  3.017137
H    -5.962622  0.322020  1.680579
H    -6.312357  -1.085450  2.726463
H    -5.822162  -1.340668  1.034012
