33
Energy: -18209.3404092 eV PBE+vdW (tier 2 basis)
C    -1.127282  -0.862577  0.932523
C    -0.073910  -0.046973  1.659168
O    1.001939  -0.525218  2.004008
H    -2.028911  -0.983627  1.549840
H    -0.703304  -1.849027  0.728602
H    -1.433296  -0.398048  -0.014995
N    -0.356791  1.283673  1.901262
C    -1.657287  1.942955  1.813177
C    -1.533395  3.331132  1.133406
O    -2.336820  4.238426  1.355229
H    0.331377  1.713597  2.518015
H    -2.270782  1.340777  1.124869
C    -2.388572  2.037492  3.165326
C    -3.922208  2.062913  3.037099
C    -4.636018  2.587081  4.295762
C    -4.839762  4.106644  4.319265
N    -3.576434  4.855474  4.266481
H    -2.041590  2.925996  3.710537
H    -2.093939  1.164265  3.766456
H    -4.268423  1.041693  2.809004
H    -4.212510  2.684945  2.176836
H    -4.078955  2.279733  5.195730
H    -5.631264  2.121906  4.369530
H    -5.349312  4.372616  5.257625
H    -5.536571  4.372704  3.497368
H    -3.196242  4.839915  3.315687
H    -3.746343  5.835319  4.491044
N    -0.501009  3.441596  0.257642
C    -0.238550  4.644032  -0.507682
H    0.127978  2.647707  0.190621
H    -0.291392  4.445501  -1.587169
H    0.752359  5.055998  -0.271771
H    -1.003748  5.381449  -0.243103
