33
Energy: -18209.4746942 eV PBE+vdW (tier 2 basis)
C    0.293941  -0.950289  0.359293
C    -0.464519  -0.536449  1.602450
O    -0.566462  -1.287572  2.582726
H    1.338449  -1.144302  0.634377
H    0.269763  -0.201840  -0.442009
H    -0.125904  -1.891747  -0.015293
N    -1.028284  0.699088  1.570008
C    -1.684712  1.343917  2.713768
C    -3.143528  0.855662  2.952068
O    -4.095458  1.631835  3.075583
H    -0.928087  1.249105  0.725575
H    -1.119342  1.008971  3.599974
C    -1.545817  2.871812  2.624985
C    -2.402922  3.694659  1.640703
C    -2.433552  3.304257  0.153301
C    -3.419077  2.181212  -0.253523
N    -4.824506  2.374354  0.089642
H    -0.477754  3.071267  2.437329
H    -1.750479  3.265349  3.630612
H    -2.024767  4.725850  1.713060
H    -3.433964  3.726569  2.014429
H    -1.417787  3.054721  -0.212269
H    -2.716936  4.201884  -0.421002
H    -3.119270  1.215850  0.179513
H    -3.343761  2.049530  -1.345449
H    -5.158920  3.286610  -0.222662
H    -4.949858  2.327204  1.103061
N    -3.262326  -0.487033  3.048165
C    -4.546100  -1.123639  3.276518
H    -2.399432  -1.041541  3.028073
H    -5.289078  -0.757323  2.556306
H    -4.928531  -0.917669  4.287262
H    -4.428979  -2.205288  3.153639
