33
Energy: -18209.0433691 eV PBE+vdW (tier 2 basis)
C    0.475509  -0.575655  0.291787
C    0.172586  -0.488659  1.779569
O    0.913181  -0.988663  2.617770
H    1.160529  0.243831  0.032689
H    -0.415495  -0.496449  -0.344928
H    0.986438  -1.522055  0.088822
N    -1.005437  0.169588  2.067634
C    -1.393816  0.732129  3.355840
C    -0.648876  2.072853  3.587499
O    0.394088  2.352304  3.007747
H    -1.426790  0.633284  1.270803
H    -2.469672  0.960804  3.263045
C    -1.228876  -0.218530  4.564723
C    -2.277463  -1.331509  4.673102
C    -2.190641  -2.440887  3.618581
C    -3.071234  -3.651183  3.939108
N    -2.630155  -4.317671  5.173318
H    -1.279774  0.397748  5.473974
H    -0.216976  -0.638478  4.532810
H    -3.290284  -0.888622  4.653098
H    -2.173220  -1.800576  5.662638
H    -1.142614  -2.770810  3.523690
H    -2.471827  -2.056705  2.627249
H    -3.088067  -4.320063  3.056412
H    -4.110029  -3.318417  4.098380
H    -3.265788  -5.075201  5.421535
H    -1.712014  -4.742423  5.033316
N    -1.215965  2.938103  4.489493
C    -2.550537  2.889794  5.065655
H    -0.697319  3.806535  4.575931
H    -2.734233  1.947791  5.598424
H    -3.344348  3.024761  4.312877
H    -2.640832  3.700352  5.796824
