33
Energy: -18209.3195216 eV PBE+vdW (tier 2 basis)
C    0.016113  -0.693950  0.159018
C    -0.098184  -0.709632  1.675295
O    0.861604  -0.982532  2.392028
H    -0.133991  0.319927  -0.239901
H    -0.714350  -1.356287  -0.323361
H    1.025336  -1.024214  -0.099822
N    -1.319324  -0.409441  2.224850
C    -2.537271  0.034314  1.571591
C    -3.031856  1.296175  2.302959
O    -2.934512  1.398828  3.523634
H    -1.318100  -0.305590  3.239285
H    -2.308072  0.274209  0.523312
C    -3.653044  -1.035628  1.621603
C    -3.328631  -2.300739  0.825719
C    -4.332575  -3.445540  1.025891
C    -4.383307  -4.013464  2.448520
N    -3.080830  -4.556433  2.854122
H    -4.591024  -0.590006  1.251596
H    -3.824938  -1.273622  2.682469
H    -2.322138  -2.657471  1.093464
H    -3.283331  -2.052703  -0.247375
H    -4.068916  -4.264226  0.339703
H    -5.343981  -3.105724  0.747837
H    -5.105709  -4.842469  2.461886
H    -4.782954  -3.248015  3.143663
H    -2.411850  -3.807373  3.037318
H    -3.168238  -5.077264  3.726065
N    -3.611716  2.238511  1.507687
C    -4.210694  3.452460  2.032478
H    -3.631238  2.075985  0.508266
H    -3.727304  4.345399  1.613605
H    -4.066382  3.446268  3.117820
H    -5.287100  3.493021  1.814859
