33
Energy: -18209.1285715 eV PBE+vdW (tier 2 basis)
C    0.057696  0.743892  0.387368
C    -0.083574  0.246449  1.813293
O    0.896238  0.045507  2.526325
H    -0.658907  1.532190  0.125906
H    -0.091959  -0.092640  -0.309608
H    1.075360  1.124227  0.265653
N    -1.347353  -0.001633  2.296943
C    -2.650145  0.142429  1.655971
C    -2.699877  -0.639528  0.313539
O    -2.319555  -1.804057  0.258845
H    -1.326931  -0.425551  3.218261
H    -3.340039  -0.433742  2.293235
C    -3.168531  1.595405  1.639724
C    -3.215046  2.231108  3.033896
C    -3.693265  3.687716  3.043937
C    -5.158940  3.882552  2.652912
N    -5.522828  5.302214  2.719760
H    -4.181797  1.593650  1.207512
H    -2.538548  2.223515  0.987666
H    -2.209306  2.183431  3.474758
H    -3.865547  1.623910  3.687246
H    -3.064870  4.300158  2.377912
H    -3.546209  4.096029  4.057593
H    -5.787665  3.224129  3.287972
H    -5.319386  3.556659  1.613468
H    -6.489574  5.441800  2.426585
H    -5.459956  5.640179  3.681347
N    -3.214044  0.030542  -0.757103
C    -3.328426  -0.575140  -2.070449
H    -3.448247  1.009158  -0.650165
H    -4.342493  -0.448542  -2.472036
H    -3.112314  -1.643049  -1.962333
H    -2.608325  -0.140203  -2.779001
