33
Energy: -18209.014991 eV PBE+vdW (tier 2 basis)
C    -0.303999  0.932922  0.185307
C    -0.209085  0.264919  1.546699
O    0.852109  0.176734  2.156939
H    -0.047908  1.994328  0.299579
H    -1.294329  0.859384  -0.281658
H    0.443601  0.485848  -0.480269
N    -1.402911  -0.186113  2.053871
C    -1.493541  -0.995831  3.274358
C    -2.881496  -1.635696  3.450390
O    -2.953789  -2.765614  3.927301
H    -2.167948  -0.273723  1.395070
H    -0.835984  -1.870757  3.153916
C    -1.013417  -0.315345  4.581427
C    -1.723567  0.948619  5.082080
C    -1.396256  2.241911  4.328140
C    -2.032501  3.500303  4.943511
N    -1.600734  3.891470  6.288512
H    0.057710  -0.109422  4.457971
H    -1.096750  -1.100963  5.346996
H    -1.420708  1.078379  6.134131
H    -2.815342  0.797229  5.117463
H    -1.723908  2.171643  3.279086
H    -0.301270  2.367404  4.284715
H    -3.128278  3.378137  4.973408
H    -1.843670  4.355345  4.276420
H    -0.587751  4.017422  6.316251
H    -1.822166  3.166704  6.971233
N    -4.027125  -0.991491  3.038528
C    -4.315435  0.421905  2.830856
H    -4.837050  -1.584293  3.207552
H    -3.391913  0.995088  2.728714
H    -4.879867  0.843419  3.676361
H    -4.910863  0.558695  1.916846
