33
Energy: -18209.5052312 eV PBE+vdW (tier 2 basis)
C    -0.489663  -3.550615  0.216555
C    -0.455625  -2.513607  1.319233
O    0.276863  -1.517326  1.256590
H    -1.171595  -4.385726  0.418303
H    0.523357  -3.941659  0.062010
H    -0.795970  -3.058682  -0.715463
N    -1.283805  -2.740493  2.373416
C    -1.469308  -1.797285  3.478553
C    -0.359733  -1.999420  4.552501
O    -0.594659  -2.458427  5.668893
H    -1.837153  -3.589925  2.389180
H    -1.330839  -0.792262  3.047415
C    -2.867353  -1.915443  4.085532
C    -3.992590  -1.225787  3.298607
C    -4.373567  -1.809751  1.927418
C    -4.836749  -3.269249  1.939721
N    -6.030209  -3.453136  2.771635
H    -2.814704  -1.476306  5.090314
H    -3.093957  -2.979573  4.265889
H    -3.722778  -0.166880  3.158076
H    -4.891042  -1.207910  3.935920
H    -3.529515  -1.716488  1.227622
H    -5.191949  -1.201040  1.514165
H    -3.993439  -3.932434  2.232304
H    -5.102036  -3.558191  0.912195
H    -6.398836  -4.397927  2.667931
H    -5.808070  -3.337661  3.760741
N    0.867804  -1.613056  4.116701
C    2.068489  -1.788717  4.908753
H    0.938278  -1.323565  3.136934
H    2.651330  -0.858487  4.939166
H    2.706953  -2.589271  4.505305
H    1.768594  -2.059057  5.926754
