33
Energy: -18209.4756166 eV PBE+vdW (tier 2 basis)
C    -2.947977  -1.824180  -0.547262
C    -2.185578  -0.707935  0.141370
O    -1.073342  -0.343585  -0.242329
H    -3.076279  -1.563671  -1.605112
H    -3.931694  -2.024236  -0.105544
H    -2.343032  -2.738647  -0.507129
N    -2.831086  -0.128977  1.197922
C    -2.195519  0.840391  2.070068
C    -2.482283  0.414171  3.517363
O    -3.524276  -0.169682  3.818626
H    -3.669438  -0.558355  1.583058
H    -1.118435  0.795926  1.856938
C    -2.731165  2.275598  1.838635
C    -2.401580  2.871059  0.459161
C    -1.085971  3.661992  0.370215
C    0.202883  2.895542  0.711174
N    1.455996  3.621663  0.475199
H    -2.345878  2.933271  2.635202
H    -3.821464  2.233468  1.979989
H    -3.219016  3.549684  0.173017
H    -2.401323  2.069071  -0.293870
H    -1.152088  4.551120  1.022867
H    -0.988360  4.049917  -0.657389
H    0.239476  1.954127  0.143715
H    0.197439  2.609096  1.776313
H    1.569916  3.809174  -0.522024
H    1.432473  4.533737  0.935151
N    -1.527342  0.770156  4.418534
C    -1.651372  0.524777  5.843348
H    -0.681505  1.203602  4.066965
H    -2.620349  0.043650  6.011636
H    -1.613097  1.463644  6.412968
H    -0.855737  -0.142568  6.202225
