33
Energy: -18209.2356216 eV PBE+vdW (tier 2 basis)
C    -0.007731  0.967329  0.099055
C    -0.004082  0.685858  1.588961
O    0.744764  1.273954  2.367880
H    -0.437094  1.964762  -0.065642
H    -0.583229  0.238557  -0.485386
H    1.026145  0.989834  -0.263408
N    -0.897118  -0.265598  2.003811
C    -1.140445  -0.549629  3.413539
C    -1.107881  -2.071803  3.660178
O    -2.088473  -2.698706  4.060404
H    -1.524155  -0.670297  1.319359
H    -0.274957  -0.103009  3.928667
C    -2.395270  0.134837  3.985032
C    -3.767321  -0.146558  3.344685
C    -4.055075  0.441455  1.949875
C    -3.760884  1.933542  1.777207
N    -4.587161  2.749433  2.678017
H    -2.185152  1.216111  3.981205
H    -2.453234  -0.159335  5.042983
H    -4.527607  0.246189  4.038302
H    -3.932635  -1.231465  3.321148
H    -5.121287  0.276015  1.731576
H    -3.504463  -0.108962  1.169893
H    -4.018024  2.222080  0.747040
H    -2.673282  2.115176  1.888381
H    -4.454332  3.740809  2.479123
H    -4.303171  2.615069  3.649175
N    0.080829  -2.705079  3.422173
C    1.346228  -2.153434  2.967335
H    0.024552  -3.708855  3.565911
H    2.164756  -2.759092  3.374492
H    1.482933  -1.125246  3.321038
H    1.429729  -2.145951  1.869307
