33
Energy: -18209.4693998 eV PBE+vdW (tier 2 basis)
C    -1.398439  -0.707347  -0.300284
C    -0.810546  -0.580781  1.091392
O    0.031739  -1.369831  1.520753
H    -0.611645  -0.484171  -1.033445
H    -2.246955  -0.036654  -0.482330
H    -1.711404  -1.745417  -0.459616
N    -1.239710  0.504676  1.804503
C    -0.893659  0.713689  3.198340
C    -2.212990  0.855233  3.976041
O    -3.197288  1.393395  3.468159
H    -2.070010  1.007212  1.498969
H    -0.341088  -0.183320  3.518902
C    -0.028618  1.975431  3.439379
C    1.472217  1.835594  3.140564
C    1.892997  1.572873  1.686871
C    1.405306  2.602739  0.654602
N    1.823118  3.997722  0.841152
H    -0.133097  2.255537  4.499479
H    -0.476039  2.804367  2.869122
H    1.882604  1.029699  3.769978
H    1.960223  2.759034  3.494682
H    1.565449  0.569684  1.377110
H    2.995653  1.545770  1.658311
H    0.306207  2.592189  0.603984
H    1.749651  2.284999  -0.341641
H    2.840060  4.058603  0.915589
H    1.448962  4.377052  1.711398
N    -2.182536  0.386733  5.253158
C    -3.304916  0.501621  6.165943
H    -1.342726  -0.086211  5.565027
H    -4.111375  1.015487  5.632737
H    -3.035228  1.085582  7.056939
H    -3.661643  -0.488049  6.482660
