33
Energy: -18209.261636 eV PBE+vdW (tier 2 basis)
C    -0.269445  -0.828402  0.074766
C    -0.361082  -0.202108  1.452309
O    0.100326  0.910178  1.702881
H    -0.953804  -0.294070  -0.597905
H    -0.528791  -1.894305  0.057260
H    0.746661  -0.693203  -0.312140
N    -0.998898  -0.963098  2.396527
C    -1.311076  -0.463690  3.730890
C    -0.844842  -1.486208  4.789849
O    -1.635941  -2.084217  5.519060
H    -1.389646  -1.854784  2.115704
H    -0.700823  0.447033  3.831009
C    -2.784381  -0.062200  3.918493
C    -3.848013  -1.080150  3.464707
C    -4.300504  -0.921489  2.008359
C    -5.352725  -1.946664  1.593305
N    -5.694832  -1.797540  0.171635
H    -2.936041  0.887743  3.383179
H    -2.915402  0.152534  4.987346
H    -4.727624  -0.972739  4.117589
H    -3.487022  -2.104163  3.648197
H    -3.451893  -0.997119  1.312176
H    -4.709053  0.094846  1.867847
H    -6.223504  -1.867236  2.275199
H    -4.944872  -2.960926  1.730597
H    -6.375797  -2.503845  -0.108021
H    -6.139696  -0.892369  0.010074
N    0.501997  -1.698786  4.888464
C    1.586703  -1.114237  4.117808
H    0.736206  -2.415276  5.569160
H    1.827151  -1.704755  3.219741
H    2.482490  -1.058232  4.748088
H    1.340847  -0.097299  3.792468
