33
Energy: -18209.4559645 eV PBE+vdW (tier 2 basis)
C    -0.772676  -2.027751  0.240735
C    -0.603306  -0.893694  1.234901
O    0.498353  -0.523782  1.625449
H    -0.158888  -2.876844  0.562401
H    -0.389367  -1.698308  -0.734124
H    -1.811848  -2.358034  0.117045
N    -1.778203  -0.321152  1.674730
C    -1.802779  0.914480  2.449819
C    -2.441451  0.755618  3.847708
O    -2.764825  1.738610  4.509999
H    -2.632492  -0.580613  1.191312
H    -0.741451  1.151681  2.634657
C    -2.451731  2.067924  1.674636
C    -1.662458  2.489007  0.434670
C    -2.314712  3.648911  -0.323106
C    -1.596702  4.025097  -1.620323
N    -0.251256  4.555523  -1.361956
H    -2.553828  2.909110  2.373422
H    -3.481101  1.781930  1.392893
H    -1.546823  1.630865  -0.250319
H    -0.644315  2.769207  0.749236
H    -2.358260  4.536792  0.327020
H    -3.355939  3.381347  -0.569234
H    -2.169077  4.817674  -2.124239
H    -1.606365  3.148417  -2.301727
H    0.378335  3.814891  -1.051942
H    0.152904  4.933437  -2.218281
N    -2.579063  -0.527896  4.280620
C    -3.052346  -0.858174  5.609537
H    -2.228713  -1.258492  3.671358
H    -3.879702  -1.579379  5.564976
H    -3.407709  0.068037  6.074021
H    -2.248207  -1.278440  6.231101
