33
Energy: -18209.1003846 eV PBE+vdW (tier 2 basis)
C    -0.164023  -0.242773  -0.093214
C    -0.269390  0.332717  1.308553
O    0.470042  1.242664  1.687643
H    -1.052944  -0.801941  -0.410862
H    0.700358  -0.920754  -0.127007
H    0.023426  0.574720  -0.797012
N    -1.197397  -0.279961  2.101046
C    -1.517544  -0.009443  3.510464
C    -2.644482  1.059678  3.598774
O    -3.812530  0.661913  3.564386
H    -1.801671  -0.955053  1.649025
H    -2.065558  -0.904639  3.836475
C    -0.313995  0.135930  4.458180
C    0.394666  -1.184913  4.795430
C    1.204239  -1.815944  3.657106
C    2.071077  -2.983573  4.123370
N    2.776417  -3.591877  2.987149
H    -0.706437  0.564203  5.393643
H    0.414836  0.849864  4.060499
H    -0.343954  -1.913549  5.172032
H    1.074652  -0.986281  5.640411
H    1.847159  -1.044650  3.199567
H    0.543629  -2.178894  2.857309
H    1.428632  -3.760220  4.568324
H    2.744130  -2.632938  4.932406
H    3.315333  -4.402460  3.292131
H    3.449599  -2.930344  2.596690
N    -2.370600  2.390175  3.691754
C    -1.109021  3.117348  3.736328
H    -3.224341  2.937350  3.756730
H    -0.717581  3.207352  4.761771
H    -1.283220  4.127884  3.348280
H    -0.360283  2.637488  3.096492
