33
Energy: -18209.4877271 eV PBE+vdW (tier 2 basis)
C    0.317980  -0.991978  0.803406
C    -0.323601  -0.581152  2.111616
O    -0.565435  -1.404747  3.004767
H    -0.294049  -1.773436  0.336772
H    1.300221  -1.431320  1.018829
H    0.446444  -0.164322  0.095345
N    -0.618206  0.739748  2.240636
C    -1.129065  1.354473  3.465116
C    -2.673165  1.188566  3.623029
O    -3.438269  2.142366  3.771492
H    -0.445046  1.352223  1.452477
H    -0.695612  0.769490  4.292464
C    -0.650061  2.811730  3.604277
C    -0.600165  3.679830  2.332325
C    -1.931837  3.948047  1.617875
C    -2.836178  4.938330  2.357538
N    -4.203290  4.868275  1.824530
H    0.362641  2.786983  4.032529
H    -1.299730  3.285553  4.351681
H    0.122981  3.249221  1.617334
H    -0.144790  4.642385  2.617637
H    -2.490981  3.009538  1.484853
H    -1.738743  4.331210  0.604519
H    -2.457935  5.960896  2.200363
H    -2.787247  4.735034  3.442301
H    -4.626183  3.993953  2.144496
H    -4.772456  5.617287  2.219878
N    -3.062207  -0.110410  3.626458
C    -4.445603  -0.516056  3.770393
H    -2.324423  -0.818119  3.542479
H    -4.576917  -1.158379  4.652449
H    -4.793466  -1.065176  2.883576
H    -5.055319  0.385126  3.893523
