33
Energy: -18209.2182664 eV PBE+vdW (tier 2 basis)
C    0.487332  -0.085401  1.207166
C    -0.286155  -0.791414  2.306548
O    0.224881  -1.713857  2.940314
H    -0.022220  0.763849  0.742849
H    0.718799  -0.827333  0.432044
H    1.443836  0.246905  1.628222
N    -1.571134  -0.393234  2.577027
C    -2.396549  0.658763  1.986834
C    -2.884372  1.552122  3.144713
O    -3.931827  1.320920  3.747660
H    -2.004276  -0.944237  3.316861
H    -1.781723  1.246355  1.296708
C    -3.588775  0.096454  1.202417
C    -3.219656  -0.697458  -0.061578
C    -3.124987  0.085376  -1.384927
C    -1.859293  0.894926  -1.677854
N    -1.725474  2.097493  -0.833430
H    -4.252764  0.934622  0.939032
H    -4.174751  -0.532838  1.886731
H    -3.992342  -1.466854  -0.205898
H    -2.286207  -1.259636  0.106351
H    -4.004431  0.747538  -1.479532
H    -3.220235  -0.639304  -2.208566
H    -0.974473  0.262847  -1.501824
H    -1.858480  1.139092  -2.756806
H    -2.556774  2.683148  -0.935927
H    -0.941092  2.663889  -1.159068
N    -2.079477  2.601330  3.492543
C    -0.754618  2.915444  2.982457
H    -2.395738  3.087867  4.326055
H    -0.463659  3.902637  3.357954
H    -0.752510  2.963029  1.885702
H    0.005933  2.187131  3.304194
