33
Energy: -18209.5157709 eV PBE+vdW (tier 2 basis)
C    -1.616234  0.087966  -0.379426
C    -1.092982  -0.198039  1.016675
O    -0.196037  0.478911  1.527184
H    -2.010796  1.111514  -0.405374
H    -2.401487  -0.608417  -0.698701
H    -0.780927  0.043339  -1.089529
N    -1.678990  -1.257089  1.640408
C    -1.356246  -1.636654  3.006127
C    -0.997825  -3.134484  3.038052
O    -1.716951  -3.989396  3.566481
H    -2.437962  -1.804870  1.200816
H    -0.449790  -1.065169  3.257375
C    -2.447125  -1.233045  4.027337
C    -3.917297  -1.227240  3.575282
C    -4.633066  -2.588113  3.409285
C    -4.961890  -2.998542  1.973224
N    -3.746980  -3.263109  1.174685
H    -2.203457  -0.206614  4.338858
H    -2.333553  -1.868953  4.916977
H    -4.005617  -0.642786  2.645379
H    -4.461984  -0.642698  4.330810
H    -5.589180  -2.558040  3.952421
H    -4.035200  -3.381960  3.879920
H    -5.518794  -2.188967  1.474438
H    -5.635527  -3.874733  2.005378
H    -3.201690  -3.995038  1.638853
H    -4.003303  -3.623009  0.254645
N    0.175940  -3.494814  2.441920
C    1.119148  -2.679599  1.694039
H    0.328676  -4.499070  2.455862
H    1.124952  -1.645275  2.054583
H    0.882194  -2.654945  0.618831
H    2.127890  -3.090958  1.821717
