33
Energy: -18209.4201433 eV PBE+vdW (tier 2 basis)
C    0.642201  0.383431  0.237588
C    0.457830  0.547307  1.734287
O    1.401962  0.915681  2.446346
H    1.039921  1.319366  -0.172646
H    -0.273459  0.113828  -0.302298
H    1.396026  -0.395490  0.065599
N    -0.792784  0.272441  2.196280
C    -1.333936  0.200320  3.571514
C    -1.216885  1.452181  4.476389
O    -2.123033  1.665102  5.285515
H    -1.460497  0.006127  1.483158
H    -2.418554  0.130483  3.419558
C    -0.922672  -1.079983  4.334594
C    0.530930  -1.173114  4.801614
C    0.823452  -2.485669  5.534072
C    2.258195  -2.587775  6.054282
N    3.231363  -2.610363  4.952344
H    -1.159972  -1.941001  3.688658
H    -1.594942  -1.147556  5.204066
H    0.758699  -0.325724  5.469028
H    1.200785  -1.071573  3.937243
H    0.634033  -3.336633  4.859759
H    0.133467  -2.591660  6.387485
H    2.368930  -3.531235  6.608784
H    2.432782  -1.770396  6.784091
H    3.288596  -1.695205  4.503959
H    4.165223  -2.810542  5.309493
N    -0.114783  2.221885  4.350568
C    0.100316  3.373681  5.205034
H    0.636747  1.878483  3.736821
H    0.829699  4.039988  4.731138
H    0.476018  3.085434  6.199597
H    -0.844967  3.909855  5.349188
