33
Energy: -18209.0836851 eV PBE+vdW (tier 2 basis)
C    -1.407550  2.338259  0.708195
C    -0.442490  1.174317  0.812822
O    0.776222  1.312070  0.715926
H    -0.831892  3.237693  0.476552
H    -1.951775  2.490869  1.651285
H    -2.159361  2.175313  -0.076354
N    -0.987998  -0.067222  1.031786
C    -2.378417  -0.400402  1.292090
C    -2.967826  0.010252  2.664984
O    -4.186085  0.170548  2.741514
H    -0.289505  -0.799042  1.124355
H    -3.008352  0.163114  0.589437
C    -2.647541  -1.891892  1.015479
C    -1.942883  -2.883153  1.952388
C    -2.165791  -4.358779  1.569836
C    -1.140301  -4.947531  0.595901
N    -1.154001  -4.300175  -0.725834
H    -2.387011  -2.095389  -0.032598
H    -3.732995  -2.042204  1.096474
H    -2.308552  -2.714754  2.976897
H    -0.854142  -2.695075  1.989876
H    -3.175477  -4.480008  1.147180
H    -2.132541  -4.972354  2.483123
H    -1.386873  -6.007813  0.440441
H    -0.142576  -4.928559  1.080306
H    -0.645937  -3.415294  -0.704512
H    -0.665180  -4.882665  -1.405198
N    -2.174153  0.201155  3.762069
C    -0.750777  -0.019722  3.991752
H    -2.728833  0.477846  4.566582
H    -0.577846  0.038787  5.072199
H    -0.117161  0.733068  3.505006
H    -0.427640  -1.015503  3.664564
