33
Energy: -18209.243427 eV PBE+vdW (tier 2 basis)
C    -1.266221  2.095357  -0.976946
C    -0.400670  1.169205  -0.136326
O    0.635286  0.678552  -0.579021
H    -1.348730  3.094429  -0.524610
H    -2.281934  1.701156  -1.110789
H    -0.789584  2.192809  -1.955714
N    -0.818715  0.889889  1.139957
C    -1.932576  1.449417  1.879122
C    -1.410063  1.885179  3.260179
O    -0.498592  1.271549  3.811682
H    -0.152066  0.364447  1.704928
H    -2.320064  2.315905  1.327536
C    -3.081565  0.432377  2.093700
C    -3.795864  0.025477  0.806771
C    -4.858819  -1.052865  1.031050
C    -5.595231  -1.473413  -0.243562
N    -4.667032  -2.028755  -1.236635
H    -3.806315  0.856621  2.808831
H    -2.649354  -0.452676  2.587197
H    -3.066825  -0.344391  0.072852
H    -4.272373  0.912323  0.353139
H    -5.604775  -0.704431  1.764245
H    -4.385825  -1.941975  1.483880
H    -6.069297  -0.587678  -0.696091
H    -6.417704  -2.161350  0.035055
H    -4.286192  -2.918491  -0.910938
H    -5.149138  -2.222928  -2.113538
N    -2.036068  2.937645  3.863087
C    -3.073586  3.794460  3.312663
H    -1.671402  3.153520  4.785447
H    -3.349818  4.532362  4.072947
H    -3.982003  3.232536  3.051491
H    -2.732627  4.344554  2.422740
