33
Energy: -18208.9507727 eV PBE+vdW (tier 2 basis)
C    0.466410  1.499602  0.492264
C    0.690999  0.580820  1.671769
O    1.790485  0.079966  1.901081
H    -0.356064  1.134594  -0.133703
H    0.233485  2.519976  0.825862
H    1.391776  1.522968  -0.089205
N    -0.348768  0.331534  2.547037
C    -1.783894  0.587585  2.502311
C    -2.502532  -0.269833  1.432489
O    -1.942242  -0.663889  0.413741
H    -0.056940  -0.347639  3.243596
H    -2.133048  0.223489  3.478676
C    -2.204748  2.092133  2.439398
C    -2.790125  2.619558  1.122106
C    -3.326240  4.058974  1.227973
C    -4.803896  4.178376  1.611231
N    -5.098205  3.592939  2.931513
H    -1.321655  2.684277  2.719983
H    -2.950133  2.261030  3.226910
H    -3.610400  1.965626  0.787381
H    -2.032612  2.571268  0.330327
H    -3.205892  4.565281  0.258398
H    -2.712698  4.639579  1.939148
H    -5.405047  3.626644  0.871286
H    -5.103708  5.241026  1.530033
H    -4.644094  4.141673  3.664386
H    -6.099556  3.645800  3.121332
N    -3.813549  -0.570829  1.683895
C    -4.649102  -0.147366  2.799444
H    -4.249887  -1.095755  0.932478
H    -4.853960  0.935098  2.797493
H    -4.198366  -0.416672  3.765906
H    -5.604722  -0.678151  2.730032
