33
Energy: -18209.5121813 eV PBE+vdW (tier 2 basis)
C    -0.184009  0.082757  0.002651
C    -0.226913  -0.532719  1.388636
O    0.737882  -1.124442  1.872088
H    0.638789  0.807349  -0.036113
H    -1.115916  0.583711  -0.286214
H    0.041430  -0.706468  -0.725314
N    -1.404162  -0.361852  2.064841
C    -1.671978  -1.018627  3.329125
C    -3.082382  -1.622492  3.238988
O    -3.949201  -1.117454  2.524186
H    -2.234491  -0.032529  1.576919
H    -0.910182  -1.806352  3.443724
C    -1.591152  -0.057480  4.537698
C    -0.217494  0.596053  4.706666
C    -0.125141  1.541985  5.911157
C    -0.246463  0.870512  7.291981
N    0.766067  -0.132709  7.638292
H    -1.860156  -0.627236  5.441396
H    -2.366020  0.717630  4.419657
H    0.025283  1.157809  3.793527
H    0.556670  -0.185323  4.775442
H    -0.906429  2.317621  5.830089
H    0.838455  2.076096  5.866711
H    -1.233051  0.391905  7.395108
H    -0.216710  1.651098  8.067087
H    1.700774  0.276679  7.591276
H    0.760487  -0.899526  6.964632
N    -3.296530  -2.708557  4.029611
C    -4.585632  -3.365779  4.140968
H    -2.511011  -3.080588  4.549989
H    -4.957468  -3.339249  5.174650
H    -4.527635  -4.411575  3.809412
H    -5.286709  -2.827250  3.495134
