33
Energy: -18209.5310115 eV PBE+vdW (tier 2 basis)
C    -1.133574  3.425080  4.443922
C    -0.703534  2.004491  4.761022
O    -0.404908  1.647711  5.901499
H    -2.020921  3.667187  5.042040
H    -1.361034  3.589808  3.383680
H    -0.334931  4.111247  4.751946
N    -0.684017  1.149734  3.697733
C    -0.196666  -0.208735  3.808762
C    0.304897  -0.612838  2.410905
O    0.043431  0.057313  1.410385
H    -0.794510  1.481690  2.741174
H    0.645617  -0.211198  4.520560
C    -1.270039  -1.186032  4.347218
C    -2.484571  -1.357152  3.435386
C    -3.552873  -2.271059  4.038534
C    -4.782033  -2.429950  3.146105
N    -5.747526  -3.359078  3.748198
H    -1.578584  -0.804518  5.331461
H    -0.799179  -2.165462  4.533840
H    -2.166519  -1.760638  2.459403
H    -2.919378  -0.366722  3.226364
H    -3.866182  -1.868183  5.017561
H    -3.135134  -3.270522  4.239228
H    -4.474129  -2.854243  2.177357
H    -5.200888  -1.426313  2.928837
H    -6.545422  -3.497459  3.127945
H    -6.121938  -2.966915  4.613758
N    1.024095  -1.765968  2.371275
C    1.534085  -2.339511  1.139878
H    1.209617  -2.243726  3.245094
H    2.631265  -2.397213  1.152873
H    1.223217  -1.686832  0.317859
H    1.126265  -3.345996  0.972195
