33
Energy: -18209.4610598 eV PBE+vdW (tier 2 basis)
C    -2.869544  -0.425101  -0.626385
C    -1.740259  -0.605778  0.371737
O    -0.560428  -0.556962  0.040919
H    -2.699200  -1.091963  -1.479703
H    -2.839333  0.604432  -1.006170
H    -3.866095  -0.619107  -0.209817
N    -2.138764  -0.844098  1.668916
C    -1.200867  -0.850576  2.784984
C    -1.008493  -2.238217  3.439765
O    -0.389536  -2.350760  4.495972
H    -3.124129  -0.741072  1.886273
H    -0.224514  -0.605791  2.337383
C    -1.548015  0.203423  3.846919
C    -2.935242  0.043091  4.475264
C    -3.159884  1.000360  5.648650
C    -4.547710  0.903349  6.284746
N    -4.802853  -0.445842  6.808238
H    -1.444111  1.201278  3.393382
H    -0.782697  0.120436  4.630822
H    -3.074905  -0.989812  4.825935
H    -3.727246  0.226812  3.726303
H    -3.000697  2.040521  5.320342
H    -2.393596  0.808309  6.419649
H    -5.313644  1.109620  5.519525
H    -4.641856  1.702686  7.046014
H    -5.741861  -0.506816  7.200932
H    -4.156063  -0.656878  7.570155
N    -1.539436  -3.287350  2.756694
C    -1.366500  -4.662868  3.176092
H    -1.988109  -3.079261  1.871945
H    -2.335002  -5.175020  3.256755
H    -0.884485  -4.650088  4.159698
H    -0.726925  -5.219955  2.476066
