33
Energy: -18209.0874372 eV PBE+vdW (tier 2 basis)
C    0.157581  -0.122661  -0.128913
C    0.094076  -0.141395  1.390319
O    1.115576  -0.245886  2.069437
H    0.801069  0.709136  -0.441008
H    -0.817747  -0.024347  -0.621137
H    0.634976  -1.050251  -0.468205
N    -1.168219  -0.048025  1.907206
C    -1.601169  -0.039308  3.314221
C    -1.841668  1.419073  3.796469
O    -3.005060  1.832976  3.828895
H    -1.913702  0.112516  1.240140
H    -2.633932  -0.413818  3.279649
C    -0.829677  -1.005445  4.231132
C    -1.561428  -1.331972  5.540553
C    -1.613866  -0.208191  6.582260
C    -2.104772  -0.681253  7.953827
N    -1.171442  -1.647071  8.552216
H    0.185290  -0.652603  4.441638
H    -0.702841  -1.936466  3.658682
H    -1.058619  -2.193664  6.002469
H    -2.590555  -1.661823  5.315936
H    -2.270149  0.608557  6.249095
H    -0.607676  0.232613  6.699080
H    -3.074412  -1.189986  7.834012
H    -2.293338  0.205432  8.589472
H    -0.311705  -1.177008  8.839418
H    -1.570605  -2.060116  9.394387
N    -0.810052  2.240616  4.135209
C    0.618037  1.995086  4.262504
H    -1.150136  3.150761  4.433846
H    0.899685  1.749401  5.299195
H    1.160548  2.901745  3.965800
H    0.940346  1.183635  3.601471
