33
Energy: -18209.551475 eV PBE+vdW (tier 2 basis)
C    -1.049140  -1.549449  0.030032
C    -0.561011  -0.915923  1.315831
O    0.528370  -0.334081  1.383510
H    -1.102774  -0.773968  -0.744261
H    -2.030053  -2.031844  0.119641
H    -0.312582  -2.291775  -0.301297
N    -1.397329  -1.017143  2.386879
C    -1.086647  -0.429694  3.691497
C    -0.174943  -1.398991  4.495796
O    -0.610043  -2.127838  5.386059
H    -2.236483  -1.580538  2.307883
H    -0.514823  0.486802  3.480246
C    -2.366552  -0.087791  4.448183
C    -2.111787  0.781591  5.685042
C    -3.388751  1.235900  6.405077
C    -4.192731  0.103991  7.065285
N    -5.371009  0.514076  7.836530
H    -2.858102  -1.027224  4.742964
H    -3.041582  0.443797  3.757973
H    -1.538987  1.672696  5.380712
H    -1.474123  0.226514  6.390058
H    -4.041987  1.779230  5.699496
H    -3.113254  1.964223  7.185696
H    -3.531314  -0.466049  7.736764
H    -4.534996  -0.613660  6.304679
H    -6.028986  1.017461  7.239300
H    -5.101577  1.165861  8.575345
N    1.123348  -1.356006  4.095185
C    2.127009  -2.264167  4.614777
H    1.314165  -0.828909  3.239906
H    3.061887  -1.725469  4.815620
H    2.337927  -3.085345  3.912498
H    1.748861  -2.694276  5.548095
