33
Energy: -18209.4132411 eV PBE+vdW (tier 2 basis)
C    0.985002  -1.639962  2.544842
C    0.239857  -0.476073  3.172141
O    0.386859  -0.161227  4.347875
H    0.859501  -2.525536  3.178801
H    2.056232  -1.400768  2.527342
H    0.659104  -1.877536  1.524210
N    -0.625515  0.187377  2.328596
C    -1.267536  1.441040  2.700707
C    -2.800538  1.339826  2.875016
O    -3.485796  2.351993  2.998934
H    -0.587329  -0.045781  1.342265
H    -0.893299  1.656651  3.714659
C    -0.865145  2.610211  1.781579
C    -0.965083  2.364658  0.268764
C    -2.366078  2.048880  -0.267307
C    -2.403810  1.810406  -1.778383
N    -2.039110  3.015870  -2.534445
H    0.170754  2.886277  2.026482
H    -1.502014  3.460150  2.062445
H    -0.264753  1.563630  -0.035806
H    -0.587091  3.273968  -0.224021
H    -3.050078  2.871739  -0.012775
H    -2.769581  1.148244  0.223276
H    -3.431484  1.544253  -2.065019
H    -1.773099  0.928118  -2.019936
H    -1.036165  3.193241  -2.479906
H    -2.254039  2.895083  -3.523553
N    -3.301243  0.075050  2.921838
C    -4.696626  -0.203401  3.192701
H    -2.634185  -0.685788  2.862109
H    -5.128333  -0.849482  2.415897
H    -5.229005  0.753955  3.199681
H    -4.828374  -0.688069  4.170989
