33
Energy: -18209.0847724 eV PBE+vdW (tier 2 basis)
C    0.346411  0.529067  0.855234
C    -0.227650  -0.549929  1.756769
O    0.443113  -1.507766  2.135438
H    0.362898  1.508824  1.354111
H    -0.229843  0.638729  -0.073465
H    1.372585  0.245212  0.608593
N    -1.532489  -0.410445  2.158966
C    -2.503738  0.598595  1.761018
C    -3.354259  1.078154  2.965329
O    -4.574917  1.208113  2.889528
H    -1.871443  -1.199417  2.704607
H    -1.930098  1.489461  1.456631
C    -3.366865  0.183831  0.549132
C    -3.918310  -1.252225  0.501847
C    -5.049588  -1.613369  1.479670
C    -4.597188  -2.127959  2.846621
N    -5.756898  -2.319569  3.720875
H    -2.737139  0.322696  -0.343273
H    -4.194461  0.902308  0.468804
H    -3.087799  -1.971719  0.599114
H    -4.296441  -1.393785  -0.521348
H    -5.684671  -2.392645  1.033395
H    -5.691648  -0.732757  1.629996
H    -3.846250  -1.439690  3.285186
H    -4.096545  -3.101782  2.724224
H    -6.185417  -1.413888  3.920738
H    -5.474953  -2.715782  4.617398
N    -2.693614  1.390671  4.122604
C    -1.266335  1.533282  4.377410
H    -3.329214  1.719547  4.842503
H    -1.141809  2.158083  5.269039
H    -0.754531  2.040556  3.548663
H    -0.768216  0.571045  4.553714
