33
Energy: -18209.481026 eV PBE+vdW (tier 2 basis)
C    -0.748993  -0.728301  -0.616632
C    -0.667088  -0.192061  0.795959
O    0.394891  -0.042924  1.389789
H    -0.578804  0.121387  -1.296350
H    -1.720891  -1.179576  -0.856287
H    0.047542  -1.461735  -0.775629
N    -1.880993  0.154354  1.362911
C    -1.954343  1.069381  2.497768
C    -2.508202  0.437046  3.789617
O    -2.789012  1.135001  4.762257
H    -2.690885  0.120387  0.751559
H    -0.906330  1.318443  2.729144
C    -2.735751  2.351668  2.152550
C    -2.289571  3.040721  0.856895
C    -0.809510  3.429010  0.797100
C    -0.392831  4.026562  -0.549187
N    -0.577441  3.064160  -1.653160
H    -2.638208  3.026852  3.012819
H    -3.809465  2.109116  2.084381
H    -2.911178  3.940495  0.716365
H    -2.517980  2.382643  0.002236
H    -0.173920  2.551931  0.985246
H    -0.587302  4.157940  1.593566
H    0.676900  4.274408  -0.505563
H    -0.931453  4.980525  -0.714744
H    -1.545312  3.070142  -1.975359
H    -0.014623  3.341862  -2.456524
N    -2.632130  -0.917606  3.763942
C    -3.034623  -1.688246  4.922127
H    -2.315944  -1.387548  2.922659
H    -3.873753  -2.354908  4.680468
H    -3.349878  -0.980705  5.696897
H    -2.202916  -2.292426  5.313181
