33
Energy: -18209.3196316 eV PBE+vdW (tier 2 basis)
C    -1.883409  -0.826624  1.891385
C    -3.333760  -0.961572  2.306307
O    -3.710468  -1.829682  3.088178
H    -1.400142  -1.797372  2.034344
H    -1.385439  -0.096666  2.544467
H    -1.744794  -0.490764  0.857116
N    -4.252901  -0.076818  1.768462
C    -4.014603  1.145242  0.992839
C    -3.503185  0.846083  -0.443194
O    -2.786907  1.637587  -1.057988
H    -5.164399  -0.171716  2.207651
H    -5.021083  1.570953  0.840350
C    -3.158161  2.216802  1.692232
C    -3.551667  3.653618  1.307151
C    -2.470641  4.695967  1.642853
C    -1.424074  4.902138  0.541056
N    -0.664755  3.682227  0.232176
H    -2.096785  2.055796  1.468608
H    -3.278238  2.089104  2.778207
H    -4.491445  3.910013  1.822458
H    -3.769684  3.702430  0.228788
H    -1.962520  4.417080  2.580333
H    -2.950353  5.670271  1.824668
H    -0.708809  5.664972  0.883617
H    -1.937731  5.329337  -0.345214
H    0.146573  3.916213  -0.339156
H    -1.235835  3.041671  -0.326641
N    -3.953424  -0.321779  -0.970150
C    -3.600553  -0.776227  -2.300368
H    -4.461007  -0.938305  -0.343913
H    -2.954382  -1.665128  -2.262643
H    -3.057809  0.034179  -2.798063
H    -4.500027  -1.017652  -2.882307
