33
Energy: -18209.158663 eV PBE+vdW (tier 2 basis)
C    -0.188089  -0.057541  0.427712
C    -0.222772  -0.266951  1.929490
O    0.664155  -0.883259  2.515619
H    -0.486970  0.951112  0.117407
H    0.830897  -0.256237  0.084963
H    -0.868834  -0.773340  -0.054189
N    -1.295767  0.228261  2.631977
C    -2.451998  0.991456  2.176131
C    -3.199917  0.246466  1.035577
O    -3.437920  -0.953558  1.123532
H    -1.275052  -0.049260  3.607465
H    -3.172161  0.927217  3.006724
C    -2.143751  2.486542  1.947878
C    -1.462305  3.180971  3.134848
C    -2.250300  3.168864  4.453467
C    -3.667799  3.746086  4.383091
N    -3.666074  5.105564  3.826399
H    -3.082972  3.017823  1.724790
H    -1.492906  2.607480  1.067483
H    -1.273321  4.223042  2.842771
H    -0.479655  2.718721  3.307897
H    -2.318776  2.146183  4.858479
H    -1.672134  3.734436  5.202978
H    -4.120470  3.674464  5.391070
H    -4.295764  3.124820  3.724538
H    -4.616653  5.470292  3.769485
H    -3.151359  5.738706  4.440855
N    -3.596107  1.011606  -0.021240
C    -4.325221  0.462070  -1.148324
H    -3.319902  1.984903  -0.045116
H    -5.234014  1.045148  -1.348530
H    -4.603431  -0.565724  -0.892932
H    -3.707094  0.443990  -2.057877
