33
Energy: -18209.0574337 eV PBE+vdW (tier 2 basis)
C    -0.785026  -0.690618  -0.712696
C    -0.448583  -1.237328  0.659384
O    0.511123  -1.987097  0.832124
H    0.147497  -0.631013  -1.281559
H    -1.447378  -1.402839  -1.225576
H    -1.281089  0.284026  -0.710210
N    -1.271446  -0.941979  1.725464
C    -2.376688  0.005875  1.888864
C    -3.372317  0.020626  0.707085
O    -3.683728  1.059937  0.129447
H    -0.925793  -1.370904  2.580233
H    -2.966942  -0.399950  2.730069
C    -1.935299  1.417493  2.323154
C    -0.950490  2.148539  1.406364
C    -0.534295  3.528218  1.934291
C    0.329312  3.495724  3.196067
N    0.722588  4.856324  3.583668
H    -1.497171  1.309858  3.327924
H    -2.844177  2.026474  2.440498
H    -1.414053  2.276255  0.419385
H    -0.046533  1.534443  1.263094
H    -1.423000  4.149631  2.126316
H    0.031792  4.045504  1.141581
H    1.185602  2.811305  3.023708
H    -0.242927  3.073498  4.036200
H    1.271465  4.841091  4.443199
H    1.321060  5.268529  2.866062
N    -3.943296  -1.172982  0.361895
C    -3.765470  -2.490707  0.949381
H    -4.584570  -1.085211  -0.420181
H    -4.636490  -3.104439  0.692609
H    -3.712311  -2.435455  2.044105
H    -2.859759  -2.999838  0.588931
