33
Energy: -18209.4409247 eV PBE+vdW (tier 2 basis)
C    -1.316224  1.833509  1.970367
C    -0.928943  0.891375  3.095222
O    -0.744459  1.280918  4.242854
H    -2.334027  2.201121  2.156404
H    -1.284537  1.372642  0.974854
H    -0.647899  2.702028  1.988143
N    -0.787579  -0.430241  2.728533
C    -0.616109  -1.496161  3.708152
C    0.740065  -2.230486  3.603601
O    0.926001  -3.293294  4.192498
H    -1.076789  -0.692915  1.792552
H    -0.592663  -0.979048  4.681047
C    -1.784420  -2.493789  3.703498
C    -1.982580  -3.234188  2.376151
C    -3.053493  -4.331980  2.430700
C    -4.483813  -3.851785  2.740020
N    -5.081213  -2.882742  1.815405
H    -2.693890  -1.944399  3.988303
H    -1.584598  -3.225429  4.498326
H    -1.028409  -3.693076  2.075093
H    -2.248205  -2.523981  1.571837
H    -2.763806  -5.078095  3.189468
H    -3.063190  -4.865952  1.465866
H    -4.526521  -3.411926  3.747752
H    -5.145699  -4.730425  2.773373
H    -5.045109  -3.229814  0.855575
H    -4.567914  -2.001100  1.826569
N    1.687745  -1.603519  2.854895
C    3.048205  -2.090574  2.748393
H    1.440373  -0.703230  2.460115
H    3.754158  -1.435606  3.279623
H    3.357117  -2.166420  1.697120
H    3.080424  -3.085419  3.205690
