33
Energy: -18209.3910263 eV PBE+vdW (tier 2 basis)
C    1.510599  -1.480574  1.094238
C    1.086941  -0.859209  2.410356
O    1.850870  -0.838331  3.383887
H    2.422107  -0.979690  0.745568
H    0.747887  -1.426049  0.308172
H    1.763715  -2.533348  1.271429
N    -0.170838  -0.337793  2.436640
C    -0.848511  0.269558  3.598077
C    -0.266753  1.670871  3.930359
O    -0.959151  2.687219  3.823768
H    -0.692267  -0.346059  1.569084
H    -1.867063  0.485944  3.251356
C    -0.935208  -0.708826  4.792957
C    -2.041528  -0.415317  5.818123
C    -1.922384  0.917852  6.587606
C    -2.980224  1.951270  6.178705
N    -2.593025  3.295568  6.620969
H    0.037543  -0.763764  5.299402
H    -1.111970  -1.708079  4.365875
H    -2.042355  -1.254990  6.527867
H    -3.021650  -0.458480  5.312880
H    -0.925038  1.356518  6.434080
H    -1.996064  0.747312  7.670782
H    -3.939801  1.692739  6.653637
H    -3.138467  1.889692  5.085415
H    -1.877364  3.646431  5.979309
H    -3.383567  3.934516  6.533725
N    1.018378  1.682349  4.350444
C    1.693813  2.921057  4.687085
H    1.542806  0.803766  4.282560
H    2.730633  2.693424  4.954674
H    1.206607  3.413761  5.540426
H    1.684360  3.626894  3.844172
