33
Energy: -18209.2239641 eV PBE+vdW (tier 2 basis)
C    0.156086  -0.855615  1.158325
C    -0.305499  -0.698081  2.597615
O    0.406932  -1.034941  3.541329
H    -0.126466  -0.010226  0.516202
H    -0.279418  -1.766056  0.722888
H    1.244167  -0.963134  1.162030
N    -1.554177  -0.178060  2.807634
C    -2.543473  0.254157  1.842650
C    -3.521481  1.164920  2.609841
O    -3.597270  1.140862  3.838381
H    -1.836082  -0.060615  3.781603
H    -2.054761  0.877346  1.075023
C    -3.265484  -0.909392  1.094519
C    -3.636897  -2.141092  1.928280
C    -4.714473  -1.954034  3.007212
C    -6.049032  -1.384561  2.519745
N    -6.603440  -2.175329  1.410040
H    -2.596674  -1.237125  0.285669
H    -4.160553  -0.520077  0.588873
H    -2.730669  -2.538894  2.408426
H    -3.974031  -2.909119  1.217663
H    -4.345293  -1.308246  3.816077
H    -4.899966  -2.937461  3.471595
H    -5.907722  -0.356664  2.150684
H    -6.725139  -1.303103  3.392500
H    -6.784089  -3.132626  1.718078
H    -7.503731  -1.796397  1.116376
N    -4.306895  2.007544  1.877794
C    -4.375071  2.191738  0.439032
H    -4.953814  2.537741  2.453749
H    -3.389477  2.056983  -0.021747
H    -5.078515  1.496414  -0.045072
H    -4.700501  3.216930  0.226955
