33
Energy: -18209.1034138 eV PBE+vdW (tier 2 basis)
C    -0.847858  -1.265560  0.127055
C    -0.490001  -1.066592  1.589367
O    0.468454  -1.625476  2.114217
H    -1.698591  -0.659755  -0.209569
H    -1.077281  -2.326052  -0.036751
H    0.028190  -1.021569  -0.485940
N    -1.304481  -0.203122  2.280507
C    -1.181898  -0.052511  3.737037
C    -2.531816  0.407440  4.308440
O    -3.119871  -0.257917  5.157353
H    -2.180732  0.063993  1.846907
H    -1.025571  -1.055812  4.158022
C    0.031122  0.823539  4.148168
C    0.665225  0.442645  5.491101
C    -0.200667  0.634751  6.746322
C    -0.747019  2.047656  6.964548
N    0.327785  3.051738  6.971867
H    -0.227710  1.891093  4.146778
H    0.790103  0.687778  3.367041
H    1.583097  1.038360  5.595684
H    0.982454  -0.610653  5.439604
H    -1.053883  -0.059058  6.738172
H    0.404662  0.352291  7.624670
H    -1.358154  2.039886  7.887714
H    -1.437936  2.313228  6.148803
H    -0.051522  3.980233  7.157258
H    0.985011  2.855337  7.729056
N    -3.101779  1.560133  3.816994
C    -2.508291  2.645675  3.048243
H    -3.979258  1.765094  4.288306
H    -3.282732  3.112482  2.426164
H    -1.723558  2.270814  2.384528
H    -2.065950  3.421329  3.693963
