33
Energy: -18209.517568 eV PBE+vdW (tier 2 basis)
C    1.153035  0.882171  0.836130
C    0.291019  -0.038234  1.680601
O    0.684123  -0.509164  2.748591
H    1.406261  1.770430  1.428484
H    2.092706  0.367080  0.601721
H    0.673124  1.200656  -0.097244
N    -0.954124  -0.291581  1.182223
C    -1.854860  -1.239445  1.802344
C    -2.790275  -1.745503  0.688978
O    -2.777929  -1.253414  -0.442304
H    -1.206641  -0.040326  0.227380
H    -1.256648  -2.089610  2.173118
C    -2.591884  -0.643769  3.030922
C    -3.450631  0.600530  2.778414
C    -4.773550  0.360988  2.042534
C    -5.660761  1.603222  1.995541
N    -6.906000  1.319754  1.268829
H    -1.803599  -0.403335  3.757438
H    -3.203106  -1.432885  3.500659
H    -2.848448  1.344304  2.232207
H    -3.668236  1.056209  3.758034
H    -5.338407  -0.452748  2.525697
H    -4.582003  0.035903  1.008188
H    -5.078019  2.446273  1.571927
H    -5.933151  1.897039  3.021548
H    -7.526854  2.128775  1.293110
H    -6.703524  1.143650  0.283274
N    -3.616060  -2.762689  1.045786
C    -4.668105  -3.255017  0.175330
H    -3.616381  -3.056110  2.015380
H    -4.790063  -4.336518  0.307482
H    -4.380915  -3.047434  -0.860235
H    -5.629063  -2.756577  0.377417
