33
Energy: -18209.3128552 eV PBE+vdW (tier 2 basis)
C    -0.039188  0.433537  -0.184426
C    0.115366  0.794521  1.280865
O    1.155968  1.280339  1.718905
H    -0.436624  1.303220  -0.726464
H    -0.713468  -0.410409  -0.368413
H    0.953670  0.211768  -0.587197
N    -0.947954  0.548068  2.127165
C    -2.348717  0.312494  1.773826
C    -2.617704  -1.092863  1.191110
O    -3.579171  -1.311641  0.456132
H    -0.845102  1.012249  3.029620
H    -2.848924  0.294909  2.752930
C    -3.016896  1.427287  0.939592
C    -4.420803  1.824093  1.423316
C    -4.503670  2.850761  2.566986
C    -4.084071  2.429233  3.980488
N    -2.619469  2.337996  4.151590
H    -3.084905  1.094074  -0.104063
H    -2.361929  2.310600  0.961487
H    -4.982885  0.915127  1.690796
H    -4.962846  2.255229  0.567990
H    -5.552597  3.178492  2.638089
H    -3.935647  3.756241  2.286329
H    -4.512132  1.440281  4.211814
H    -4.541618  3.139899  4.694106
H    -2.397518  2.173585  5.134522
H    -2.193314  3.236759  3.916228
N    -1.754019  -2.054777  1.618296
C    -1.863682  -3.443621  1.223633
H    -0.963226  -1.741234  2.172052
H    -1.943846  -4.100372  2.101124
H    -0.998012  -3.760795  0.624056
H    -2.770481  -3.545969  0.617540
