33
Energy: -18209.4891743 eV PBE+vdW (tier 2 basis)
C    -1.121686  -0.896533  -0.716845
C    -0.741358  -0.591923  0.716753
O    0.420784  -0.303127  1.033742
H    -2.182526  -1.140799  -0.850603
H    -0.511563  -1.734578  -1.075803
H    -0.876291  -0.024938  -1.336543
N    -1.748600  -0.657173  1.627376
C    -1.599168  -0.311014  3.042037
C    -0.985604  -1.473343  3.880772
O    -1.560770  -1.976035  4.846621
H    -2.663150  -0.966313  1.319762
H    -0.864179  0.509176  3.074693
C    -2.924104  0.181588  3.630589
C    -4.133025  -0.745378  3.430134
C    -5.368509  -0.321160  4.236791
C    -5.262037  -0.608625  5.735081
N    -6.504236  -0.218263  6.418690
H    -3.147718  1.172254  3.204274
H    -2.752008  0.325739  4.705051
H    -3.854859  -1.773214  3.706577
H    -4.421083  -0.764330  2.364777
H    -6.259418  -0.842539  3.856734
H    -5.557539  0.756476  4.082723
H    -4.357283  -0.126253  6.151076
H    -5.124852  -1.690811  5.880415
H    -6.616206  0.796779  6.393794
H    -6.460738  -0.475221  7.405009
N    0.247526  -1.846264  3.462304
C    0.985686  -2.912513  4.112203
H    0.648050  -1.345459  2.663477
H    0.416049  -3.852255  4.101968
H    1.202291  -2.666642  5.161633
H    1.930122  -3.061308  3.578735
