33
Energy: -18208.818469 eV PBE+vdW (tier 2 basis)
C    0.291735  0.773310  -0.309605
C    0.414492  0.845179  1.201348
O    1.491884  1.073221  1.749924
H    -0.461480  1.475017  -0.691638
H    0.014149  -0.238776  -0.634131
H    1.264496  1.029373  -0.737014
N    -0.714901  0.639322  1.948872
C    -2.099655  0.368395  1.563944
C    -2.198837  -0.948109  0.750361
O    -1.816144  -1.984307  1.291541
H    -0.530992  0.647660  2.947635
H    -2.559154  0.072659  2.518021
C    -2.860644  1.639576  1.143058
C    -4.395996  1.524705  1.238816
C    -5.038940  1.900488  2.586497
C    -4.843967  0.948223  3.771796
N    -3.487586  1.018959  4.340503
H    -2.564977  1.971265  0.139830
H    -2.518641  2.432009  1.824499
H    -4.719533  0.505611  0.967291
H    -4.839389  2.186469  0.479063
H    -6.124460  1.987089  2.422411
H    -4.705248  2.911355  2.880540
H    -5.011551  -0.088622  3.438573
H    -5.631650  1.165986  4.518024
H    -3.314484  1.950065  4.722404
H    -3.394019  0.365680  5.118603
N    -2.743609  -1.021251  -0.509892
C    -3.095607  -0.018640  -1.505327
H    -2.743293  -1.986203  -0.827862
H    -3.335548  -0.547204  -2.434362
H    -2.268178  0.668966  -1.723434
H    -3.979584  0.567391  -1.223040
