33
Energy: -18209.446249 eV PBE+vdW (tier 2 basis)
C    -0.985383  0.342103  -0.101355
C    -0.244266  -0.326785  1.048259
O    0.983871  -0.331916  1.097527
H    -1.640074  1.151387  0.252372
H    -1.605270  -0.371741  -0.660435
H    -0.235247  0.763832  -0.775284
N    -0.992313  -0.941431  2.018714
C    -2.426274  -0.898048  2.224024
C    -2.726855  -0.317429  3.619980
O    -1.936748  -0.433369  4.555835
H    -0.453461  -1.231502  2.834703
H    -2.869586  -0.232408  1.476811
C    -3.074304  -2.301226  2.105990
C    -3.283563  -2.782177  0.664470
C    -4.606344  -2.380491  -0.010976
C    -4.916870  -0.892544  -0.225141
N    -5.447825  -0.228874  0.989896
H    -4.036814  -2.304555  2.639389
H    -2.421258  -3.001446  2.646608
H    -3.244453  -3.881962  0.652970
H    -2.431897  -2.460576  0.043471
H    -5.447540  -2.832238  0.544776
H    -4.627290  -2.857987  -1.002642
H    -5.624497  -0.809910  -1.069432
H    -4.007211  -0.354395  -0.531946
H    -6.294076  -0.720130  1.287734
H    -5.752825  0.715809  0.746225
N    -3.944071  0.282293  3.693878
C    -4.496041  0.779487  4.937728
H    -4.527786  0.227648  2.851199
H    -4.850812  1.812962  4.824040
H    -3.702075  0.757021  5.692142
H    -5.332408  0.156988  5.291073
