33
Energy: -18209.5636091 eV PBE+vdW (tier 2 basis)
C    -5.440769  3.552653  2.257803
C    -4.037058  2.991735  2.170130
O    -3.317695  3.185511  1.182928
H    -5.958762  3.302750  3.191671
H    -6.026567  3.176222  1.410149
H    -5.388566  4.644169  2.160080
N    -3.612941  2.270934  3.246409
C    -2.273344  1.687366  3.323249
C    -2.257876  0.319813  2.587360
O    -2.342912  -0.753594  3.181965
H    -4.268071  2.059136  3.990716
H    -1.619900  2.380627  2.774834
C    -1.825900  1.568062  4.778920
C    -0.363615  1.139163  4.961227
C    0.671700  2.092196  4.354296
C    2.116785  1.694316  4.690845
N    3.178357  2.537748  4.134628
H    -2.473973  0.835903  5.285060
H    -1.987723  2.545954  5.260425
H    -0.231060  0.128812  4.546265
H    -0.174285  1.047656  6.042816
H    0.489780  3.121296  4.711511
H    0.567655  2.125275  3.256824
H    2.298156  0.662306  4.350852
H    2.243768  1.676238  5.785310
H    3.126283  2.549248  3.114894
H    3.060044  3.505664  4.437871
N    -2.156726  0.450383  1.236908
C    -2.258217  -0.683800  0.339138
H    -2.273633  1.396330  0.867204
H    -3.261918  -0.765346  -0.105886
H    -2.059405  -1.594222  0.914161
H    -1.521611  -0.596504  -0.469564
