33
Energy: -18209.5059091 eV PBE+vdW (tier 2 basis)
C    0.603941  0.539556  0.197911
C    -0.543722  0.721067  1.168753
O    -1.458559  1.526876  0.951379
H    1.350100  -0.193637  0.527497
H    1.094901  1.508148  0.042972
H    0.196297  0.221412  -0.769898
N    -0.505989  -0.051642  2.287175
C    -1.568521  -0.086658  3.293709
C    -1.455440  1.083804  4.317453
O    -1.309519  0.895655  5.525143
H    0.301735  -0.642950  2.443332
H    -2.508076  0.078690  2.742758
C    -1.626987  -1.455400  3.979292
C    -0.306713  -1.953190  4.588335
C    -0.475728  -3.176979  5.500237
C    -0.955591  -4.453303  4.791729
N    -1.052808  -5.657876  5.622239
H    -2.010701  -2.182379  3.248252
H    -2.375218  -1.379357  4.780990
H    0.142149  -1.138674  5.172811
H    0.412493  -2.218631  3.791374
H    -1.177681  -2.924625  6.312918
H    0.489961  -3.392046  5.986863
H    -0.276518  -4.679553  3.952577
H    -1.946066  -4.289800  4.341083
H    -1.721182  -5.511201  6.380265
H    -0.155358  -5.853317  6.069220
N    -1.567793  2.305515  3.736442
C    -1.473259  3.541800  4.485861
H    -1.696311  2.326598  2.719788
H    -0.612518  4.142372  4.157614
H    -1.348523  3.289403  5.544225
H    -2.384795  4.144325  4.367701
