33
Energy: -18209.040687 eV PBE+vdW (tier 2 basis)
C    -0.305652  0.703379  -0.130290
C    -0.020177  0.435416  1.332152
O    1.089455  0.648447  1.818881
H    0.367728  1.500205  -0.459161
H    -0.071623  -0.199669  -0.712204
H    -1.340549  0.980941  -0.349076
N    -1.006255  -0.120272  2.117769
C    -2.434827  -0.358377  1.894007
C    -2.756020  -0.992669  0.523589
O    -3.614035  -0.542597  -0.236342
H    -0.684164  -0.237445  3.075214
H    -2.687653  -1.169342  2.601823
C    -3.343638  0.822525  2.303809
C    -3.030504  2.228563  1.763465
C    -3.521044  2.604438  0.356182
C    -5.026049  2.848268  0.208618
N    -5.816040  1.637290  0.472242
H    -3.266810  0.873012  3.401908
H    -4.385618  0.560958  2.078097
H    -1.944354  2.403457  1.825068
H    -3.471822  2.946796  2.473508
H    -3.224166  1.840386  -0.376271
H    -3.010981  3.533736  0.057107
H    -5.197094  3.270702  -0.802082
H    -5.340617  3.624706  0.926949
H    -6.787559  1.775772  0.196675
H    -5.445541  0.857909  -0.075983
N    -2.089521  -2.142199  0.203782
C    -1.116318  -2.901493  0.972517
H    -2.367255  -2.510364  -0.700529
H    -1.097373  -3.926798  0.585807
H    -1.396198  -2.953186  2.032469
H    -0.101680  -2.483549  0.906975
