33
Energy: -18209.4890483 eV PBE+vdW (tier 2 basis)
C    -0.425972  0.208947  -0.094330
C    -0.292990  -0.028360  1.396818
O    0.817193  -0.033315  1.945302
H    0.061762  1.158727  -0.345051
H    -1.462211  0.230873  -0.452635
H    0.115091  -0.586043  -0.623009
N    -1.461344  -0.231391  2.066534
C    -1.618617  -0.553908  3.495340
C    -1.288024  0.640003  4.431849
O    -2.162290  1.139642  5.138909
H    -2.316342  -0.144726  1.531849
H    -2.696499  -0.697518  3.642574
C    -0.881765  -1.844816  3.892915
C    -1.120012  -2.234349  5.355681
C    -0.165553  -3.318712  5.874597
C    1.316147  -2.924700  5.855768
N    1.557740  -1.701281  6.633253
H    0.190165  -1.713175  3.697985
H    -1.218657  -2.652338  3.223677
H    -2.159534  -2.574340  5.482665
H    -1.028221  -1.347511  6.001328
H    -0.286937  -4.241344  5.283124
H    -0.447417  -3.562111  6.909946
H    1.670841  -2.858565  4.807819
H    1.895447  -3.734793  6.322481
H    2.559530  -1.537992  6.730058
H    1.181069  -0.886079  6.145907
N    0.015801  1.024083  4.442139
C    0.466190  2.152074  5.236368
H    0.605259  0.661751  3.683137
H    1.541090  2.054179  5.428072
H    -0.074200  2.160777  6.189497
H    0.282754  3.115290  4.734637
