33
Energy: -18209.371417 eV PBE+vdW (tier 2 basis)
C    0.369052  -0.007054  0.274535
C    0.198856  0.222877  1.764361
O    1.182922  0.429122  2.486386
H    -0.573906  -0.098505  -0.277929
H    0.952591  -0.925638  0.131407
H    0.954484  0.819651  -0.145067
N    -1.087356  0.200542  2.210817
C    -1.641317  0.211095  3.580966
C    -1.249717  1.357331  4.546283
O    -2.013278  1.589462  5.486328
H    -1.783847  0.036572  1.493805
H    -2.708656  0.421466  3.425210
C    -1.596430  -1.177723  4.263854
C    -0.229279  -1.799742  4.588013
C    0.607777  -1.129120  5.686040
C    -0.057057  -1.074724  7.060862
N    0.859071  -0.468185  8.041754
H    -2.141434  -1.869059  3.601670
H    -2.205591  -1.086409  5.174404
H    0.376648  -1.857285  3.672257
H    -0.420089  -2.845131  4.883213
H    0.886087  -0.110917  5.376668
H    1.558085  -1.674714  5.786017
H    -0.273867  -2.100910  7.399916
H    -1.024778  -0.545950  6.991897
H    1.011650  0.513296  7.800053
H    0.424546  -0.460295  8.965328
N    -0.115162  2.049679  4.300435
C    0.338646  3.077810  5.216534
H    0.556278  1.614137  3.652386
H    1.030120  3.748398  4.694233
H    0.855436  2.652185  6.093181
H    -0.521850  3.649146  5.581212
