33
Energy: -18209.4724796 eV PBE+vdW (tier 2 basis)
C    0.525067  0.185600  -0.039067
C    0.300574  0.105087  1.459441
O    1.230664  0.102217  2.266658
H    1.008669  1.143633  -0.269629
H    -0.397877  0.104929  -0.626401
H    1.216453  -0.611226  -0.337919
N    -1.005701  0.059080  1.849017
C    -1.394915  -0.054278  3.236798
C    -2.792535  -0.687618  3.256735
O    -3.532094  -0.651211  2.268080
H    -1.761172  -0.030608  1.174171
H    -0.669740  -0.725761  3.724964
C    -1.370356  1.282529  4.033637
C    -2.537225  2.274468  3.839198
C    -2.342690  3.416479  2.828039
C    -2.308051  3.044246  1.344424
N    -3.551008  2.388307  0.921374
H    -0.404766  1.761843  3.817295
H    -1.324842  1.003854  5.098050
H    -2.722364  2.748832  4.814391
H    -3.470016  1.735762  3.609237
H    -1.411681  3.954631  3.071896
H    -3.168305  4.130308  2.973514
H    -1.394819  2.456120  1.135368
H    -2.213651  3.975885  0.766381
H    -3.631524  1.442857  1.302620
H    -3.583288  2.299055  -0.093261
N    -3.159686  -1.239215  4.440793
C    -4.479321  -1.792573  4.684566
H    -2.482178  -1.242519  5.194123
H    -4.419764  -2.858369  4.943697
H    -5.060100  -1.682603  3.763363
H    -4.989246  -1.255426  5.496099
