33
Energy: -18209.0715729 eV PBE+vdW (tier 2 basis)
C    -0.304662  1.404553  1.402602
C    -0.651938  1.100453  2.840742
O    0.073202  1.443938  3.773979
H    -0.333665  0.493391  0.793481
H    0.703522  1.828205  1.392189
H    -1.003403  2.131112  0.962121
N    -1.833339  0.443113  3.135965
C    -2.880104  -0.159069  2.319908
C    -2.433813  -1.482099  1.655789
O    -1.294125  -1.664416  1.240040
H    -1.905651  0.279123  4.135063
H    -3.678485  -0.393373  3.041080
C    -3.502410  0.774368  1.257875
C    -4.108646  2.042786  1.864943
C    -4.713928  3.023098  0.846386
C    -3.726771  3.997753  0.197527
N    -2.716204  3.313329  -0.622585
H    -4.287967  0.209186  0.730211
H    -2.755470  1.033872  0.499512
H    -3.342469  2.565530  2.458010
H    -4.891188  1.746086  2.583286
H    -5.480869  3.631625  1.349899
H    -5.251296  2.465517  0.058659
H    -3.189709  4.537863  0.992978
H    -4.305284  4.758407  -0.362757
H    -3.151283  2.894647  -1.446408
H    -2.026958  3.980289  -0.969743
N    -3.398634  -2.446105  1.514515
C    -4.757757  -2.452816  2.029765
H    -3.057099  -3.285686  1.057469
H    -5.354852  -1.614841  1.641934
H    -4.791765  -2.427685  3.129941
H    -5.244678  -3.378528  1.705024
