33
Energy: -18209.2164065 eV PBE+vdW (tier 2 basis)
C    0.453256  -0.384999  0.026414
C    0.345383  -0.477023  1.539449
O    1.299401  -0.795041  2.241245
H    1.250030  0.325780  -0.224908
H    -0.472991  -0.069503  -0.470024
H    0.754447  -1.364908  -0.364412
N    -0.891860  -0.158032  2.052649
C    -1.245837  -0.367251  3.461309
C    -2.755363  -0.205013  3.677623
O    -3.338972  -0.829439  4.557316
H    -1.661571  -0.163434  1.391871
H    -1.024689  -1.408238  3.742223
C    -0.439298  0.537060  4.429719
C    -0.623027  2.053668  4.253373
C    -1.743463  2.685766  5.095104
C    -1.366463  2.872411  6.565196
N    -2.509153  3.395890  7.325631
H    0.612768  0.262521  4.293233
H    -0.717002  0.227085  5.447711
H    -0.780856  2.277264  3.185315
H    0.326381  2.553326  4.502096
H    -2.653093  2.065936  5.047949
H    -2.022633  3.668264  4.685645
H    -0.551017  3.609329  6.635677
H    -0.964695  1.921604  6.967891
H    -3.244128  2.688531  7.380773
H    -2.235418  3.597751  8.287368
N    -3.396339  0.671865  2.837294
C    -4.792820  1.019008  3.043317
H    -2.817902  1.337671  2.334475
H    -5.231243  1.360661  2.098757
H    -4.915452  1.807263  3.803026
H    -5.324274  0.127589  3.390929
