33
Energy: -18209.2123869 eV PBE+vdW (tier 2 basis)
C    0.378073  0.962510  0.629902
C    0.276325  1.185657  2.131415
O    1.183442  1.719836  2.764892
H    -0.386780  1.537167  0.087229
H    0.261133  -0.093826  0.355287
H    1.364832  1.308214  0.311373
N    -0.867153  0.765455  2.761652
C    -2.077313  0.217202  2.181998
C    -3.273676  1.003339  2.749220
O    -3.245816  1.450961  3.893842
H    -0.949079  1.049428  3.737479
H    -2.025737  0.332327  1.091629
C    -2.275662  -1.279733  2.525431
C    -1.217046  -2.198704  1.911762
C    -1.372364  -3.679131  2.285363
C    -1.034065  -4.003825  3.741063
N    -1.127883  -5.451161  3.976993
H    -3.277119  -1.595587  2.188553
H    -2.281252  -1.363492  3.622402
H    -0.215496  -1.852057  2.212532
H    -1.259059  -2.105975  0.814059
H    -0.719452  -4.290724  1.645214
H    -2.404718  -4.007282  2.069125
H    -1.670087  -3.404260  4.420964
H    0.005862  -3.701239  3.940418
H    -0.831830  -5.677014  4.926673
H    -2.098328  -5.760013  3.899144
N    -4.374473  1.129367  1.952733
C    -4.528145  0.711208  0.568697
H    -5.142027  1.625349  2.394669
H    -4.393933  -0.373061  0.444442
H    -3.830998  1.231633  -0.105029
H    -5.545449  0.955819  0.246269
