33
Energy: -18209.4560871 eV PBE+vdW (tier 2 basis)
C    -2.858909  -2.732383  -0.102312
C    -2.044295  -1.893429  0.864753
O    -0.960159  -1.397946  0.538813
H    -3.775193  -3.137065  0.343514
H    -2.235468  -3.561688  -0.458278
H    -3.118447  -2.119259  -0.974798
N    -2.599979  -1.715079  2.094354
C    -1.873873  -0.983926  3.115736
C    -0.840492  -1.905602  3.802819
O    -1.160896  -2.994488  4.281145
H    -3.452372  -2.235804  2.353899
H    -1.343838  -0.179051  2.592469
C    -2.810425  -0.338171  4.154291
C    -3.703957  -1.301569  4.972474
C    -5.214749  -1.120413  4.764068
C    -5.740875  -1.361934  3.347224
N    -5.333224  -2.682051  2.829426
H    -3.429908  0.397365  3.617115
H    -2.176682  0.248589  4.835144
H    -3.496973  -1.161468  6.042323
H    -3.409187  -2.338593  4.764200
H    -5.514612  -0.101726  5.059833
H    -5.744778  -1.798448  5.454826
H    -5.335915  -0.603195  2.658148
H    -6.837050  -1.223987  3.356119
H    -5.862280  -2.911521  1.987727
H    -5.541110  -3.414278  3.510931
N    0.437236  -1.435245  3.891273
C    1.020537  -0.302410  3.181687
H    1.068856  -2.088772  4.344086
H    2.109483  -0.357032  3.288009
H    0.695096  0.660796  3.602317
H    0.774206  -0.336067  2.111219
