33
Energy: -18209.124633 eV PBE+vdW (tier 2 basis)
C    0.317429  0.743252  -0.335676
C    0.361375  -0.047953  0.960486
O    1.300833  -0.779995  1.255550
H    1.133626  1.476879  -0.326564
H    -0.629654  1.271035  -0.504965
H    0.503199  0.059676  -1.172675
N    -0.726183  0.102862  1.778926
C    -0.819670  -0.515366  3.095929
C    -0.655199  -2.050908  3.118717
O    -0.022296  -2.563179  4.039236
H    -1.468456  0.731711  1.495391
H    0.031727  -0.180993  3.707728
C    -2.124013  -0.036117  3.765267
C    -2.353318  -0.513576  5.209002
C    -3.080130  -1.856516  5.344042
C    -3.293400  -2.267383  6.807907
N    -3.977729  -3.543357  7.036199
H    -2.987754  -0.323256  3.141405
H    -2.086005  1.065220  3.752288
H    -2.942198  0.255823  5.732908
H    -1.385970  -0.566543  5.732489
H    -2.513953  -2.650578  4.836381
H    -4.061349  -1.793369  4.840720
H    -3.863917  -1.482979  7.331989
H    -2.316311  -2.320145  7.312939
H    -4.890559  -3.545561  6.578294
H    -3.445075  -4.308032  6.618829
N    -1.276577  -2.830157  2.181882
C    -2.048458  -2.469681  1.006017
H    -1.038047  -3.810519  2.295482
H    -2.627195  -3.347549  0.694688
H    -1.417527  -2.155488  0.160260
H    -2.764467  -1.669189  1.223848
