33
Energy: -18209.3130693 eV PBE+vdW (tier 2 basis)
C    -0.208367  -0.318122  -0.097175
C    -0.433819  -0.505570  1.390716
O    0.052131  -1.454286  2.008353
H    -0.692415  0.575086  -0.510665
H    -0.582687  -1.204470  -0.624293
H    0.871072  -0.258619  -0.283129
N    -1.205172  0.450547  1.989856
C    -1.526965  0.452531  3.417242
C    -3.042933  0.171166  3.528520
O    -3.864418  1.088646  3.456767
H    -1.621396  1.178541  1.419329
H    -0.936004  -0.365886  3.847403
C    -1.110956  1.789506  4.050522
C    -1.025299  1.857429  5.585565
C    -2.361644  1.815167  6.347162
C    -2.797450  0.407013  6.762572
N    -4.223315  0.387943  7.094581
H    -1.797180  2.571901  3.690117
H    -0.115670  2.017797  3.641047
H    -0.355031  1.061638  5.954184
H    -0.513448  2.801394  5.823737
H    -2.304991  2.441351  7.248732
H    -3.148597  2.257076  5.717179
H    -2.232894  0.097903  7.656395
H    -2.519911  -0.313437  5.968482
H    -4.772257  0.619054  6.263931
H    -4.517330  -0.539186  7.401258
N    -3.442103  -1.128501  3.622182
C    -2.638292  -2.324226  3.836484
H    -4.452095  -1.223007  3.679305
H    -3.186600  -3.189126  3.445174
H    -2.435537  -2.499973  4.905917
H    -1.684875  -2.262439  3.299601
