33
Energy: -18209.2582681 eV PBE+vdW (tier 2 basis)
C    0.117383  0.081913  0.560711
C    0.428357  -0.037263  2.040764
O    1.480847  -0.514839  2.454783
H    -0.863869  -0.342205  0.305248
H    0.895510  -0.449474  0.007013
H    0.118074  1.136975  0.252420
N    -0.537816  0.395797  2.919279
C    -1.757610  1.113536  2.609561
C    -1.483826  2.547152  2.079047
O    -0.449538  3.159812  2.323607
H    -0.226243  0.388384  3.885566
H    -2.284196  0.558891  1.815097
C    -2.700996  1.160531  3.843216
C    -2.489718  2.311849  4.836027
C    -1.130723  2.360475  5.543561
C    -0.925536  3.638179  6.361450
N    -0.994322  4.819649  5.490580
H    -2.619663  0.184422  4.347781
H    -3.735343  1.219030  3.472786
H    -3.285816  2.247975  5.595670
H    -2.646144  3.273072  4.325250
H    -0.317236  2.315062  4.802333
H    -1.011245  1.488131  6.206806
H    0.029166  3.545828  6.914763
H    -1.721969  3.730324  7.118505
H    -0.774162  5.666474  6.013370
H    -0.305084  4.742301  4.739703
N    -2.506746  3.062928  1.337781
C    -2.514062  4.429542  0.849705
H    -3.330684  2.491402  1.192577
H    -2.717149  4.459670  -0.228970
H    -1.521731  4.851189  1.040038
H    -3.262918  5.041178  1.373234
