33
Energy: -18209.1260239 eV PBE+vdW (tier 2 basis)
C    0.215930  -0.085847  0.659573
C    -0.083073  0.208602  2.116116
O    0.809937  0.423591  2.935420
H    -0.416992  0.487753  -0.030549
H    0.062297  -1.154453  0.450743
H    1.265550  0.158654  0.476824
N    -1.401432  0.231785  2.503963
C    -2.559973  -0.274196  1.766792
C    -3.816998  0.504899  2.210403
O    -4.773000  -0.043534  2.753607
H    -1.511755  0.360768  3.507036
H    -2.399085  -0.028982  0.704833
C    -2.722384  -1.799731  1.866715
C    -2.786733  -2.393730  3.284498
C    -2.315048  -3.859606  3.332146
C    -0.822546  -4.049723  3.631685
N    0.063443  -3.348329  2.681303
H    -1.868312  -2.245676  1.337745
H    -3.625744  -2.086594  1.308451
H    -3.812465  -2.304170  3.660637
H    -2.164940  -1.801359  3.977112
H    -2.559446  -4.353778  2.377948
H    -2.873184  -4.400798  4.111616
H    -0.591718  -5.123326  3.571223
H    -0.633751  -3.749834  4.681142
H    0.987688  -3.778391  2.693275
H    0.214464  -2.384948  2.984603
N    -3.821170  1.850773  1.961832
C    -2.815983  2.662825  1.295469
H    -4.659439  2.312451  2.300135
H    -3.276882  3.612338  1.001652
H    -2.452527  2.178022  0.379181
H    -1.949698  2.875207  1.937700
