33
Energy: -18209.1877234 eV PBE+vdW (tier 2 basis)
C    1.979124  -1.474166  1.399334
C    1.393315  -0.390002  2.281099
O    2.085626  0.272412  3.052107
H    1.331223  -1.764164  0.562347
H    2.151907  -2.353913  2.036517
H    2.947446  -1.139096  1.012870
N    0.039579  -0.212635  2.162356
C    -0.799919  0.531887  3.101901
C    -0.143109  1.824956  3.651962
O    -0.107537  2.062344  4.855116
H    -0.449586  -0.863105  1.557554
H    -1.651848  0.901654  2.504062
C    -1.398567  -0.364985  4.215931
C    -0.485712  -1.432338  4.834127
C    0.596918  -0.937372  5.799146
C    1.641574  -2.005764  6.125927
N    2.423956  -2.354989  4.926669
H    -2.266902  -0.878874  3.773234
H    -1.789651  0.305753  4.993875
H    -0.005666  -2.018342  4.035741
H    -1.134154  -2.146451  5.368013
H    0.131491  -0.588497  6.733511
H    1.109907  -0.061330  5.380585
H    1.147193  -2.924649  6.483917
H    2.267645  -1.637928  6.961639
H    2.878381  -1.513303  4.563956
H    3.163891  -3.014856  5.165512
N    0.234950  2.776575  2.742698
C    0.355597  2.680884  1.300409
H    0.683965  3.567595  3.193767
H    0.365249  3.695564  0.884419
H    -0.504378  2.156328  0.867165
H    1.274586  2.164080  0.981866
