33
Energy: -18209.1098358 eV PBE+vdW (tier 2 basis)
C    -0.203827  0.525113  0.084759
C    0.013399  0.246384  1.558666
O    1.124705  0.326896  2.078068
H    -1.050937  1.197282  -0.101837
H    -0.394383  -0.415758  -0.449859
H    0.709435  0.978511  -0.309092
N    -1.074001  -0.115736  2.316850
C    -2.481376  -0.227530  1.953169
C    -2.670561  -1.230690  0.779544
O    -2.104706  -2.318412  0.794904
H    -0.816843  -0.364240  3.265873
H    -2.941654  -0.761483  2.799769
C    -3.221100  1.124910  1.841022
C    -3.024807  2.059470  3.050646
C    -1.849539  3.033533  2.920690
C    -1.650879  3.899764  4.162382
N    -0.556187  4.854001  3.951186
H    -4.294726  0.901800  1.737933
H    -2.919402  1.662979  0.927230
H    -2.909598  1.453511  3.965371
H    -3.947678  2.642236  3.196640
H    -2.007521  3.694624  2.053648
H    -0.918811  2.480504  2.725583
H    -1.505761  3.237209  5.040574
H    -2.567201  4.479956  4.357687
H    0.325989  4.354355  3.826303
H    -0.436452  5.450322  4.769864
N    -3.513959  -0.839966  -0.218135
C    -3.805295  -1.680958  -1.364018
H    -3.904830  0.092806  -0.186207
H    -4.888107  -1.819593  -1.484779
H    -3.334592  -2.653658  -1.187605
H    -3.396205  -1.252354  -2.290285
