33
Energy: -18209.0092252 eV PBE+vdW (tier 2 basis)
C    1.488719  -1.399955  0.765677
C    0.879776  -0.563623  1.881305
O    1.580574  0.143812  2.601921
H    2.043614  -0.733797  0.093395
H    0.761278  -1.974454  0.178696
H    2.214315  -2.093786  1.208010
N    -0.481663  -0.661111  1.983648
C    -1.412746  -0.106657  2.977154
C    -2.304888  1.059291  2.485959
O    -3.465623  1.105667  2.897263
H    -0.923037  -1.275506  1.309877
H    -2.159221  -0.901179  3.111937
C    -0.850692  0.174759  4.393532
C    -0.275682  1.566938  4.671878
C    0.209780  1.739635  6.116912
C    -0.895521  1.714895  7.173501
N    -0.332616  1.946616  8.510599
H    -0.098376  -0.593750  4.621847
H    -1.697667  -0.002435  5.070999
H    -1.040305  2.330978  4.454017
H    0.570788  1.745056  3.998043
H    0.738317  2.705022  6.191046
H    0.956327  0.967927  6.362279
H    -1.378953  0.726526  7.193607
H    -1.682115  2.441610  6.884075
H    0.065798  2.885397  8.567138
H    -1.063805  1.900882  9.220338
N    -1.832833  2.003331  1.622488
C    -0.493872  2.250279  1.109401
H    -2.553247  2.678945  1.384713
H    -0.382970  3.327283  0.935423
H    -0.310025  1.727682  0.157767
H    0.276666  1.949647  1.826019
