33
Energy: -18209.1260041 eV PBE+vdW (tier 2 basis)
C    0.225092  0.160567  0.974087
C    -0.148487  0.063063  2.438179
O    0.697002  0.102535  3.330798
H    -0.437354  0.817450  0.399356
H    0.179984  -0.831771  0.503535
H    1.253953  0.525773  0.918304
N    -1.474461  -0.109008  2.770394
C    -2.683449  -0.129778  1.940994
C    -2.570688  -1.141399  0.771713
O    -2.648104  -0.793709  -0.404060
H    -1.607982  -0.144481  3.776655
H    -3.468980  -0.522076  2.608836
C    -3.141906  1.252009  1.453038
C    -4.634410  1.306211  1.118142
C    -5.061405  2.661480  0.550522
C    -6.557239  2.774534  0.248652
N    -6.980749  1.776223  -0.742453
H    -2.556482  1.532312  0.565863
H    -2.904123  1.978132  2.245281
H    -5.221981  1.094306  2.029184
H    -4.888198  0.520540  0.394067
H    -4.491197  2.862264  -0.373460
H    -4.789029  3.467135  1.252198
H    -6.777292  3.819287  -0.047742
H    -7.128792  2.584813  1.171583
H    -6.523754  1.951388  -1.638926
H    -7.984295  1.840119  -0.910807
N    -2.385480  -2.452665  1.110179
C    -2.264007  -3.050579  2.429395
H    -2.293122  -3.060152  0.302242
H    -2.433278  -4.129237  2.337650
H    -3.024881  -2.658231  3.117573
H    -1.274061  -2.886568  2.878844
