33
Energy: -18208.8593896 eV PBE+vdW (tier 2 basis)
C    0.050529  0.132344  0.164577
C    0.095626  0.055702  1.679915
O    1.160812  0.035772  2.293132
H    1.078558  0.221631  -0.195576
H    -0.527870  0.996773  -0.186951
H    -0.399713  -0.774500  -0.261798
N    -1.095984  0.004210  2.360449
C    -2.470397  -0.040542  1.859453
C    -2.687314  -1.320338  1.000971
O    -2.410297  -2.401861  1.516488
H    -0.960373  -0.164567  3.351636
H    -3.076904  -0.301339  2.737748
C    -2.994712  1.327723  1.394609
C    -2.860427  2.423008  2.465387
C    -3.591424  2.207566  3.800602
C    -5.116360  2.067099  3.722578
N    -5.524661  0.722251  3.278686
H    -4.052680  1.206485  1.127850
H    -2.465250  1.674515  0.497167
H    -3.221224  3.366376  2.024193
H    -1.792041  2.580056  2.677640
H    -3.361292  3.069537  4.445487
H    -3.180759  1.334038  4.336065
H    -5.508900  2.790842  2.990505
H    -5.550292  2.349019  4.700844
H    -5.364552  0.044227  4.025577
H    -6.526965  0.698975  3.090046
N    -3.213952  -1.297388  -0.264203
C    -3.506157  -0.224338  -1.202935
H    -3.321336  -2.244899  -0.614251
H    -3.751162  -0.686012  -2.165633
H    -2.644814  0.436317  -1.364715
H    -4.366127  0.385110  -0.895302
