33
Energy: -18209.3977638 eV PBE+vdW (tier 2 basis)
C    -2.806754  -1.568993  -0.735279
C    -1.428262  -1.296677  -0.165086
O    -0.455000  -2.001068  -0.418951
H    -2.726713  -2.406088  -1.433173
H    -3.216771  -0.693449  -1.257058
H    -3.515855  -1.836525  0.061421
N    -1.303583  -0.196349  0.656579
C    -2.355555  0.688843  1.141466
C    -2.757844  1.822333  0.174899
O    -3.805080  2.442050  0.359733
H    -0.383344  -0.111445  1.081813
H    -3.282889  0.110499  1.264175
C    -1.966709  1.281853  2.507517
C    -2.188806  0.323189  3.688392
C    -3.658033  -0.013471  3.994120
C    -4.473179  1.068012  4.711509
N    -4.543909  2.324248  3.955060
H    -2.552291  2.192901  2.675156
H    -0.906962  1.585709  2.462277
H    -1.732975  0.771856  4.585072
H    -1.640185  -0.615827  3.508335
H    -3.687567  -0.914426  4.625784
H    -4.184715  -0.298309  3.066368
H    -3.993556  1.291921  5.678701
H    -5.465957  0.635176  4.949379
H    -5.148012  2.995508  4.427788
H    -4.935486  2.177101  3.022199
N    -1.888776  2.068060  -0.839164
C    -2.106366  3.099546  -1.833404
H    -1.081547  1.457039  -0.908828
H    -2.203224  2.669647  -2.840318
H    -1.282152  3.826063  -1.836959
H    -3.036900  3.616766  -1.575658
