33
Energy: -18209.2049666 eV PBE+vdW (tier 2 basis)
C    -0.305768  -0.144322  0.128805
C    -0.354048  0.570556  1.469132
O    0.399436  1.500121  1.736493
H    -1.044587  -0.948639  0.023069
H    0.700076  -0.558993  -0.012165
H    -0.469218  0.593259  -0.666551
N    -1.317678  0.106722  2.337442
C    -1.400848  0.531722  3.739774
C    -2.396538  -0.332720  4.521874
O    -2.273958  -0.496813  5.730747
H    -1.687662  -0.814913  2.129854
H    -0.429825  0.361640  4.230767
C    -1.718655  2.039782  3.902807
C    -3.043474  2.543050  3.308342
C    -4.293078  2.439513  4.201852
C    -4.189678  3.156306  5.550948
N    -3.939782  4.595542  5.382864
H    -0.881737  2.574307  3.439339
H    -1.667492  2.246925  4.981630
H    -3.235455  2.026954  2.353138
H    -2.911557  3.598306  3.025342
H    -4.541920  1.387567  4.404188
H    -5.144275  2.865340  3.648457
H    -3.441062  2.643625  6.185699
H    -5.152790  3.048345  6.070840
H    -4.030918  5.074838  6.278368
H    -2.981486  4.760718  5.072446
N    -3.411270  -0.904193  3.793947
C    -4.479962  -1.635111  4.454581
H    -3.607856  -0.507198  2.880536
H    -4.958135  -2.313004  3.738670
H    -5.242494  -0.963042  4.879848
H    -4.049464  -2.216394  5.276124
