33
Energy: -18209.1470407 eV PBE+vdW (tier 2 basis)
C    -0.581016  1.148319  0.783703
C    0.244328  0.319429  1.747107
O    1.375611  0.644593  2.103874
H    -1.486726  1.541793  1.266500
H    -0.911926  0.557229  -0.081577
H    0.034401  1.983453  0.440393
N    -0.325476  -0.839942  2.216476
C    -1.685568  -1.314327  2.011039
C    -2.795275  -0.460390  2.672700
O    -3.843157  -0.265791  2.057132
H    0.271706  -1.348873  2.861845
H    -1.935999  -1.243025  0.941882
C    -1.838185  -2.790928  2.427468
C    -1.302856  -3.823201  1.423964
C    0.215819  -3.862725  1.229570
C    0.661111  -4.994147  0.304492
N    2.124726  -5.034886  0.205288
H    -2.912362  -2.975140  2.569556
H    -1.368942  -2.942706  3.414888
H    -1.798037  -3.655680  0.453180
H    -1.640204  -4.816579  1.762757
H    0.722846  -3.989812  2.200238
H    0.572555  -2.905233  0.818065
H    0.146178  -4.883210  -0.671891
H    0.329648  -5.957886  0.722928
H    2.423638  -5.810225  -0.386012
H    2.475197  -4.183112  -0.235886
N    -2.609325  0.055172  3.923876
C    -1.512214  -0.111876  4.867710
H    -3.409980  0.597555  4.232917
H    -1.216512  -1.164111  4.969625
H    -1.861289  0.220562  5.851752
H    -0.626490  0.479828  4.598930
