33
Energy: -18209.202187 eV PBE+vdW (tier 2 basis)
C    -0.399009  -0.987262  0.910557
C    -0.378068  0.081636  1.984214
O    0.663311  0.437025  2.528542
H    0.477451  -1.626020  1.053252
H    -0.314570  -0.508861  -0.075132
H    -1.308644  -1.598889  0.907896
N    -1.580275  0.656307  2.355423
C    -2.899633  0.532649  1.729417
C    -3.545145  -0.863822  1.939955
O    -4.372262  -1.312843  1.150396
H    -1.442363  1.438994  2.988918
H    -3.542425  1.205464  2.317646
C    -2.977338  0.977015  0.250603
C    -4.292353  1.679481  -0.135987
C    -4.307671  3.202320  0.058191
C    -4.143156  3.702440  1.494445
N    -4.263936  5.163665  1.539661
H    -2.844640  0.094455  -0.387304
H    -2.129785  1.651236  0.055074
H    -5.127793  1.211330  0.407013
H    -4.491718  1.476284  -1.197914
H    -5.265808  3.587981  -0.330075
H    -3.523389  3.668495  -0.559176
H    -3.135980  3.454170  1.866361
H    -4.866818  3.171752  2.149354
H    -5.205550  5.450044  1.267648
H    -4.115110  5.512474  2.486321
N    -3.165703  -1.496040  3.083943
C    -3.681895  -2.792968  3.472883
H    -2.418313  -1.067917  3.619832
H    -4.120113  -2.756620  4.479564
H    -2.894125  -3.559874  3.457943
H    -4.459797  -3.070746  2.753693
