33
Energy: -18209.4716883 eV PBE+vdW (tier 2 basis)
C    1.050838  -0.383715  0.255543
C    0.701329  -0.167043  1.714714
O    1.583150  0.045033  2.557490
H    1.638001  0.472801  -0.097239
H    0.180217  -0.517051  -0.397894
H    1.690441  -1.272225  0.179174
N    -0.625613  -0.221571  2.015388
C    -1.242834  -0.134590  3.350166
C    -1.194353  1.283985  3.978750
O    -2.240323  1.846342  4.306255
H    -1.264060  -0.344126  1.239658
H    -2.315152  -0.294591  3.180939
C    -0.732849  -1.229644  4.306001
C    -1.461704  -1.225264  5.653248
C    -1.050209  -2.373771  6.581992
C    0.400049  -2.308966  7.063067
N    0.680830  -3.407396  7.996362
H    0.348726  -1.109164  4.447988
H    -0.878204  -2.201657  3.807100
H    -2.547878  -1.277131  5.478552
H    -1.290296  -0.263307  6.162482
H    -1.216284  -3.345777  6.090776
H    -1.711194  -2.362329  7.464829
H    0.590701  -1.300187  7.484122
H    1.085278  -2.424034  6.210000
H    1.661491  -3.398798  8.276369
H    0.134977  -3.293113  8.851902
N    0.048993  1.790644  4.168623
C    0.274558  3.100068  4.746269
H    0.834301  1.249633  3.788887
H    0.970928  3.036431  5.593854
H    -0.687001  3.488002  5.099020
H    0.689187  3.800243  4.005914
