33
Energy: -18209.3543707 eV PBE+vdW (tier 2 basis)
C    0.162225  -0.645030  0.056352
C    0.087967  -0.209329  1.505829
O    1.084304  -0.046907  2.203999
H    -0.357825  0.055585  -0.611023
H    -0.304749  -1.630628  -0.082745
H    1.215625  -0.706958  -0.227428
N    -1.172533  0.012381  2.023996
C    -2.460327  -0.228028  1.380901
C    -2.842564  0.843565  0.334095
O    -3.624378  0.581204  -0.578112
H    -1.168783  0.199846  3.023738
H    -2.435569  -1.176741  0.823180
C    -3.542604  -0.333474  2.475441
C    -4.913740  -0.809139  1.986182
C    -5.988816  -0.808904  3.079647
C    -5.744511  -1.795768  4.222084
N    -6.854289  -1.754112  5.181613
H    -3.645251  0.649086  2.967777
H    -3.154166  -1.028742  3.236371
H    -4.813336  -1.822769  1.563765
H    -5.244449  -0.173636  1.154196
H    -6.957333  -1.050836  2.611332
H    -6.102815  0.201304  3.504219
H    -4.831888  -1.519129  4.772024
H    -5.558191  -2.801501  3.790904
H    -7.715908  -2.080764  4.741361
H    -6.675767  -2.379440  5.967253
N    -2.283917  2.067735  0.533836
C    -2.540156  3.200898  -0.332255
H    -1.591904  2.142356  1.272182
H    -2.954566  4.046351  0.233991
H    -3.269434  2.884049  -1.085624
H    -1.622925  3.531191  -0.840056
