33
Energy: -18209.4964062 eV PBE+vdW (tier 2 basis)
C    -1.115990  -0.214776  -0.608725
C    -0.784911  -0.199295  0.872180
O    0.211280  -0.760951  1.328493
H    -1.200663  -1.257377  -0.939185
H    -0.282184  0.236652  -1.160668
H    -2.041317  0.318107  -0.859783
N    -1.666278  0.482811  1.660432
C    -1.520167  0.562264  3.101454
C    -2.936295  0.578888  3.690770
O    -3.846079  1.205198  3.144963
H    -2.510081  0.901425  1.279261
H    -0.966249  -0.335156  3.418617
C    -0.718087  1.815571  3.520671
C    -0.439213  1.934737  5.020153
C    0.473141  3.120128  5.353249
C    0.675152  3.353447  6.851172
N    1.389183  2.236357  7.486394
H    -1.260198  2.705366  3.164021
H    0.233279  1.774716  2.969726
H    0.029240  0.999553  5.372934
H    -1.387408  2.043565  5.573363
H    0.043741  4.036471  4.916151
H    1.457145  2.970005  4.882238
H    -0.308341  3.573854  7.315803
H    1.292213  4.253523  6.986940
H    1.660269  2.483162  8.437794
H    0.785631  1.417759  7.566424
N    -3.090986  -0.120117  4.847648
C    -4.335943  -0.153741  5.591592
H    -2.286683  -0.617835  5.209867
H    -5.077665  0.411340  5.017700
H    -4.222740  0.309304  6.582217
H    -4.691797  -1.184955  5.719135
