33
Energy: -18209.4578181 eV PBE+vdW (tier 2 basis)
C    0.336875  -0.107936  0.078461
C    0.270942  0.125118  1.574522
O    1.297174  0.310267  2.242456
H    -0.624941  0.026185  -0.431904
H    0.680717  -1.137281  -0.096128
H    1.079047  0.569312  -0.357147
N    -0.976146  0.085038  2.115727
C    -1.335227  0.088734  3.544936
C    -1.168764  1.462183  4.245332
O    -2.101603  1.930365  4.899850
H    -1.746936  -0.025638  1.469366
H    -2.420493  -0.073630  3.564273
C    -0.671591  -1.028569  4.376688
C    -1.093200  -2.465033  4.040680
C    -0.537629  -3.053653  2.736640
C    -0.660302  -4.579426  2.664321
N    0.164977  -5.226469  3.692687
H    -0.945362  -0.819472  5.421825
H    0.421695  -0.932830  4.316960
H    -2.194778  -2.535841  4.035191
H    -0.751913  -3.113251  4.861246
H    0.525784  -2.775938  2.631204
H    -1.048586  -2.627882  1.860304
H    -0.423537  -4.907617  1.633163
H    -1.706865  -4.869134  2.850829
H    1.156027  -5.122520  3.470754
H    -0.022376  -6.227545  3.732139
N    0.051342  2.038353  4.114776
C    0.383969  3.303819  4.736525
H    0.750380  1.534004  3.557958
H    0.705195  4.039739  3.985866
H    1.189976  3.183872  5.475042
H    -0.510067  3.678306  5.246439
