33
Energy: -18209.1021354 eV PBE+vdW (tier 2 basis)
C    -1.441915  -1.526254  -0.258895
C    -0.530530  -1.279318  0.930419
O    0.477957  -1.948735  1.133201
H    -1.101926  -2.434292  -0.763138
H    -2.492035  -1.651043  0.041170
H    -1.390953  -0.687164  -0.967702
N    -0.895287  -0.276181  1.797729
C    -1.945157  0.702254  1.605375
C    -1.623191  1.697977  0.467118
O    -0.470587  2.018435  0.182303
H    -0.181744  -0.074064  2.491858
H    -2.860469  0.153726  1.335834
C    -2.265750  1.462043  2.915737
C    -1.356920  2.618493  3.373948
C    0.000405  2.287981  4.024774
C    1.220090  2.147902  3.099723
N    1.411799  3.344539  2.270601
H    -2.343309  0.704271  3.712011
H    -3.279513  1.873804  2.799844
H    -1.947199  3.169796  4.121179
H    -1.202137  3.334534  2.552412
H    -0.093002  1.378576  4.643998
H    0.233497  3.107627  4.720486
H    1.161179  1.230067  2.486566
H    2.103984  2.023103  3.742119
H    2.394490  3.435916  2.017251
H    0.904225  3.222313  1.391583
N    -2.688144  2.231970  -0.201241
C    -4.098373  1.897791  -0.077372
H    -2.417063  2.900298  -0.915763
H    -4.501684  2.142997  0.915490
H    -4.292031  0.834906  -0.284742
H    -4.656534  2.485622  -0.813376
