33
Energy: -18209.3931786 eV PBE+vdW (tier 2 basis)
C    0.851926  0.161122  0.579060
C    0.464864  0.122696  2.045247
O    1.317237  0.296078  2.926535
H    0.005507  0.074352  -0.112827
H    1.552286  -0.661471  0.384964
H    1.386159  1.097750  0.380107
N    -0.856833  -0.093633  2.290380
C    -1.579310  -0.353280  3.552880
C    -1.454223  0.658505  4.719926
O    -2.353245  0.660719  5.562537
H    -1.432367  -0.197013  1.463266
H    -2.635387  -0.226603  3.277078
C    -1.456598  -1.821009  4.031874
C    -0.068311  -2.362239  4.393683
C    0.561235  -1.794854  5.669152
C    1.877192  -2.493798  6.037388
N    2.568789  -1.998004  7.231711
H    -1.880845  -2.449515  3.232800
H    -2.134961  -1.914965  4.893382
H    0.625020  -2.219563  3.550447
H    -0.172403  -3.454200  4.510016
H    -0.150344  -1.887165  6.507266
H    0.763314  -0.721416  5.547603
H    2.578042  -2.413986  5.191172
H    1.695267  -3.571662  6.180245
H    1.951940  -2.049588  8.044189
H    2.804500  -1.011017  7.116190
N    -0.390753  1.493033  4.741109
C    -0.184735  2.399231  5.855218
H    0.405799  1.235516  4.143145
H    0.523697  3.179899  5.556692
H    0.210431  1.878441  6.742919
H    -1.138243  2.859701  6.136628
