33
Energy: -18209.0384214 eV PBE+vdW (tier 2 basis)
C    -1.020446  -0.513544  -1.619887
C    -0.167219  -0.070833  -0.454176
O    1.014663  0.250444  -0.605826
H    -1.462924  0.377598  -2.087208
H    -1.808294  -1.215582  -1.333709
H    -0.355181  -0.984076  -2.350812
N    -0.711767  0.002482  0.808914
C    -2.082150  -0.081713  1.294564
C    -2.616432  -1.533874  1.326613
O    -2.176560  -2.431053  0.615925
H    -0.011349  0.280833  1.488564
H    -2.014204  0.237335  2.346789
C    -3.074421  0.887098  0.592605
C    -3.177589  2.268441  1.257120
C    -1.924797  3.162693  1.263891
C    -1.591716  3.876603  -0.050432
N    -1.171999  2.953415  -1.112625
H    -4.075566  0.430702  0.583875
H    -2.779852  1.002933  -0.455208
H    -3.503675  2.125295  2.301739
H    -3.995155  2.822330  0.766438
H    -1.041887  2.594764  1.599645
H    -2.073802  3.945835  2.023848
H    -0.840667  4.661201  0.169822
H    -2.493299  4.402500  -0.404388
H    -0.264837  2.537349  -0.888828
H    -1.042105  3.460543  -1.987875
N    -3.633582  -1.779049  2.214560
C    -4.279336  -0.873425  3.148435
H    -3.977117  -2.732837  2.163103
H    -3.545530  -0.282064  3.713212
H    -4.977019  -0.176234  2.658767
H    -4.846558  -1.467189  3.873514
