33
Energy: -18209.2060163 eV PBE+vdW (tier 2 basis)
C    -0.421041  0.006998  -0.545654
C    -0.009805  0.019550  0.908494
O    1.167917  0.146360  1.235835
H    -1.442918  -0.332523  -0.733233
H    0.280962  -0.645787  -1.078035
H    -0.318901  1.017424  -0.967900
N    -0.960152  -0.181243  1.903748
C    -2.419864  -0.025958  1.916624
C    -3.169553  -0.944303  0.919849
O    -4.243162  -0.620801  0.419618
H    -0.515947  -0.102067  2.816216
H    -2.719451  -0.458639  2.887164
C    -2.936968  1.429779  1.961957
C    -2.434152  2.435594  0.919609
C    -3.080043  2.358037  -0.466439
C    -2.580605  3.442673  -1.423689
N    -1.133405  3.326395  -1.680641
H    -2.666872  1.813611  2.957811
H    -4.035182  1.376268  1.933904
H    -1.338647  2.355534  0.838903
H    -2.620050  3.443512  1.328020
H    -4.171795  2.455091  -0.360520
H    -2.909668  1.375868  -0.924583
H    -2.872079  4.438318  -1.032489
H    -3.095161  3.323985  -2.387867
H    -0.596260  3.723535  -0.909314
H    -0.876101  3.864372  -2.507339
N    -2.593010  -2.167018  0.751040
C    -3.145921  -3.179941  -0.124798
H    -1.671322  -2.300652  1.153557
H    -3.195041  -4.150850  0.385470
H    -2.549310  -3.292141  -1.042826
H    -4.158439  -2.867012  -0.400810
