33
Energy: -18209.4583808 eV PBE+vdW (tier 2 basis)
C    2.843335  -0.708561  2.504596
C    1.415133  -0.467594  2.062892
O    1.151737  0.128414  1.009492
H    3.348394  -1.312713  1.740297
H    2.926762  -1.218294  3.472197
H    3.366369  0.254010  2.558252
N    0.449085  -0.939033  2.894615
C    -0.982921  -0.921487  2.601874
C    -1.658944  0.456138  2.883046
O    -2.695322  0.566044  3.537966
H    0.734223  -1.367876  3.766933
H    -1.066900  -1.054202  1.510401
C    -1.707996  -2.095278  3.287384
C    -1.252423  -2.494297  4.702449
C    -1.444575  -1.472232  5.832594
C    -2.907161  -1.235665  6.258467
N    -3.638837  -2.388332  6.791989
H    -1.598225  -2.978236  2.641302
H    -2.775244  -1.836941  3.298532
H    -0.197480  -2.820487  4.678770
H    -1.795717  -3.416533  4.966890
H    -1.008053  -0.498556  5.557125
H    -0.877553  -1.822258  6.712309
H    -3.473865  -0.828969  5.411102
H    -2.915298  -0.448833  7.028068
H    -3.805517  -3.089600  6.070824
H    -3.112130  -2.848273  7.536211
N    -1.025634  1.499407  2.294794
C    -1.538283  2.853340  2.381445
H    -0.249907  1.281942  1.660817
H    -2.349803  3.035136  1.659505
H    -0.724680  3.560135  2.183743
H    -1.938569  3.031684  3.386120
