33
Energy: -18209.2267147 eV PBE+vdW (tier 2 basis)
C    -0.077543  0.936914  3.234106
C    0.062352  0.239448  1.896153
O    1.119825  -0.254595  1.510766
H    -0.729023  0.368363  3.912919
H    -0.518880  1.937652  3.131130
H    0.916671  1.019033  3.680075
N    -1.062055  0.178542  1.105371
C    -2.420309  0.570506  1.449458
C    -3.076807  -0.260866  2.574159
O    -3.737723  0.315906  3.443773
H    -0.909231  -0.302625  0.223058
H    -2.402173  1.585810  1.866533
C    -3.282915  0.576825  0.169744
C    -4.737769  1.054087  0.319217
C    -4.965003  2.572838  0.236505
C    -4.412920  3.429969  1.381332
N    -5.023179  3.080508  2.664379
H    -3.282125  -0.443818  -0.246235
H    -2.759772  1.208200  -0.566827
H    -5.176540  0.659721  1.248062
H    -5.317092  0.593412  -0.494545
H    -6.050816  2.746432  0.189615
H    -4.541923  2.944584  -0.712136
H    -4.664665  4.478609  1.162358
H    -3.301977  3.387316  1.377701
H    -4.645695  2.200637  3.029322
H    -4.819635  3.795592  3.361143
N    -2.938189  -1.616210  2.601653
C    -2.234815  -2.521890  1.702762
H    -3.409600  -2.028798  3.400888
H    -2.488763  -2.333797  0.652046
H    -2.557419  -3.542760  1.935218
H    -1.143551  -2.469603  1.816997
