33
Energy: -18209.5419297 eV PBE+vdW (tier 2 basis)
C    0.658143  -0.741622  1.411689
C    -0.260783  -1.218168  2.514140
O    -0.113404  -2.316970  3.061761
H    0.287779  0.147626  0.886115
H    0.809793  -1.553407  0.691938
H    1.632557  -0.504337  1.861044
N    -1.233122  -0.343147  2.903480
C    -2.119048  -0.604631  4.038243
C    -3.338912  -1.454461  3.580913
O    -4.458287  -0.973598  3.415154
H    -1.392338  0.493779  2.354126
H    -1.533123  -1.221867  4.734075
C    -2.573405  0.688184  4.714337
C    -1.480457  1.683716  5.131264
C    -0.437607  1.199802  6.153270
C    0.769538  0.415295  5.595563
N    1.598811  1.094715  4.594437
H    -3.158689  0.396278  5.599275
H    -3.295220  1.187268  4.049727
H    -1.999829  2.556689  5.553610
H    -0.961773  2.077070  4.239901
H    -0.934050  0.582821  6.922069
H    -0.042943  2.080431  6.686668
H    0.450863  -0.542466  5.162470
H    1.426191  0.150490  6.437899
H    1.984908  1.959774  4.976686
H    1.034924  1.364721  3.787891
N    -3.020002  -2.761524  3.383344
C    -3.963867  -3.720216  2.843687
H    -2.025643  -2.997416  3.425919
H    -3.923627  -4.659165  3.410888
H    -3.760770  -3.940483  1.784413
H    -4.968609  -3.292181  2.924004
