33
Energy: -18209.3806947 eV PBE+vdW (tier 2 basis)
C    0.232348  -0.371671  0.194388
C    0.231046  -0.277824  1.709591
O    1.279212  -0.227265  2.360901
H    0.652380  0.557231  -0.214693
H    -0.762823  -0.529973  -0.238369
H    0.895137  -1.190809  -0.108041
N    -0.997278  -0.222707  2.284245
C    -1.225414  -0.130466  3.714458
C    -2.713260  -0.457861  3.910435
O    -3.514975  -0.355232  2.976374
H    -1.853220  -0.253956  1.731892
H    -0.602410  -0.893214  4.208779
C    -0.857537  1.237988  4.351201
C    -1.467000  2.488982  3.692448
C    -0.742798  3.052573  2.455881
C    0.586432  3.773548  2.705781
N    1.608929  2.908236  3.305900
H    0.234463  1.325281  4.369192
H    -1.177378  1.202953  5.403120
H    -1.500879  3.283696  4.455162
H    -2.517190  2.291323  3.423332
H    -1.413137  3.781181  1.972888
H    -0.589610  2.260465  1.709273
H    0.410924  4.612572  3.400437
H    0.900940  4.228794  1.744101
H    2.504106  3.392639  3.357848
H    1.755564  2.060327  2.751911
N    -3.129746  -0.841638  5.149021
C    -2.352117  -1.051072  6.357674
H    -4.135507  -0.971306  5.204022
H    -2.817312  -1.848671  6.949437
H    -2.289728  -0.146212  6.981596
H    -1.332812  -1.370424  6.114453
