33
Energy: -18209.3757774 eV PBE+vdW (tier 2 basis)
C    -0.299983  0.695493  0.140190
C    -0.685816  0.031632  1.449017
O    -0.456859  -1.150559  1.677844
H    0.794610  0.772141  0.097088
H    -0.728024  1.697298  0.007933
H    -0.615346  0.054287  -0.690679
N    -1.323674  0.852893  2.355310
C    -1.557054  0.456432  3.739261
C    -3.053004  0.387736  4.120809
O    -3.402801  0.332201  5.297488
H    -1.346180  1.846529  2.148282
H    -1.185587  -0.580346  3.802258
C    -0.780215  1.334482  4.729027
C    0.738975  1.215951  4.579459
C    1.569890  1.944168  5.646551
C    1.385688  3.467041  5.725738
N    0.302300  3.852890  6.642270
H    -1.099837  1.041323  5.738289
H    -1.106919  2.380991  4.591832
H    1.043480  1.581151  3.584041
H    1.007908  0.147587  4.596310
H    2.629965  1.733487  5.438401
H    1.360109  1.525844  6.643601
H    1.271304  3.869518  4.696516
H    2.306795  3.913584  6.127572
H    0.254769  4.867863  6.731216
H    -0.607480  3.548294  6.296522
N    -3.918738  0.362998  3.070837
C    -5.347060  0.186892  3.238733
H    -3.514129  0.365352  2.141313
H    -5.562876  0.237657  4.311452
H    -5.679604  -0.789466  2.857340
H    -5.905605  0.978656  2.721180
