33
Energy: -18209.3160853 eV PBE+vdW (tier 2 basis)
C    -0.543261  0.332401  -0.481770
C    -1.042211  -0.044143  0.899820
O    -1.566438  -1.135030  1.128869
H    -1.388946  0.308227  -1.180392
H    0.177104  -0.425306  -0.813517
H    -0.069746  1.320788  -0.527227
N    -0.851459  0.902794  1.868469
C    -1.347437  0.739039  3.229453
C    -2.630876  1.578445  3.381335
O    -2.574966  2.810099  3.365791
H    -0.551788  1.832688  1.594767
H    -1.552028  -0.332761  3.333833
C    -0.313918  1.173843  4.275714
C    0.986953  0.368196  4.213862
C    1.976010  0.619017  5.362014
C    2.542013  2.041262  5.478971
N    1.665019  2.941050  6.244790
H    -0.775573  1.069395  5.270545
H    -0.130797  2.250427  4.135314
H    1.490382  0.564810  3.253713
H    0.736869  -0.705363  4.201718
H    2.820633  -0.074029  5.225190
H    1.512311  0.359152  6.327110
H    2.791280  2.414372  4.463620
H    3.492709  1.990889  6.029354
H    2.144881  3.820421  6.436284
H    0.826721  3.182939  5.716682
N    -3.809861  0.911511  3.509276
C    -4.046827  -0.527512  3.493274
H    -4.610575  1.527542  3.614849
H    -5.104722  -0.698950  3.265209
H    -3.829485  -0.996560  4.465388
H    -3.450357  -1.017720  2.713484
