33
Energy: -18209.4420465 eV PBE+vdW (tier 2 basis)
C    0.313978  1.226110  0.366164
C    0.053007  0.481788  1.660900
O    0.945440  0.293911  2.495370
H    -0.566746  1.305479  -0.282127
H    1.117412  0.714333  -0.177835
H    0.674161  2.233879  0.608486
N    -1.220875  0.047260  1.839439
C    -1.664671  -0.706850  2.995580
C    -3.000117  -1.345283  2.585629
O    -3.632433  -0.933316  1.609873
H    -1.941722  0.175214  1.129509
H    -0.920027  -1.493694  3.198841
C    -1.819446  0.168803  4.278994
C    -0.705462  -0.041841  5.313920
C    -0.531508  1.134806  6.281902
C    0.031898  2.417841  5.633414
N    1.337285  2.324668  4.982854
H    -2.802176  -0.004435  4.743872
H    -1.834850  1.212267  3.936908
H    0.240717  -0.210995  4.779979
H    -0.905586  -0.959489  5.889054
H    0.149293  0.827383  7.092981
H    -1.494063  1.375706  6.767505
H    0.088696  3.198261  6.408656
H    -0.679069  2.802429  4.884899
H    1.314239  1.681136  4.187598
H    2.041552  1.971223  5.631579
N    -3.466779  -2.372114  3.348433
C    -2.871650  -2.960999  4.535506
H    -4.384540  -2.698337  3.061847
H    -3.231772  -3.990849  4.638804
H    -3.124306  -2.410076  5.454686
H    -1.779585  -2.998572  4.448047
