33
Energy: -18209.2797723 eV PBE+vdW (tier 2 basis)
C    -0.251634  -0.360566  1.639114
C    -1.059391  -0.178082  2.907689
O    -0.692769  0.581971  3.800590
H    0.808117  -0.272500  1.899673
H    -0.492125  0.459312  0.948278
H    -0.428312  -1.308445  1.119775
N    -2.225411  -0.903342  3.060118
C    -2.991370  -1.674039  2.072428
C    -2.326450  -3.030262  1.701952
O    -2.640846  -3.638961  0.682446
H    -2.718324  -0.631715  3.906082
H    -3.905528  -1.974566  2.612450
C    -3.454563  -0.914280  0.818422
C    -4.455920  0.221681  1.058120
C    -3.899113  1.512493  1.673350
C    -4.865591  2.696303  1.564242
N    -5.086804  3.075248  0.161225
H    -3.908629  -1.672818  0.167513
H    -2.584021  -0.535426  0.262764
H    -5.289782  -0.148862  1.680437
H    -4.900926  0.488121  0.088357
H    -2.952962  1.782183  1.171307
H    -3.641019  1.378464  2.733457
H    -4.486206  3.524325  2.193031
H    -5.841742  2.406675  1.985128
H    -5.842097  3.755612  0.085627
H    -4.252761  3.525026  -0.218873
N    -1.438609  -3.498786  2.620462
C    -0.752709  -4.766321  2.474080
H    -1.231588  -2.896804  3.410082
H    -0.957746  -5.428401  3.326748
H    0.334366  -4.625267  2.390008
H    -1.121709  -5.239803  1.557853
