33
Energy: -18209.2983147 eV PBE+vdW (tier 2 basis)
C    0.024134  0.909360  0.726518
C    0.295916  0.250321  2.069378
O    1.374354  0.388436  2.644515
H    -0.903301  1.498655  0.727446
H    -0.053521  0.163395  -0.076327
H    0.865918  1.571652  0.508676
N    -0.695770  -0.517258  2.618571
C    -2.012395  -0.839650  2.101237
C    -3.011949  -0.688577  3.264751
O    -2.720936  -1.059959  4.399124
H    -0.494145  -0.884908  3.547506
H    -2.256650  -0.123184  1.303569
C    -2.143209  -2.276038  1.535514
C    -1.297555  -2.586851  0.290397
C    0.163890  -2.969426  0.555274
C    0.960234  -3.204286  -0.736393
N    2.367954  -3.576189  -0.578373
H    -3.207579  -2.429087  1.295474
H    -1.908096  -2.985849  2.343939
H    -1.340650  -1.730104  -0.404281
H    -1.779027  -3.418714  -0.248693
H    0.189355  -3.886392  1.168544
H    0.672606  -2.197503  1.149471
H    0.926054  -2.290966  -1.353564
H    0.470840  -3.988808  -1.336627
H    2.448939  -4.440820  -0.041271
H    2.864244  -2.861347  -0.043601
N    -4.223716  -0.164734  2.926835
C    -5.313031  -0.022951  3.876209
H    -4.367265  0.133592  1.969787
H    -5.617293  1.027815  3.975901
H    -4.951508  -0.381621  4.845515
H    -6.184586  -0.620911  3.575524
