33
Energy: -18209.3233862 eV PBE+vdW (tier 2 basis)
C    0.628581  0.954530  2.918620
C    -0.213565  -0.098597  2.227088
O    0.229084  -1.194954  1.897910
H    0.176449  1.289048  3.862359
H    0.746761  1.843155  2.281930
H    1.613994  0.526163  3.117367
N    -1.533528  0.224892  1.982619
C    -2.196118  1.504320  2.213055
C    -2.592717  1.740680  3.687783
O    -2.788620  2.878189  4.114452
H    -2.021142  -0.469502  1.421552
H    -1.512499  2.325981  1.955521
C    -3.438616  1.582361  1.298527
C    -4.129617  2.947191  1.181246
C    -3.272192  4.046841  0.519963
C    -2.665301  5.051122  1.501791
N    -1.752606  5.964738  0.801594
H    -4.167052  0.830036  1.644569
H    -3.112157  1.268022  0.293470
H    -4.468938  3.282232  2.172266
H    -5.041049  2.785947  0.587754
H    -3.888973  4.601973  -0.205317
H    -2.456858  3.598362  -0.071021
H    -2.092679  4.525233  2.277959
H    -3.490751  5.561356  2.037504
H    -2.268249  6.545956  0.138233
H    -1.315858  6.605858  1.463913
N    -2.738032  0.612809  4.433270
C    -3.126760  0.636232  5.828933
H    -2.474885  -0.263861  3.995223
H    -2.331508  0.233077  6.471741
H    -4.043828  0.054119  5.994379
H    -3.311802  1.680185  6.104254
