33
Energy: -18209.2693874 eV PBE+vdW (tier 2 basis)
C    -0.727285  0.221355  0.009780
C    -0.611279  -0.367835  1.400849
O    0.235622  -1.210913  1.686784
H    -0.536059  -0.563001  -0.729709
H    0.053532  0.988765  -0.093414
H    -1.702975  0.682877  -0.190923
N    -1.505506  0.136955  2.316331
C    -1.357712  -0.103876  3.744698
C    -2.528006  -0.827808  4.436686
O    -2.287281  -1.676539  5.292151
H    -2.047959  0.937321  2.013627
H    -0.537524  -0.828069  3.819650
C    -0.983075  1.177417  4.525547
C    0.277761  1.873494  3.998640
C    1.571033  1.064084  4.157371
C    2.698804  1.532936  3.234614
N    2.335829  1.317655  1.825271
H    -0.857973  0.889452  5.580592
H    -1.828973  1.885232  4.499688
H    0.385583  2.838577  4.518283
H    0.148943  2.115379  2.933030
H    1.384902  0.000368  3.940936
H    1.916623  1.104965  5.201851
H    3.632181  1.017636  3.532659
H    2.875652  2.611871  3.376970
H    2.175153  0.321269  1.657115
H    3.098740  1.605047  1.213088
N    -3.824004  -0.492764  4.141047
C    -4.355759  0.512567  3.239142
H    -4.490301  -1.048370  4.668182
H    -5.403822  0.693685  3.503154
H    -4.321549  0.200531  2.184005
H    -3.833253  1.473841  3.345726
