33
Energy: -18208.9511388 eV PBE+vdW (tier 2 basis)
C    -0.394779  0.696929  -0.199727
C    -0.513670  0.839242  1.304622
O    -0.159618  1.858535  1.896235
H    -1.162824  1.326731  -0.668669
H    -0.519461  -0.332960  -0.556407
H    0.583528  1.074854  -0.516163
N    -1.048494  -0.236268  1.957438
C    -1.420326  -0.196461  3.373880
C    -2.228710  1.107491  3.647890
O    -3.293308  1.227509  3.041455
H    -1.454065  -0.971530  1.392464
H    -2.230812  -0.933578  3.467480
C    -0.298972  -0.684219  4.321406
C    1.143535  -0.276890  3.997647
C    2.145439  -0.644116  5.098742
C    2.305889  -2.144034  5.349944
N    3.332953  -2.386279  6.370513
H    -0.355497  -1.784078  4.321723
H    -0.564128  -0.386411  5.348185
H    1.445122  -0.757909  3.053564
H    1.201499  0.800454  3.806181
H    3.130562  -0.230715  4.824216
H    1.868615  -0.157701  6.048293
H    2.505592  -2.647790  4.381084
H    1.363882  -2.565739  5.732048
H    3.413261  -3.382680  6.572687
H    4.247682  -2.084719  6.031014
N    -1.887522  2.007286  4.621489
C    -0.567529  2.403305  5.099665
H    -2.593633  2.738091  4.655948
H    -0.688075  3.325382  5.678454
H    0.117325  2.597796  4.263963
H    -0.125551  1.654287  5.767898
