33
Energy: -18209.5333053 eV PBE+vdW (tier 2 basis)
C    0.489878  -1.835827  0.862229
C    -0.067502  -1.032402  2.022210
O    0.011444  -1.423387  3.186781
H    1.563319  -1.992954  1.025658
H    0.343034  -1.359558  -0.114738
H    0.012444  -2.823495  0.857268
N    -0.640147  0.161853  1.680446
C    -1.354577  0.982245  2.638920
C    -2.656825  1.440132  1.963984
O    -2.730699  1.575949  0.741911
H    -0.845809  0.375611  0.706801
H    -1.564557  0.342206  3.510862
C    -0.541214  2.213531  3.101462
C    0.769487  1.852273  3.801375
C    1.532024  3.075778  4.312749
C    2.878360  2.740664  4.979309
N    2.845259  1.917173  6.190972
H    -1.171906  2.810509  3.780880
H    -0.342808  2.849483  2.223505
H    1.410525  1.287937  3.105811
H    0.552299  1.163809  4.633044
H    0.904727  3.632953  5.031145
H    1.722746  3.768398  3.474601
H    3.394180  3.680328  5.230253
H    3.524522  2.225508  4.250415
H    2.457361  0.994114  5.995023
H    2.245379  2.342504  6.899417
N    -3.680874  1.716298  2.815915
C    -4.961155  2.237193  2.373823
H    -3.541178  1.532547  3.802285
H    -4.914232  2.346296  1.285478
H    -5.168399  3.218117  2.823726
H    -5.778642  1.548469  2.627596
