33
Energy: -18209.1334271 eV PBE+vdW (tier 2 basis)
C    0.207664  -0.597622  1.551365
C    -0.530908  0.257060  2.559211
O    0.039527  0.770328  3.520247
H    -0.377138  -1.436451  1.157307
H    1.120509  -0.965509  2.028073
H    0.497045  0.031221  0.697223
N    -1.875830  0.492183  2.369264
C    -2.813785  -0.020231  1.364609
C    -2.885735  -1.570212  1.381838
O    -2.577406  -2.250028  0.403879
H    -2.248050  1.126316  3.069454
H    -3.799902  0.340298  1.701157
C    -2.584198  0.522966  -0.051882
C    -3.822598  0.422884  -0.946572
C    -3.573411  0.946557  -2.362136
C    -4.801506  0.847934  -3.264703
N    -4.515471  1.398216  -4.596359
H    -1.753457  -0.022958  -0.519529
H    -2.274994  1.574479  0.045260
H    -4.651354  0.990541  -0.487497
H    -4.149594  -0.626861  -0.997730
H    -2.745697  0.374648  -2.816100
H    -3.242202  1.996666  -2.332367
H    -5.620140  1.443482  -2.830009
H    -5.152445  -0.203904  -3.279993
H    -5.350868  1.372554  -5.181112
H    -3.815581  0.825557  -5.071129
N    -3.310263  -2.156095  2.540086
C    -3.678520  -1.534683  3.801213
H    -3.284729  -3.170288  2.501381
H    -2.804186  -1.205779  4.381617
H    -4.239548  -2.263965  4.396122
H    -4.336825  -0.669902  3.642562
