33
Energy: -18209.4863428 eV PBE+vdW (tier 2 basis)
C    -0.475647  0.041230  0.027043
C    -0.919613  -0.893878  1.131932
O    -1.123203  -2.096785  0.926343
H    -1.213542  0.008701  -0.783896
H    0.474541  -0.325863  -0.380770
H    -0.344951  1.080260  0.353063
N    -1.074397  -0.332701  2.363059
C    -1.447109  -1.101039  3.552254
C    -2.990177  -1.271672  3.630273
O    -3.679806  -0.668999  4.451315
H    -0.979301  0.671996  2.460786
H    -1.003125  -2.099627  3.415255
C    -0.893088  -0.452317  4.817498
C    0.638003  -0.427972  4.878157
C    1.239913  0.017992  6.218612
C    0.925907  1.461856  6.665901
N    -0.343019  1.721277  7.353178
H    -1.299031  -1.005403  5.676568
H    -1.318389  0.560506  4.897207
H    1.035036  0.221964  4.080542
H    1.013544  -1.438531  4.646560
H    2.334789  -0.085505  6.141837
H    0.927362  -0.675642  7.018064
H    0.976466  2.132253  5.791463
H    1.726075  1.798851  7.342086
H    -0.404340  1.166986  8.207851
H    -1.143206  1.454710  6.781033
N    -3.470369  -2.143599  2.704876
C    -4.887257  -2.389847  2.524660
H    -2.799678  -2.496424  2.017355
H    -5.091191  -3.468312  2.491933
H    -5.263178  -1.933318  1.596588
H    -5.420019  -1.948148  3.373375
