33
Energy: -18209.5657079 eV PBE+vdW (tier 2 basis)
C    -4.284613  3.860896  1.693015
C    -3.119765  2.907169  1.879336
O    -2.185026  2.855005  1.078659
H    -3.898236  4.887274  1.661892
H    -5.043862  3.788917  2.481068
H    -4.752384  3.658543  0.721626
N    -3.176464  2.133079  3.004035
C    -2.228212  1.069780  3.273003
C    -3.034970  -0.158383  3.721222
O    -4.119470  -0.037646  4.292664
H    -4.036279  2.077452  3.545828
H    -1.700916  0.866208  2.328770
C    -1.206585  1.447596  4.373950
C    -0.321428  2.650942  4.033184
C    0.656697  2.420738  2.878162
C    1.520129  3.653803  2.575691
N    2.454933  3.537701  1.452606
H    -0.574210  0.567931  4.578170
H    -1.770618  1.647003  5.298296
H    0.239998  2.927261  4.940649
H    -0.962331  3.516393  3.801056
H    0.096526  2.163622  1.965968
H    1.315783  1.565416  3.112255
H    2.102516  3.929277  3.470236
H    0.858478  4.509308  2.367596
H    1.942796  3.334157  0.592728
H    3.091511  2.752679  1.599463
N    -2.441283  -1.357413  3.475676
C    -3.009069  -2.624126  3.898516
H    -1.566020  -1.358455  2.965512
H    -3.214072  -3.274093  3.036839
H    -3.951557  -2.407546  4.411785
H    -2.336995  -3.150489  4.590544
