33
Energy: -18209.2436876 eV PBE+vdW (tier 2 basis)
C    -0.553621  -0.149438  0.104894
C    -0.046519  0.130054  1.511760
O    1.078042  -0.207543  1.875349
H    -0.728219  0.785412  -0.447530
H    -1.495038  -0.716190  0.103920
H    0.213569  -0.726606  -0.417609
N    -0.891927  0.799234  2.357181
C    -2.278386  1.172991  2.123775
C    -2.524975  2.454360  2.938514
O    -2.197851  2.505478  4.123659
H    -0.542791  0.958819  3.300681
H    -2.409248  1.365128  1.051430
C    -3.267471  0.069325  2.558765
C    -4.725496  0.358412  2.198964
C    -5.703591  -0.735337  2.650178
C    -5.448237  -2.124074  2.054905
N    -5.415063  -2.079669  0.585867
H    -3.155818  -0.077002  3.644510
H    -2.939005  -0.861310  2.074146
H    -4.809158  0.478180  1.107555
H    -5.040757  1.310988  2.653467
H    -6.728775  -0.420372  2.391851
H    -5.684358  -0.823165  3.748289
H    -6.205462  -2.820571  2.463802
H    -4.471780  -2.501415  2.393931
H    -5.174256  -2.994876  0.206280
H    -6.339606  -1.849984  0.217381
N    -3.125455  3.508281  2.316059
C    -3.495838  3.641389  0.915000
H    -3.249163  4.313717  2.921951
H    -3.921295  4.639768  0.768614
H    -4.256831  2.908372  0.615057
H    -2.628330  3.548042  0.245447
