33
Energy: -18209.5118357 eV PBE+vdW (tier 2 basis)
C    2.605296  0.761829  0.932597
C    1.391609  0.006529  1.441349
O    0.939022  -0.979586  0.857896
H    2.879483  1.624502  1.552073
H    2.403707  1.103327  -0.090219
H    3.456010  0.070630  0.884927
N    0.839342  0.492558  2.590180
C    -0.343957  -0.093876  3.189255
C    -1.099424  1.043556  3.887545
O    -0.495621  1.962582  4.443406
H    1.191880  1.330947  3.044050
H    -0.939125  -0.523922  2.370292
C    0.037982  -1.214016  4.189684
C    -1.124834  -1.994426  4.813252
C    -1.979440  -2.785162  3.817808
C    -3.061465  -3.660207  4.476360
N    -2.610138  -4.771442  5.316696
H    0.647921  -0.756451  4.983068
H    0.691994  -1.907019  3.639711
H    -1.769574  -1.317453  5.398489
H    -0.689948  -2.694348  5.544781
H    -1.326962  -3.419228  3.193765
H    -2.483854  -2.103281  3.110581
H    -3.703613  -4.082777  3.688747
H    -3.717951  -3.025433  5.094226
H    -2.066558  -4.436669  6.112067
H    -2.001781  -5.398336  4.788238
N    -2.455417  0.937467  3.866848
C    -3.333591  1.871042  4.546849
H    -2.862223  0.158335  3.362977
H    -4.011603  2.365583  3.838002
H    -2.703555  2.628790  5.023850
H    -3.931610  1.364956  5.317650
