33
Energy: -18209.5605662 eV PBE+vdW (tier 2 basis)
C    -0.439056  0.161661  0.174595
C    -0.700354  -0.858590  1.262518
O    -0.308935  -2.028324  1.167209
H    0.644985  0.247032  0.028307
H    -0.847995  1.155662  0.393129
H    -0.867869  -0.204612  -0.766294
N    -1.385151  -0.409413  2.350544
C    -1.682505  -1.248164  3.513419
C    -2.970039  -2.082859  3.266025
O    -4.036233  -1.835762  3.826504
H    -1.760982  0.532234  2.341090
H    -0.838333  -1.950368  3.598816
C    -1.790557  -0.403941  4.780023
C    -0.475014  0.256146  5.199965
C    -0.607277  1.099083  6.471349
C    0.709269  1.761409  6.902776
N    0.665867  2.583694  8.115009
H    -2.159318  -1.056817  5.583758
H    -2.581358  0.352036  4.644280
H    -0.090290  0.889143  4.382923
H    0.288917  -0.524408  5.355853
H    -0.980234  0.467847  7.296056
H    -1.370594  1.881626  6.318713
H    1.084623  2.395699  6.083339
H    1.475897  0.984743  7.054970
H    -0.017926  3.335047  8.011768
H    0.358585  2.025436  8.912899
N    -2.777996  -3.092678  2.375771
C    -3.858236  -3.941464  1.914131
H    -1.870312  -3.121121  1.904569
H    -4.143399  -3.707779  0.877126
H    -4.724558  -3.771906  2.562261
H    -3.568625  -4.999293  1.967598
