33
Energy: -18209.0986689 eV PBE+vdW (tier 2 basis)
C    -0.079284  0.247087  0.065844
C    -0.089464  -0.063937  1.552034
O    0.909115  -0.459115  2.143574
H    -1.027236  0.650285  -0.312706
H    0.159896  -0.673213  -0.481885
H    0.721893  0.967378  -0.138271
N    -1.296017  0.142794  2.180120
C    -1.522127  -0.248065  3.571028
C    -2.774876  -1.128815  3.731311
O    -2.684351  -2.244614  4.234880
H    -2.088946  0.371438  1.594701
H    -0.689752  -0.920327  3.816489
C    -1.491307  0.921503  4.577819
C    -0.131298  1.617965  4.658071
C    -0.104905  2.742355  5.695017
C    1.248248  3.445371  5.782785
N    1.203746  4.543090  6.759038
H    -1.753249  0.506309  5.564674
H    -2.268797  1.663696  4.339247
H    0.130459  2.025397  3.668722
H    0.644708  0.870999  4.886260
H    -0.363072  2.332462  6.687532
H    -0.875486  3.496085  5.466255
H    1.492113  3.883726  4.802317
H    2.033256  2.691210  5.991649
H    1.070158  4.171070  7.700871
H    2.092943  5.042861  6.773724
N    -3.994187  -0.670491  3.286329
C    -4.432821  0.674016  2.948741
H    -4.729355  -1.347148  3.476070
H    -5.158891  0.632681  2.125813
H    -3.595436  1.297804  2.623004
H    -4.905057  1.184312  3.803555
