33
Energy: -18209.478115 eV PBE+vdW (tier 2 basis)
C    -2.945545  0.825598  0.444532
C    -2.050803  0.641988  1.654285
O    -0.821231  0.557087  1.533944
H    -2.590824  1.689517  -0.129996
H    -4.005199  0.965710  0.689998
H    -2.846042  -0.058169  -0.198906
N    -2.688914  0.579340  2.854555
C    -2.095160  0.272973  4.167673
C    -1.227290  1.403264  4.776720
O    -1.429597  1.767125  5.936118
H    -3.693959  0.696189  2.841571
H    -2.947720  0.209276  4.855861
C    -1.346728  -1.073682  4.200604
C    -2.233735  -2.273831  3.856933
C    -1.522018  -3.629904  3.945178
C    -0.442009  -3.849257  2.885313
N    0.087616  -5.218131  2.970989
H    -0.947951  -1.187098  5.220744
H    -0.483642  -1.022985  3.524771
H    -2.645376  -2.151030  2.841578
H    -3.100684  -2.283858  4.537945
H    -2.259853  -4.440206  3.846125
H    -1.075724  -3.743678  4.948858
H    0.337711  -3.068710  2.972927
H    -0.891156  -3.728565  1.886537
H    0.785296  -5.374876  2.243258
H    0.570550  -5.352183  3.861173
N    -0.248665  1.886559  3.972748
C    0.673657  2.917063  4.404621
H    -0.167945  1.477119  3.035250
H    0.648934  3.777589  3.721513
H    1.704488  2.536004  4.448977
H    0.375152  3.244170  5.406321
