33
Energy: -18209.5035419 eV PBE+vdW (tier 2 basis)
C    0.631773  0.367880  0.717337
C    0.499682  0.468504  2.225794
O    1.368631  0.986015  2.928437
H    0.739981  1.378555  0.304389
H    -0.218897  -0.126952  0.233131
H    1.551132  -0.181937  0.480760
N    -0.654411  -0.041723  2.746492
C    -0.882666  -0.122891  4.173278
C    -1.842979  -1.303427  4.402228
O    -2.456285  -1.829747  3.472178
H    -1.295252  -0.597528  2.182927
H    0.084819  -0.329896  4.660065
C    -1.435515  1.196075  4.768068
C    -2.818248  1.587314  4.242168
C    -3.308996  2.955490  4.729638
C    -3.574692  3.034011  6.233704
N    -4.117479  4.349510  6.591884
H    -0.701162  1.981917  4.537301
H    -1.448939  1.103066  5.865649
H    -2.786072  1.594091  3.142424
H    -3.555706  0.814482  4.517616
H    -2.587386  3.741129  4.456108
H    -4.243837  3.201844  4.198586
H    -2.632235  2.910377  6.788721
H    -4.225931  2.182931  6.524990
H    -5.035476  4.483048  6.165023
H    -4.252222  4.423668  7.600009
N    -1.976326  -1.689957  5.699232
C    -2.882812  -2.740354  6.123326
H    -1.419099  -1.214642  6.399037
H    -3.637931  -2.355279  6.822861
H    -2.338622  -3.564529  6.604656
H    -3.386717  -3.122303  5.229678
