33
Energy: -18209.1235465 eV PBE+vdW (tier 2 basis)
C    0.174446  -0.359153  0.029271
C    0.154421  -0.174010  1.538822
O    1.198062  -0.104969  2.186649
H    0.836324  0.397777  -0.407635
H    -0.811302  -0.294150  -0.447996
H    0.609555  -1.341764  -0.194615
N    -1.100098  -0.097648  2.083236
C    -1.525926  -0.024448  3.487870
C    -2.068003  1.359716  3.925506
O    -3.171734  1.407538  4.473206
H    -1.865732  -0.157353  1.422719
H    -2.437007  -0.638135  3.541693
C    -0.552333  -0.598487  4.531592
C    -0.310213  -2.102016  4.370856
C    0.656264  -2.691414  5.408182
C    0.223123  -2.546430  6.869708
N    -1.052395  -3.231081  7.127264
H    -1.021279  -0.392862  5.506190
H    0.404337  -0.063230  4.514373
H    0.102926  -2.299547  3.371720
H    -1.274482  -2.636297  4.412180
H    1.642820  -2.215339  5.288369
H    0.789810  -3.762186  5.192126
H    0.215390  -1.474590  7.151963
H    0.984881  -3.022911  7.504012
H    -1.252074  -3.240545  8.127286
H    -1.826572  -2.728371  6.691346
N    -1.330673  2.489915  3.739489
C    -0.020679  2.680776  3.140307
H    -1.823492  3.318104  4.061353
H    0.497358  3.491477  3.667600
H    -0.089506  2.949670  2.074057
H    0.594014  1.778653  3.219864
