33
Energy: -18209.4175203 eV PBE+vdW (tier 2 basis)
C    0.697575  0.014041  -0.433782
C    0.299220  -0.070450  1.024017
O    0.874223  -0.798172  1.833146
H    1.156041  -0.931539  -0.737613
H    1.440720  0.818944  -0.534498
H    -0.147234  0.248277  -1.094663
N    -0.696986  0.794931  1.394254
C    -1.252315  0.819890  2.732931
C    -2.781660  0.850298  2.577632
O    -3.313642  1.379208  1.600034
H    -1.305043  1.201956  0.685487
H    -0.926797  -0.106409  3.233301
C    -0.798279  2.037039  3.577843
C    0.622448  1.972555  4.163959
C    1.838133  2.166309  3.240679
C    1.893507  3.492168  2.466634
N    1.343851  3.369476  1.106064
H    -1.498046  2.126352  4.424158
H    -0.946376  2.950717  2.980072
H    0.738131  1.007276  4.683037
H    0.673314  2.743466  4.950801
H    1.935333  1.330789  2.535185
H    2.726847  2.108114  3.887432
H    2.944518  3.796604  2.354339
H    1.406353  4.285109  3.071892
H    1.341971  4.278306  0.641819
H    0.374935  3.051576  1.136469
N    -3.478600  0.292868  3.603910
C    -4.928184  0.295175  3.671482
H    -2.954170  -0.160990  4.342370
H    -5.284360  0.828639  4.563791
H    -5.325958  -0.728819  3.685761
H    -5.298825  0.807159  2.777551
