33
Energy: -18209.0940824 eV PBE+vdW (tier 2 basis)
C    -0.402335  0.861886  0.479746
C    0.202196  0.003659  1.573721
O    1.412933  -0.014236  1.796694
H    -1.208754  1.506330  0.855772
H    -0.820281  0.238673  -0.323405
H    0.392207  1.485820  0.062930
N    -0.656448  -0.753231  2.330105
C    -2.047668  -1.099689  2.037074
C    -2.779201  -1.312930  3.383985
O    -3.228132  -2.405119  3.722806
H    -0.166568  -1.362364  2.983183
H    -2.507632  -0.220319  1.560605
C    -2.231001  -2.303101  1.088890
C    -1.333237  -3.525401  1.350398
C    0.104685  -3.404750  0.794897
C    1.198624  -3.664373  1.834411
N    2.508923  -3.271506  1.316757
H    -2.066676  -1.953605  0.057307
H    -3.287048  -2.598588  1.157112
H    -1.312998  -3.730519  2.431494
H    -1.826636  -4.400697  0.906772
H    0.255841  -4.092806  -0.048750
H    0.268484  -2.400473  0.376651
H    1.226942  -4.737580  2.079702
H    0.924764  -3.148557  2.781384
H    2.565759  -2.250839  1.281950
H    3.251002  -3.581698  1.943435
N    -2.898521  -0.215867  4.192066
C    -2.462572  1.149617  3.950365
H    -3.351800  -0.422809  5.076303
H    -1.371968  1.262914  4.025230
H    -2.934392  1.799808  4.694904
H    -2.779876  1.503980  2.959515
