33
Energy: -18209.3923507 eV PBE+vdW (tier 2 basis)
C    -0.135031  0.901778  3.031757
C    0.196422  -0.563898  2.820748
O    1.244441  -1.065496  3.218473
H    -1.099795  1.036468  3.539922
H    -0.186989  1.439304  2.074032
H    0.660168  1.341692  3.638689
N    -0.744846  -1.331736  2.169866
C    -2.007943  -0.909883  1.584226
C    -3.238198  -1.070061  2.515221
O    -4.360176  -0.765573  2.115708
H    -0.446732  -2.292861  2.018963
H    -1.955471  0.174101  1.409570
C    -2.254494  -1.558652  0.205354
C    -2.113895  -3.085017  0.121348
C    -3.099892  -3.894333  0.970624
C    -2.980187  -5.405377  0.765992
N    -1.680157  -5.911662  1.234269
H    -1.551376  -1.100919  -0.505845
H    -3.266366  -1.258946  -0.100917
H    -1.078793  -3.378888  0.367587
H    -2.243643  -3.365371  -0.937291
H    -4.127692  -3.578254  0.733762
H    -2.945810  -3.689309  2.040662
H    -3.192783  -5.647462  -0.295219
H    -3.758938  -5.902971  1.361423
H    -0.943820  -5.705251  0.559098
H    -1.704571  -6.927003  1.321756
N    -2.968363  -1.512500  3.771441
C    -4.001728  -1.734136  4.762106
H    -2.009490  -1.776299  3.971885
H    -3.762534  -1.217112  5.700868
H    -4.133137  -2.805876  4.971707
H    -4.939386  -1.336028  4.359412
