33
Energy: -18209.574477 eV PBE+vdW (tier 2 basis)
C    -1.084601  -0.810091  -0.524589
C    -1.127026  -1.292198  0.910178
O    -1.069230  -2.494158  1.196366
H    -0.153141  -1.162244  -0.985078
H    -1.142342  0.280428  -0.626215
H    -1.915195  -1.266793  -1.076782
N    -1.222859  -0.323325  1.863489
C    -1.240881  -0.621976  3.296690
C    -2.686405  -0.991895  3.734429
O    -3.425095  -0.195764  4.312130
H    -1.356345  0.640253  1.577970
H    -0.603137  -1.509639  3.426775
C    -0.682626  0.549619  4.099022
C    -0.405660  0.199494  5.563360
C    0.154449  1.378713  6.360964
C    0.446129  1.061630  7.837812
N    1.488742  0.070668  8.122699
H    -1.400277  1.384175  4.054343
H    0.250059  0.883111  3.616548
H    0.302118  -0.646139  5.599441
H    -1.338225  -0.145969  6.035894
H    -0.563993  2.214964  6.320586
H    1.080269  1.746126  5.883582
H    -0.479495  0.715041  8.324536
H    0.727552  1.993279  8.352008
H    1.239792  -0.842246  7.741739
H    2.370077  0.339782  7.682639
N    -3.031054  -2.262545  3.396241
C    -4.371297  -2.780951  3.589122
H    -2.383156  -2.756203  2.777830
H    -4.331065  -3.809403  3.969912
H    -4.950927  -2.774555  2.653142
H    -4.883155  -2.144187  4.318218
