33
Energy: -18209.0530277 eV PBE+vdW (tier 2 basis)
C    -0.148013  0.376242  0.192127
C    -0.111536  0.374721  1.710776
O    0.930117  0.540326  2.342000
H    0.176238  -0.609921  -0.171595
H    0.565018  1.120935  -0.176365
H    -1.141702  0.586606  -0.223766
N    -1.322624  0.154327  2.308772
C    -1.604141  -0.030998  3.736649
C    -0.646734  0.741626  4.675484
O    -0.032118  0.181483  5.576777
H    -2.109111  -0.004152  1.689049
H    -2.583118  0.459516  3.888354
C    -1.839710  -1.510634  4.132418
C    -0.672704  -2.478977  4.418386
C    0.487168  -2.554466  3.419883
C    0.131077  -3.010349  2.000438
N    1.232539  -2.937814  1.025971
H    -2.486337  -1.926965  3.341861
H    -2.465740  -1.490588  5.037693
H    -1.127103  -3.479308  4.523689
H    -0.252754  -2.221099  5.396720
H    1.240675  -3.248131  3.828722
H    0.983354  -1.574152  3.364581
H    -0.700579  -2.405113  1.607455
H    -0.240651  -4.047244  2.010886
H    1.915621  -3.671020  1.222412
H    1.736568  -2.057484  1.158879
N    -0.635511  2.107572  4.566522
C    -1.212943  2.956461  3.542465
H    0.053724  2.526831  5.183286
H    -0.601364  2.998706  2.627313
H    -1.308395  3.972664  3.943388
H    -2.219797  2.615776  3.271626
