33
Energy: -18209.2440675 eV PBE+vdW (tier 2 basis)
C    -0.542289  0.799814  0.201036
C    -0.842121  0.782865  1.688325
O    -0.717487  1.778562  2.396131
H    -1.091596  1.628183  -0.261442
H    -0.797739  -0.134638  -0.314241
H    0.528607  0.997474  0.063985
N    -1.259822  -0.423920  2.188865
C    -1.509068  -0.617904  3.615641
C    -0.951323  -1.998595  4.014381
O    0.198282  -2.136063  4.420559
H    -1.322587  -1.221632  1.567755
H    -0.872910  0.116969  4.124397
C    -2.979775  -0.343797  3.977453
C    -3.327411  -0.390727  5.473500
C    -2.640363  0.681119  6.343010
C    -1.351123  0.221518  7.027111
N    -0.795630  1.310544  7.842888
H    -3.637851  -1.031815  3.416413
H    -3.213260  0.657935  3.586049
H    -3.113041  -1.391834  5.884922
H    -4.417312  -0.268722  5.553692
H    -3.327904  1.019915  7.131352
H    -2.428565  1.571229  5.726004
H    -0.638112  -0.178637  6.283205
H    -1.588757  -0.613644  7.705416
H    0.034067  0.988119  8.341550
H    -0.482541  2.071481  7.237130
N    -1.805970  -3.049474  3.819734
C    -1.449075  -4.415934  4.153226
H    -2.772052  -2.840950  3.596236
H    -1.929638  -4.746472  5.086158
H    -0.363334  -4.451037  4.290353
H    -1.736300  -5.099930  3.344206
