33
Energy: -18209.1196088 eV PBE+vdW (tier 2 basis)
C    0.964341  -2.831432  0.970407
C    0.809697  -1.400452  1.441992
O    1.755053  -0.614067  1.455190
H    1.886063  -2.891107  0.385499
H    0.119009  -3.195114  0.375629
H    1.059907  -3.500580  1.837602
N    -0.419658  -0.990613  1.909825
C    -1.713321  -1.678490  1.930938
C    -1.638479  -3.080397  2.583935
O    -2.021514  -4.090692  1.999232
H    -0.409309  -0.015061  2.191773
H    -2.340593  -1.068199  2.604383
C    -2.419775  -1.733517  0.570335
C    -2.678969  -0.346738  -0.024748
C    -3.460371  -0.363016  -1.344970
C    -2.696190  -0.958207  -2.528195
N    -3.483739  -0.828099  -3.762535
H    -3.368960  -2.272587  0.704845
H    -1.826919  -2.351068  -0.117606
H    -1.721979  0.177980  -0.178667
H    -3.242186  0.257208  0.707015
H    -3.749523  0.663598  -1.614974
H    -4.403315  -0.920374  -1.204654
H    -2.403158  -2.001685  -2.301609
H    -1.760716  -0.393824  -2.669761
H    -2.953919  -1.177886  -4.561085
H    -4.325314  -1.404164  -3.704589
N    -1.142733  -3.146248  3.856610
C    -0.687543  -2.074175  4.727013
H    -1.110543  -4.095118  4.215811
H    0.330526  -1.735999  4.486999
H    -0.700988  -2.438792  5.760398
H    -1.358963  -1.206608  4.677743
