33
Energy: -18209.384352 eV PBE+vdW (tier 2 basis)
C    -0.549833  0.868508  0.119029
C    -0.189168  0.591820  1.571693
O    0.889740  0.961059  2.045504
H    -1.441667  1.507104  0.047106
H    -0.752994  -0.057624  -0.438417
H    0.294795  1.382117  -0.347410
N    -1.098535  -0.071747  2.337982
C    -2.343764  -0.697318  1.936616
C    -3.536747  0.257063  2.169213
O    -3.877734  0.611316  3.293385
H    -0.802357  -0.257882  3.317688
H    -2.289652  -0.959611  0.866817
C    -2.560173  -1.985171  2.748668
C    -1.437964  -3.035922  2.581426
C    -0.573057  -3.343690  3.818420
C    0.513719  -2.330289  4.198094
N    -0.030901  -1.093753  4.784794
H    -3.526603  -2.411210  2.442977
H    -2.680633  -1.695274  3.801698
H    -0.771375  -2.738348  1.755396
H    -1.897720  -3.982564  2.262786
H    -0.059705  -4.301159  3.638160
H    -1.227180  -3.522273  4.689900
H    1.073462  -2.037847  3.296045
H    1.236110  -2.831795  4.868492
H    0.716842  -0.419971  4.954214
H    -0.484001  -1.279929  5.680135
N    -4.166585  0.667512  1.026716
C    -5.292620  1.581605  1.035110
H    -3.805931  0.340472  0.138909
H    -5.053452  2.517267  0.510100
H    -5.517357  1.810509  2.082467
H    -6.178603  1.128216  0.569190
