33
Energy: -18209.1126926 eV PBE+vdW (tier 2 basis)
C    1.777668  -1.161949  0.653077
C    1.394347  -0.713770  2.052936
O    2.191938  -0.732518  2.985977
H    1.029270  -0.923973  -0.113143
H    1.933335  -2.248771  0.666600
H    2.732901  -0.698026  0.382213
N    0.104144  -0.273944  2.189746
C    -0.548893  0.021745  3.466419
C    0.376857  0.733976  4.484193
O    0.486289  0.350516  5.646596
H    -0.505163  -0.364600  1.384952
H    -1.310766  0.786728  3.231421
C    -1.319682  -1.187023  4.046089
C    -0.631688  -2.562623  4.031591
C    0.500016  -2.827371  5.037125
C    0.051479  -3.164775  6.461891
N    -0.756190  -2.096125  7.064851
H    -2.239907  -1.275719  3.444954
H    -1.635866  -0.939711  5.066992
H    -0.252994  -2.756582  3.014594
H    -1.423659  -3.312407  4.193172
H    1.196464  -1.978963  5.056591
H    1.086061  -3.686158  4.673375
H    0.960628  -3.413011  7.046611
H    -0.562837  -4.081951  6.439829
H    -0.262620  -1.204263  6.979196
H    -0.904078  -2.276573  8.057089
N    0.942871  1.918688  4.099308
C    0.996426  2.544096  2.792099
H    1.552779  2.294041  4.818876
H    1.221300  3.609038  2.925950
H    0.028945  2.474157  2.280682
H    1.767501  2.105021  2.139602
