33
Energy: -18209.5701581 eV PBE+vdW (tier 2 basis)
C    -0.133856  0.493527  -0.069767
C    -0.134798  0.406354  1.442017
O    0.880506  0.639856  2.109030
H    -1.103472  0.260694  -0.526437
H    0.623504  -0.195250  -0.464010
H    0.163372  1.508401  -0.362021
N    -1.320247  0.064959  2.020068
C    -1.498121  -0.026116  3.470658
C    -1.017202  -1.418487  3.969503
O    -1.798551  -2.330481  4.236424
H    -2.101041  -0.198103  1.429357
H    -0.838822  0.741689  3.903618
C    -2.949162  0.247408  3.854651
C    -3.142492  0.462696  5.357991
C    -4.605150  0.698912  5.738288
C    -4.808405  0.913752  7.236598
N    -6.223338  1.168752  7.539773
H    -3.567739  -0.603354  3.527427
H    -3.288893  1.140422  3.306396
H    -2.534037  1.323696  5.683456
H    -2.760564  -0.415942  5.899705
H    -5.206323  -0.168097  5.413613
H    -5.007988  1.572160  5.200892
H    -4.236900  1.799358  7.556787
H    -4.381426  0.049686  7.784704
H    -6.781390  0.337357  7.338272
H    -6.346432  1.361352  8.533917
N    0.336177  -1.508284  4.058310
C    1.012588  -2.749753  4.379331
H    0.867036  -0.734288  3.651679
H    1.836951  -2.564776  5.079843
H    1.417856  -3.239234  3.480265
H    0.286511  -3.424899  4.844159
