33
Energy: -18209.518547 eV PBE+vdW (tier 2 basis)
C    2.266785  -0.367005  4.195551
C    1.019517  -1.170840  4.496821
O    1.069879  -2.256255  5.088026
H    2.766180  -0.128830  5.143070
H    2.071218  0.566126  3.653257
H    2.956250  -0.986538  3.609119
N    -0.157802  -0.623265  4.085320
C    -1.460180  -1.241678  4.341413
C    -1.777168  -2.301095  3.249861
O    -2.607206  -2.109357  2.362940
H    -0.137063  0.221027  3.524611
H    -1.354863  -1.768131  5.302899
C    -2.559149  -0.188108  4.441990
C    -2.381721  0.775767  5.619573
C    -3.554846  1.745995  5.823123
C    -3.854217  2.674502  4.642687
N    -2.710012  3.547304  4.336029
H    -3.517979  -0.719409  4.531216
H    -2.624069  0.348404  3.481844
H    -1.447176  1.349391  5.510099
H    -2.251440  0.190293  6.543912
H    -3.347330  2.367128  6.707474
H    -4.467436  1.168489  6.044206
H    -4.695377  3.325722  4.921117
H    -4.199624  2.077237  3.776337
H    -2.980809  4.255496  3.653858
H    -1.956968  3.013080  3.900904
N    -1.039661  -3.435059  3.389283
C    -1.088365  -4.520015  2.429585
H    -0.305872  -3.418189  4.101821
H    -1.954771  -4.360097  1.779147
H    -1.194854  -5.484853  2.942742
H    -0.181869  -4.552234  1.806165
