33
Energy: -18209.0975387 eV PBE+vdW (tier 2 basis)
C    -0.294384  0.293708  -0.508178
C    -0.026466  -0.113739  0.925258
O    1.101915  -0.401224  1.321006
H    -0.722654  -0.551446  -1.065756
H    0.664207  0.557932  -0.962526
H    -0.997155  1.128811  -0.603002
N    -1.090445  -0.200558  1.796693
C    -2.506862  0.137977  1.629056
C    -3.128839  -0.535054  0.381305
O    -3.620897  0.116066  -0.537464
H    -0.791866  -0.473173  2.728628
H    -3.000883  -0.325161  2.498098
C    -2.791159  1.647633  1.673085
C    -4.249158  2.023957  1.980705
C    -4.806808  1.532796  3.327522
C    -4.003839  1.945115  4.564376
N    -3.958987  3.404721  4.715205
H    -2.511543  2.092220  0.708777
H    -2.113717  2.074698  2.428032
H    -4.892590  1.653432  1.170779
H    -4.331368  3.121096  1.936725
H    -4.896618  0.433662  3.325723
H    -5.831189  1.919414  3.436147
H    -2.999648  1.472177  4.532873
H    -4.503236  1.538198  5.455924
H    -3.516632  3.658979  5.598014
H    -3.393793  3.829920  3.979544
N    -3.118303  -1.901658  0.352383
C    -2.582595  -2.834737  1.329809
H    -3.514598  -2.282090  -0.501265
H    -1.486649  -2.910871  1.286280
H    -3.011096  -3.824173  1.135104
H    -2.868136  -2.550471  2.351680
