33
Energy: -18209.5338901 eV PBE+vdW (tier 2 basis)
C    1.933375  -0.132929  0.385007
C    1.222970  0.260934  1.664473
O    1.806742  0.906614  2.545359
H    2.352939  0.768340  -0.077704
H    1.293285  -0.647090  -0.341928
H    2.774097  -0.789664  0.642777
N    -0.075260  -0.137341  1.762646
C    -0.973253  -0.013077  2.924734
C    -1.428640  1.432193  3.245882
O    -2.633302  1.673278  3.386149
H    -0.462404  -0.619558  0.961288
H    -1.899876  -0.503454  2.608558
C    -0.412132  -0.738136  4.169884
C    -1.333357  -0.738838  5.403910
C    -2.353085  -1.885047  5.488142
C    -3.474825  -1.921380  4.430121
N    -4.374260  -0.774172  4.347336
H    0.547032  -0.271341  4.428153
H    -0.183134  -1.774240  3.872308
H    -1.853292  0.228337  5.486644
H    -0.692129  -0.800642  6.295301
H    -2.827628  -1.845064  6.483256
H    -1.813420  -2.848311  5.451898
H    -4.083489  -2.820271  4.621102
H    -3.042925  -2.081675  3.428591
H    -3.884514  0.076220  4.051971
H    -4.795908  -0.580030  5.256013
N    -0.443310  2.342243  3.405055
C    -0.706471  3.728746  3.735166
H    0.520306  2.015865  3.256654
H    -0.253267  3.996189  4.700365
H    -1.790730  3.866713  3.800673
H    -0.304127  4.399320  2.962955
