33
Energy: -18209.0908446 eV PBE+vdW (tier 2 basis)
C    -0.105988  0.598367  -0.452934
C    0.125912  0.228275  0.996220
O    1.255165  0.126357  1.472951
H    -0.935163  0.056091  -0.921760
H    0.823261  0.415062  -0.999145
H    -0.339327  1.670794  -0.517540
N    -0.969315  0.034374  1.810922
C    -2.408889  0.055796  1.518116
C    -2.779835  -1.054412  0.499371
O    -3.188559  -0.801533  -0.632812
H    -0.695221  -0.144927  2.771875
H    -2.880908  -0.221483  2.474271
C    -2.961620  1.433900  1.111924
C    -4.375888  1.728340  1.629711
C    -5.490694  0.827782  1.086571
C    -6.893024  1.299717  1.480695
N    -7.199686  2.606134  0.880624
H    -2.940462  1.519225  0.016693
H    -2.274062  2.190060  1.515787
H    -4.627850  2.768869  1.379981
H    -4.374807  1.675031  2.733558
H    -5.367816  -0.209001  1.439717
H    -5.418541  0.771723  -0.011848
H    -6.945564  1.419839  2.574972
H    -7.621232  0.508360  1.216216
H    -7.302850  2.512932  -0.130991
H    -8.087190  2.965065  1.231068
N    -2.628205  -2.346872  0.916889
C    -2.076040  -2.844855  2.165160
H    -2.819169  -3.022225  0.183139
H    -2.351749  -3.899989  2.270955
H    -2.497131  -2.311646  3.027920
H    -0.979611  -2.762646  2.204926
