33
Energy: -18208.9323423 eV PBE+vdW (tier 2 basis)
C    -4.161043  -0.503603  2.574397
C    -2.993290  0.419022  2.291367
O    -3.036582  1.267522  1.403422
H    -5.039720  -0.098714  2.065476
H    -4.371276  -0.603675  3.647801
H    -3.959416  -1.508228  2.177760
N    -1.847810  0.272380  3.044864
C    -1.640081  -0.496739  4.275306
C    -0.369877  -0.058349  5.032834
O    -0.397651  -0.056368  6.262080
H    -1.200556  1.034807  2.867933
H    -2.428613  -0.247141  5.002404
C    -1.672191  -2.039122  4.120038
C    -0.753746  -2.649361  3.059649
C    -1.019429  -4.139030  2.808055
C    -0.717135  -5.046742  4.001235
N    -0.947364  -6.451745  3.646812
H    -2.708052  -2.341202  3.908069
H    -1.444460  -2.442455  5.117398
H    0.300924  -2.516662  3.350399
H    -0.887870  -2.106497  2.111348
H    -0.404117  -4.466708  1.953486
H    -2.067155  -4.292767  2.504091
H    -1.392662  -4.807210  4.836025
H    0.311357  -4.833734  4.360387
H    -0.272822  -6.757607  2.943871
H    -0.814108  -7.054793  4.458270
N    0.760711  0.350538  4.370863
C    1.214949  0.170733  2.997602
H    1.473283  0.635498  5.038804
H    2.067014  -0.523858  2.958246
H    1.530966  1.131382  2.565964
H    0.421078  -0.242630  2.373122
