33
Energy: -18209.2533379 eV PBE+vdW (tier 2 basis)
C    -0.293136  -1.108829  -0.016695
C    -0.414767  -0.487718  1.362060
O    0.579554  -0.141155  2.001687
H    -0.481491  -2.190817  0.034663
H    0.730825  -0.949832  -0.365005
H    -1.001377  -0.694911  -0.744426
N    -1.664234  -0.362287  1.918834
C    -2.984192  -0.464078  1.299234
C    -3.213870  -1.788699  0.538399
O    -3.559998  -1.815847  -0.640901
H    -1.679521  0.166753  2.798633
H    -3.676608  -0.506821  2.155231
C    -3.368988  0.747227  0.426140
C    -3.034481  2.120722  1.024390
C    -3.969265  2.680121  2.110973
C    -4.104167  1.907664  3.428234
N    -2.796265  1.554516  4.012251
H    -4.442131  0.676442  0.191251
H    -2.856315  0.643885  -0.540061
H    -3.042875  2.848688  0.199322
H    -1.997610  2.113600  1.391974
H    -4.983581  2.797513  1.696402
H    -3.628366  3.702476  2.347959
H    -4.657628  0.970389  3.263228
H    -4.729792  2.513878  4.109884
H    -2.918859  1.179700  4.953467
H    -2.217540  2.390795  4.114253
N    -3.048431  -2.945276  1.249747
C    -2.666766  -3.123317  2.641063
H    -3.199375  -3.776807  0.687558
H    -1.584110  -3.019745  2.800873
H    -2.977791  -4.125052  2.959786
H    -3.174452  -2.396686  3.288371
