33
Energy: -18209.489677 eV PBE+vdW (tier 2 basis)
C    -0.358404  0.094965  -0.163004
C    -0.228068  0.062356  1.347147
O    0.882873  0.080253  1.892511
H    0.162405  0.982407  -0.542681
H    -1.394433  0.104799  -0.522566
H    0.151800  -0.784663  -0.575312
N    -1.401439  0.016055  2.036924
C    -1.576740  -0.107648  3.494073
C    -1.197194  1.167780  4.293243
O    -2.031405  1.701761  5.026738
H    -2.252578  0.063780  1.491380
H    -2.661005  -0.181032  3.645896
C    -0.921522  -1.381934  4.061334
C    -1.204503  -1.581824  5.551355
C    -0.577786  -2.864275  6.105324
C    -0.905967  -3.124900  7.576595
N    -0.331184  -2.092871  8.451084
H    0.162511  -1.350362  3.885735
H    -1.308336  -2.238862  3.486339
H    -2.294533  -1.597410  5.723979
H    -0.820356  -0.712808  6.107371
H    0.516961  -2.818377  5.991306
H    -0.926531  -3.727161  5.513858
H    -0.463959  -4.087721  7.872336
H    -2.005005  -3.236280  7.683846
H    -0.829787  -1.209070  8.342740
H    -0.435690  -2.359506  9.429651
N    0.086289  1.579158  4.152669
C    0.610344  2.743114  4.838089
H    0.663299  1.077511  3.467742
H    1.488418  2.478246  5.443577
H    -0.173544  3.133636  5.495648
H    0.901552  3.528150  4.125097
