33
Energy: -18208.9138064 eV PBE+vdW (tier 2 basis)
C    0.144806  0.031492  -0.565461
C    0.357141  -0.493686  0.843841
O    1.476569  -0.591747  1.330873
H    0.115875  1.129204  -0.516856
H    -0.784472  -0.319990  -1.032221
H    0.998136  -0.258398  -1.186282
N    -0.806955  -0.855772  1.486832
C    -0.998382  -1.009876  2.928832
C    -0.858327  0.370969  3.624231
O    -0.427966  1.351978  3.025834
H    -1.647445  -0.579740  0.992013
H    -2.068792  -1.262980  3.019062
C    -0.282717  -2.236529  3.559959
C    1.222178  -2.282097  3.873513
C    1.755373  -1.403360  5.020431
C    2.349958  -0.031664  4.633658
N    3.488010  -0.046133  3.716712
H    -0.503082  -3.062765  2.866516
H    -0.828950  -2.483121  4.482910
H    1.796424  -2.084823  2.961202
H    1.415366  -3.334711  4.134481
H    2.554545  -1.964832  5.533316
H    0.975002  -1.252373  5.787068
H    2.659407  0.469501  5.566651
H    1.590838  0.614672  4.177583
H    3.169715  -0.272133  2.773512
H    4.175539  -0.749307  3.990470
N    -1.291946  0.482922  4.918126
C    -1.962286  -0.480846  5.771723
H    -1.147602  1.417030  5.288810
H    -1.260509  -1.132405  6.314950
H    -2.649038  -1.115521  5.196877
H    -2.563079  0.063635  6.509580
