33
Energy: -18209.0631077 eV PBE+vdW (tier 2 basis)
C    -0.940409  -0.807252  2.194507
C    -2.132414  -0.892567  3.123536
O    -2.375657  -1.910584  3.768482
H    -0.157739  -0.170852  2.631383
H    -1.220541  -0.407246  1.213882
H    -0.539829  -1.818502  2.082843
N    -2.946169  0.211731  3.297894
C    -3.043488  1.502722  2.627251
C    -3.631057  1.384920  1.201235
O    -3.354355  0.452200  0.453143
H    -3.712606  -0.012818  3.924943
H    -3.748620  2.074673  3.248937
C    -1.735902  2.322516  2.574558
C    -1.118717  2.573620  3.952712
C    0.187536  3.375996  3.913616
C    1.368128  2.628457  3.290535
N    2.577234  3.459257  3.326340
H    -1.963241  3.287312  2.093327
H    -1.024544  1.822039  1.905786
H    -0.946706  1.611328  4.459211
H    -1.851295  3.111172  4.576647
H    0.458483  3.654279  4.945715
H    0.045056  4.324182  3.371103
H    1.158569  2.405991  2.233305
H    1.478954  1.649562  3.801328
H    2.878157  3.606786  4.290991
H    3.349113  2.991383  2.851647
N    -4.450586  2.402572  0.792478
C    -4.937708  3.539420  1.556784
H    -4.782339  2.289489  -0.160289
H    -5.560753  3.234645  2.411310
H    -5.559281  4.155431  0.898498
H    -4.120665  4.175798  1.926728
