33
Energy: -18209.2856785 eV PBE+vdW (tier 2 basis)
C    -0.577729  -0.228515  0.285388
C    -0.175291  -0.193133  1.750501
O    0.936695  -0.543072  2.131446
H    -1.443540  0.402174  0.046754
H    -0.820777  -1.265820  0.016091
H    0.277739  0.079980  -0.324614
N    -1.152360  0.272523  2.602497
C    -1.125956  0.194182  4.069384
C    0.168009  0.761561  4.707768
O    0.587261  0.327689  5.775987
H    -2.057201  0.462873  2.187252
H    -1.907263  0.900727  4.397064
C    -1.513120  -1.180642  4.640140
C    -0.621587  -2.362148  4.256969
C    -1.093503  -3.673317  4.890909
C    -0.166278  -4.855936  4.605648
N    -0.086704  -5.148621  3.165349
H    -2.551537  -1.387598  4.331138
H    -1.524915  -1.071880  5.734430
H    0.413771  -2.149641  4.561427
H    -0.611038  -2.474532  3.163158
H    -2.104490  -3.920670  4.527048
H    -1.166355  -3.546515  5.983627
H    -0.568435  -5.751895  5.101166
H    0.820905  -4.653728  5.068158
H    0.462970  -4.432052  2.689364
H    0.407223  -6.027882  3.013607
N    0.696701  1.847375  4.076165
C    1.959344  2.425410  4.495812
H    0.388062  2.016395  3.125983
H    1.969863  3.500387  4.278440
H    2.814604  1.947090  3.993373
H    2.065063  2.273515  5.574800
