33
Energy: -18209.0246764 eV PBE+vdW (tier 2 basis)
C    -1.047955  -0.504391  -0.082793
C    -0.719417  -0.061773  1.332931
O    0.435975  0.043716  1.733403
H    -2.104048  -0.384567  -0.354982
H    -0.776648  -1.563436  -0.188698
H    -0.426254  0.064071  -0.783710
N    -1.806557  0.208710  2.119720
C    -1.763873  0.540766  3.545219
C    -0.527667  1.383331  3.958296
O    0.183044  1.050652  4.900520
H    -2.722604  0.028517  1.726084
H    -2.624535  1.214293  3.710479
C    -1.973057  -0.663533  4.481666
C    -0.978949  -1.837543  4.415522
C    -1.120322  -2.841942  3.256318
C    -2.526747  -3.386108  3.005430
N    -3.038842  -4.124733  4.166679
H    -3.002987  -1.024396  4.321093
H    -1.950219  -0.256643  5.502104
H    -1.078002  -2.389970  5.363370
H    0.042477  -1.437553  4.419151
H    -0.458851  -3.694550  3.473496
H    -0.746496  -2.401557  2.322814
H    -2.483848  -4.090890  2.161379
H    -3.191296  -2.557841  2.678095
H    -3.152822  -3.506015  4.970188
H    -3.959856  -4.515189  3.969023
N    -0.355101  2.596399  3.345569
C    -1.031448  3.152362  2.190130
H    0.501813  3.050559  3.646173
H    -0.895038  4.240544  2.195234
H    -2.109813  2.957213  2.234073
H    -0.645495  2.758191  1.236326
