33
Energy: -18209.3896695 eV PBE+vdW (tier 2 basis)
C    -0.028772  -0.117845  0.247873
C    0.066068  0.103604  1.744769
O    1.138997  0.141398  2.341781
H    -0.646509  0.643958  -0.246624
H    -0.475911  -1.098087  0.026600
H    0.983384  -0.093502  -0.163523
N    -1.119972  0.275228  2.424916
C    -2.480392  0.122378  1.920480
C    -3.103741  1.431308  1.374226
O    -4.196647  1.407920  0.812267
H    -0.998386  0.321014  3.433683
H    -2.467061  -0.557246  1.054853
C    -3.407650  -0.491650  2.985875
C    -3.299121  -2.009517  3.173632
C    -1.963197  -2.551589  3.694054
C    -2.029688  -4.031450  4.086227
N    -2.928941  -4.238116  5.230478
H    -4.434877  -0.247212  2.684691
H    -3.234279  0.027903  3.945222
H    -3.537671  -2.500471  2.214653
H    -4.085471  -2.322055  3.876281
H    -1.639725  -1.969263  4.575834
H    -1.165572  -2.429111  2.946376
H    -1.000697  -4.401053  4.257769
H    -2.432933  -4.610909  3.240618
H    -3.101819  -5.231569  5.379174
H    -2.498060  -3.887869  6.087200
N    -2.362845  2.554641  1.562806
C    -2.787526  3.862318  1.105923
H    -1.466969  2.441337  2.025562
H    -2.877626  4.565983  1.945055
H    -3.768083  3.745195  0.631726
H    -2.082188  4.276456  0.371814
