33
Energy: -18209.2959417 eV PBE+vdW (tier 2 basis)
C    0.271452  -0.740236  0.352849
C    0.109520  -0.525421  1.846236
O    1.011267  -0.763902  2.646049
H    -0.598966  -0.429049  -0.238283
H    0.460037  -1.806114  0.172518
H    1.154607  -0.188070  0.009838
N    -1.112154  -0.046520  2.242385
C    -1.443209  0.133360  3.655269
C    -2.927740  -0.216232  3.867197
O    -3.280342  -1.296488  4.328095
H    -1.834446  0.101508  1.547860
H    -0.882263  -0.638176  4.196519
C    -1.016591  1.517622  4.176655
C    -1.259816  1.732437  5.678523
C    -0.601797  0.704856  6.612279
C    0.914839  0.586050  6.463015
N    1.457697  -0.298022  7.507176
H    -1.522568  2.311955  3.600189
H    0.051819  1.626650  3.942637
H    -2.343427  1.741543  5.878940
H    -0.898749  2.740076  5.939646
H    -1.060690  -0.286673  6.461050
H    -0.823440  0.978937  7.654562
H    1.369905  1.580815  6.600768
H    1.170759  0.257244  5.438429
H    1.095268  -1.244660  7.376481
H    2.470633  -0.373081  7.407442
N    -3.811314  0.746094  3.454248
C    -5.247390  0.598142  3.606592
H    -3.441897  1.663641  3.232254
H    -5.768060  0.955524  2.709188
H    -5.625528  1.148375  4.481385
H    -5.459260  -0.466288  3.750846
