33
Energy: -18209.195509 eV PBE+vdW (tier 2 basis)
C    0.116276  2.000902  2.697043
C    0.574826  0.639793  3.195224
O    1.693655  0.468578  3.675003
H    0.918676  2.717090  2.891344
H    -0.795030  2.336955  3.212677
H    -0.097776  1.989882  1.619407
N    -0.312853  -0.397944  3.096165
C    -1.650152  -0.393939  2.543463
C    -2.409029  -1.545162  3.225504
O    -1.801220  -2.504011  3.707904
H    -0.011277  -1.284693  3.498795
H    -2.134589  0.559324  2.805821
C    -1.734612  -0.533858  0.991614
C    -1.543729  -1.933930  0.366915
C    -0.145414  -2.275194  -0.173925
C    0.972602  -2.463401  0.852789
N    0.680901  -3.573351  1.768214
H    -1.004805  0.168774  0.562412
H    -2.720939  -0.148182  0.693997
H    -2.240601  -2.008577  -0.481076
H    -1.867717  -2.717838  1.068425
H    0.162763  -1.490540  -0.885282
H    -0.232266  -3.208474  -0.751514
H    1.179594  -1.503714  1.361912
H    1.891329  -2.721194  0.304867
H    1.491292  -3.766219  2.355959
H    -0.086221  -3.344586  2.404699
N    -3.768732  -1.496679  3.246518
C    -4.661418  -0.478455  2.721589
H    -4.186471  -2.334806  3.640547
H    -4.226429  0.521244  2.836185
H    -5.596573  -0.497239  3.292944
H    -4.901579  -0.634812  1.658741
