33
Energy: -18209.4774343 eV PBE+vdW (tier 2 basis)
C    -0.413607  -0.093932  -0.291203
C    -0.562980  -0.453273  1.176042
O    -0.098900  -1.491950  1.648031
H    0.654886  -0.045178  -0.535598
H    -0.885960  0.858304  -0.561674
H    -0.850723  -0.897850  -0.896345
N    -1.234077  0.460296  1.935034
C    -1.554049  0.220200  3.326745
C    -2.799499  1.066487  3.647398
O    -3.249619  1.893228  2.852507
H    -1.740306  1.236169  1.512261
H    -1.804370  -0.848549  3.440247
C    -0.382707  0.531874  4.284317
C    0.130685  1.976511  4.210904
C    1.012849  2.364579  5.413504
C    0.260236  3.048760  6.559157
N    -0.842463  2.228146  7.094321
H    0.431126  -0.166781  4.043809
H    -0.689579  0.297035  5.314457
H    -0.715240  2.682225  4.134957
H    0.693869  2.101594  3.275797
H    1.802595  3.057383  5.085725
H    1.525494  1.468856  5.798639
H    -0.078955  4.044779  6.210386
H    0.964588  3.230011  7.384123
H    -1.182416  2.636908  7.964992
H    -1.634355  2.247732  6.449234
N    -3.337413  0.850528  4.879920
C    -4.522736  1.539837  5.355144
H    -2.933375  0.121873  5.457143
H    -4.356695  1.954959  6.358500
H    -5.394202  0.870189  5.390048
H    -4.736105  2.356049  4.657477
