33
Energy: -18209.4690429 eV PBE+vdW (tier 2 basis)
C    0.292822  -0.960027  0.448708
C    -0.049795  -0.090647  1.640274
O    0.785097  0.169438  2.517581
H    -0.552439  -1.136200  -0.227647
H    0.672091  -1.923932  0.809329
H    1.103658  -0.479188  -0.113181
N    -1.324805  0.377306  1.686538
C    -1.829478  1.326106  2.677787
C    -2.215164  0.669344  4.041268
O    -3.290864  0.889211  4.596862
H    -1.971465  0.078067  0.966426
H    -0.982311  1.990367  2.916522
C    -2.968335  2.180277  2.095538
C    -4.003721  1.479304  1.199259
C    -4.771470  0.305137  1.814962
C    -5.887810  -0.201384  0.904665
N    -6.506738  -1.408608  1.466185
H    -2.516375  2.998003  1.515521
H    -3.483749  2.633978  2.952420
H    -3.531533  1.155085  0.252685
H    -4.724830  2.251756  0.886569
H    -5.186696  0.612368  2.786772
H    -4.101136  -0.539836  2.038763
H    -5.468886  -0.471684  -0.078965
H    -6.603170  0.626622  0.721387
H    -6.919647  -1.200284  2.376849
H    -7.269272  -1.731963  0.870765
N    -1.232042  -0.108064  4.559524
C    -1.358531  -0.765715  5.844760
H    -0.332292  -0.111912  4.068066
H    -0.953955  -1.784518  5.791060
H    -2.420164  -0.809494  6.109586
H    -0.826991  -0.218004  6.638251
