33
Energy: -18209.1506164 eV PBE+vdW (tier 2 basis)
C    -0.487735  -1.476041  1.408067
C    -0.532695  -0.205985  2.232182
O    0.473710  0.259129  2.765214
H    0.552226  -1.647766  1.117564
H    -1.126595  -1.449815  0.518360
H    -0.821216  -2.326611  2.019903
N    -1.748233  0.412775  2.420580
C    -3.066905  0.126170  1.849058
C    -3.490073  -1.351802  2.029764
O    -3.817025  -2.056860  1.078225
H    -1.660073  1.255062  2.980934
H    -3.769776  0.715131  2.463774
C    -3.243435  0.586254  0.396595
C    -3.006525  2.086224  0.216933
C    -3.168669  2.568287  -1.230753
C    -4.575792  2.413918  -1.817471
N    -5.573415  3.123147  -1.003622
H    -4.262978  0.314116  0.092275
H    -2.572534  0.009979  -0.257919
H    -1.990926  2.341839  0.555752
H    -3.707816  2.644820  0.857157
H    -2.461952  2.031504  -1.884434
H    -2.877905  3.631080  -1.284872
H    -4.859923  1.350995  -1.833055
H    -4.548683  2.741373  -2.875009
H    -5.427508  4.132178  -1.064644
H    -6.513888  2.945973  -1.355145
N    -3.503972  -1.840783  3.307081
C    -3.206590  -1.162437  4.558125
H    -3.778486  -2.817042  3.349847
H    -3.656496  -1.734832  5.377339
H    -3.646547  -0.156530  4.581893
H    -2.127133  -1.070846  4.745102
