33
Energy: -18209.4278212 eV PBE+vdW (tier 2 basis)
C    -0.872755  2.141883  2.009590
C    -1.134919  0.864472  2.782034
O    -1.704107  0.853696  3.868075
H    -0.177641  2.017528  1.169119
H    -0.481865  2.902294  2.694707
H    -1.834850  2.506848  1.623453
N    -0.705282  -0.296400  2.174144
C    -1.101733  -1.616517  2.649530
C    -0.107824  -2.280834  3.629832
O    -0.346567  -3.397104  4.085393
H    -0.312145  -0.229067  1.241728
H    -2.013704  -1.472170  3.248280
C    -1.371183  -2.579473  1.482420
C    -2.423754  -2.154502  0.448554
C    -3.853714  -1.919409  0.964901
C    -4.171093  -0.498649  1.478204
N    -3.996478  0.604336  0.525760
H    -1.655271  -3.537876  1.937016
H    -0.417046  -2.768602  0.960164
H    -2.450057  -2.949444  -0.311429
H    -2.082704  -1.260003  -0.102571
H    -4.081305  -2.644234  1.764730
H    -4.558955  -2.143663  0.147885
H    -3.578626  -0.260020  2.371360
H    -5.219482  -0.478208  1.810887
H    -4.598476  0.472109  -0.288944
H    -3.039697  0.625084  0.170863
N    1.005212  -1.559093  3.923602
C    1.984874  -1.998209  4.896689
H    1.051904  -0.617260  3.552334
H    1.757858  -3.039672  5.148921
H    1.938527  -1.394977  5.815179
H    3.000856  -1.939863  4.483592
