33
Energy: -18209.4901033 eV PBE+vdW (tier 2 basis)
C    -0.855325  3.084195  3.950782
C    -1.054093  1.603306  4.215753
O    -1.438269  1.178154  5.300128
H    -1.837490  3.575061  3.955802
H    -0.357509  3.301516  2.997304
H    -0.270500  3.516509  4.770815
N    -0.758899  0.773358  3.155258
C    -1.113650  -0.641596  3.151364
C    0.097118  -1.597085  3.127145
O    -0.063280  -2.806846  2.980034
H    -0.609727  1.212107  2.251789
H    -1.591641  -0.817200  4.128257
C    -2.094565  -0.974814  2.017875
C    -3.466558  -0.302773  2.142713
C    -4.248334  -0.643765  3.420912
C    -4.502121  -2.137881  3.643060
N    -5.229346  -2.729915  2.510974
H    -2.197730  -2.066616  1.986000
H    -1.633277  -0.692654  1.055553
H    -4.062298  -0.602617  1.269270
H    -3.357893  0.792676  2.082521
H    -5.217788  -0.118587  3.383540
H    -3.733556  -0.243073  4.308132
H    -5.013824  -2.262209  4.617015
H    -3.543739  -2.671716  3.731378
H    -5.289569  -3.742382  2.613398
H    -6.189272  -2.382716  2.484445
N    1.311981  -1.008724  3.301890
C    2.540319  -1.769038  3.410393
H    1.314902  -0.010890  3.481675
H    3.301283  -1.388594  2.715561
H    2.309099  -2.809099  3.155815
H    2.945550  -1.738089  4.432446
