33
Energy: -18208.9177872 eV PBE+vdW (tier 2 basis)
C    -0.309896  -1.123794  0.188139
C    -0.352655  -0.358001  1.499722
O    0.650189  -0.236193  2.202973
H    -1.245756  -1.093537  -0.383666
H    -0.062679  -2.171032  0.404744
H    0.501520  -0.718962  -0.428757
N    -1.569735  0.183004  1.809553
C    -2.016145  0.831641  3.051093
C    -2.011781  2.378410  3.093058
O    -2.863865  2.912153  3.807869
H    -2.304370  0.020666  1.131970
H    -3.098944  0.654703  3.050030
C    -1.484609  0.161844  4.366674
C    -0.757019  1.048452  5.390293
C    0.701475  1.393411  5.058962
C    1.675484  0.222833  5.267568
N    3.033112  0.407823  4.747370
H    -0.839949  -0.674675  4.073943
H    -2.358411  -0.278669  4.863907
H    -0.780487  0.515241  6.355253
H    -1.339940  1.966118  5.550879
H    1.022579  2.242156  5.685182
H    0.787137  1.730288  4.016869
H    1.274339  -0.681554  4.789319
H    1.746761  -0.000985  6.345032
H    3.430082  1.285679  5.087047
H    2.994874  0.478200  3.729110
N    -1.148724  3.145072  2.368627
C    -0.020596  2.810389  1.513766
H    -1.344159  4.132218  2.508281
H    0.560554  1.975200  1.919182
H    0.638383  3.684779  1.463737
H    -0.333763  2.558318  0.488694
