33
Energy: -18209.1986491 eV PBE+vdW (tier 2 basis)
C    0.468343  -1.212962  0.749977
C    0.095017  -0.236502  1.852038
O    0.911140  0.171127  2.674401
H    1.228900  -0.747545  0.110513
H    -0.378247  -1.524593  0.125165
H    0.924710  -2.100922  1.204542
N    -1.217488  0.150044  1.872530
C    -1.730469  1.134494  2.810726
C    -1.945888  0.701726  4.281042
O    -2.040641  1.593684  5.123216
H    -1.847807  -0.222507  1.172779
H    -0.965525  1.917700  2.909113
C    -3.022361  1.772625  2.269893
C    -4.202062  0.809224  2.111505
C    -5.467683  1.496709  1.593981
C    -6.608517  0.524902  1.283149
N    -6.245264  -0.381779  0.182082
H    -2.789602  2.246106  1.302332
H    -3.291805  2.582001  2.962483
H    -4.422342  0.335573  3.082515
H    -3.961047  -0.010748  1.415514
H    -5.229374  2.071140  0.681206
H    -5.819595  2.235626  2.331089
H    -7.531833  1.104355  1.091878
H    -6.807617  -0.096639  2.170285
H    -6.944748  -1.116165  0.077255
H    -6.230850  0.128526  -0.702433
N    -2.068227  -0.608281  4.650610
C    -2.030758  -1.848480  3.891392
H    -2.164684  -0.691158  5.658105
H    -2.380317  -2.651969  4.550128
H    -1.017420  -2.105432  3.551081
H    -2.702272  -1.821035  3.025249
