33
Energy: -18209.184819 eV PBE+vdW (tier 2 basis)
C    0.904506  -0.066341  0.661853
C    0.247419  -0.712584  1.866772
O    0.892807  -1.360239  2.687816
H    0.193499  0.381320  -0.044296
H    1.501744  -0.822160  0.138461
H    1.593947  0.712079  1.013571
N    -1.110386  -0.522675  1.959320
C    -1.853557  -0.947832  3.137875
C    -2.962769  -1.982092  2.877730
O    -3.058890  -2.967754  3.606793
H    -1.522595  0.152696  1.327728
H    -1.115807  -1.510292  3.720540
C    -2.351305  0.245778  3.982665
C    -2.725982  -0.123262  5.427220
C    -1.617969  -0.771102  6.274286
C    -0.398010  0.093649  6.609169
N    0.400961  0.448286  5.425716
H    -3.219344  0.722096  3.497026
H    -1.531219  0.975440  4.000487
H    -3.589923  -0.805875  5.420138
H    -3.068675  0.796632  5.928584
H    -1.284825  -1.710738  5.804750
H    -2.068848  -1.079442  7.230355
H    0.185806  -0.439830  7.385755
H    -0.740012  1.034827  7.071822
H    1.234387  0.965147  5.704975
H    0.729121  -0.387571  4.935070
N    -3.878766  -1.772987  1.878299
C    -3.975176  -0.701099  0.905253
H    -4.548653  -2.532629  1.807356
H    -4.993381  -0.687963  0.499812
H    -3.277493  -0.823985  0.061119
H    -3.807527  0.280646  1.368358
