33
Energy: -18209.458231 eV PBE+vdW (tier 2 basis)
C    0.415038  -1.233348  0.490431
C    0.386827  -0.632684  1.883566
O    1.380853  -0.611376  2.610979
H    1.150796  -0.687673  -0.113664
H    -0.555376  -1.207483  -0.020062
H    0.757462  -2.272904  0.562095
N    -0.812106  -0.110860  2.271081
C    -1.016371  0.450970  3.589985
C    -2.511224  0.335463  3.897787
O    -3.339471  0.258347  2.980612
H    -1.650023  -0.199413  1.701494
H    -0.413342  -0.138056  4.297198
C    -0.552240  1.929320  3.686906
C    -1.250838  2.892851  2.702168
C    -1.819721  4.158654  3.358138
C    -3.005223  3.920070  4.313705
N    -4.234460  3.360855  3.747336
H    -0.696766  2.268540  4.723418
H    0.532993  1.923874  3.522362
H    -2.064761  2.371766  2.175204
H    -0.541440  3.184603  1.916220
H    -2.143882  4.856291  2.568189
H    -1.020324  4.678864  3.914292
H    -3.264216  4.875621  4.794880
H    -2.690142  3.257185  5.135727
H    -4.066238  2.461132  3.292650
H    -4.614900  3.982740  3.033132
N    -2.909526  0.380626  5.196207
C    -2.099712  0.483720  6.397059
H    -3.919437  0.433349  5.300598
H    -2.607998  -0.035327  7.218226
H    -1.928836  1.528492  6.700839
H    -1.126793  0.002745  6.250445
