33
Energy: -18209.483063 eV PBE+vdW (tier 2 basis)
C    -0.317424  0.372413  -0.310207
C    -0.831141  0.490648  1.108863
O    -1.286930  1.539943  1.565449
H    0.109641  1.330868  -0.620524
H    -1.177465  0.143981  -0.958576
H    0.427964  -0.424080  -0.433471
N    -0.837731  -0.682666  1.813357
C    -1.314175  -0.782544  3.179089
C    -0.190617  -1.406411  4.021080
O    0.509122  -2.316313  3.575541
H    -0.299864  -1.476801  1.478680
H    -1.527504  0.247921  3.502857
C    -2.585125  -1.655039  3.319991
C    -3.906651  -1.019778  2.855486
C    -4.031690  -0.617522  1.378343
C    -3.811430  -1.750433  0.378371
N    -3.788153  -1.224049  -0.995247
H    -2.696084  -1.913293  4.385235
H    -2.399963  -2.609299  2.803511
H    -4.100076  -0.125095  3.468465
H    -4.711020  -1.731701  3.105163
H    -3.345030  0.206654  1.146455
H    -5.045819  -0.208741  1.229113
H    -4.576591  -2.536635  0.542974
H    -2.834036  -2.221647  0.557280
H    -4.668122  -0.750085  -1.206725
H    -3.704830  -1.986261  -1.668427
N    -0.071683  -0.909891  5.283228
C    0.887999  -1.417273  6.245934
H    -0.651687  -0.119353  5.537464
H    1.622259  -0.647338  6.521122
H    1.413441  -2.254997  5.775646
H    0.386414  -1.773183  7.156480
