33
Energy: -18209.0212028 eV PBE+vdW (tier 2 basis)
C    1.262607  0.334638  0.427181
C    0.832488  0.548768  1.868289
O    1.640310  0.591748  2.791603
H    1.544106  -0.720136  0.303798
H    2.153856  0.939978  0.229519
H    0.486553  0.576039  -0.310013
N    -0.518343  0.688321  2.050210
C    -1.205592  0.718313  3.344641
C    -0.420782  1.466392  4.454746
O    -0.223685  0.950119  5.549836
H    -1.109284  0.558725  1.236926
H    -2.111735  1.328866  3.180128
C    -1.676668  -0.667356  3.819906
C    -0.580924  -1.746969  3.948950
C    -0.355950  -2.626476  2.702206
C    -1.230193  -3.879860  2.623780
N    -2.664258  -3.567735  2.484494
H    -2.458546  -1.006331  3.123144
H    -2.158609  -0.510668  4.794204
H    -0.835646  -2.401980  4.797858
H    0.358591  -1.261281  4.237326
H    0.693721  -2.958220  2.688463
H    -0.508183  -2.040350  1.783212
H    -1.008057  -4.520224  3.501497
H    -0.938221  -4.457766  1.734039
H    -3.039584  -3.223533  3.369595
H    -3.185044  -4.420425  2.277637
N    -0.097578  2.778169  4.230494
C    -0.178548  3.552467  3.007268
H    0.454529  3.164753  4.989854
H    0.660857  3.357752  2.320785
H    -0.173675  4.617942  3.267337
H    -1.115197  3.348930  2.474535
