33
Energy: -18209.483905 eV PBE+vdW (tier 2 basis)
C    2.078101  -0.283060  1.798376
C    0.591932  -0.227205  2.098219
O    -0.256875  -0.488017  1.252403
H    2.360430  -1.329727  1.624134
H    2.708373  0.123626  2.599320
H    2.273941  0.265848  0.870071
N    0.267010  0.151348  3.383921
C    -1.088605  0.042499  3.909475
C    -1.694061  1.390231  4.357489
O    -2.720761  1.427418  5.031655
H    1.023586  0.197997  4.059463
H    -1.698855  -0.278891  3.050224
C    -1.186367  -0.997909  5.035513
C    -0.844870  -2.430568  4.612497
C    -1.783767  -3.030526  3.562082
C    -1.496222  -4.507629  3.240627
N    -1.700691  -5.488620  4.311612
H    -2.209440  -0.944848  5.431677
H    -0.526209  -0.685532  5.863021
H    -0.862410  -3.054056  5.521123
H    0.192479  -2.478950  4.237468
H    -1.710113  -2.459906  2.622608
H    -2.828892  -2.933162  3.904374
H    -0.454477  -4.608346  2.894805
H    -2.124903  -4.812824  2.390828
H    -2.658401  -5.439381  4.662646
H    -1.090467  -5.297324  5.106414
N    -1.029616  2.498098  3.927667
C    -1.518366  3.842047  4.160831
H    -0.225882  2.348118  3.328237
H    -1.855628  4.315816  3.227446
H    -0.741113  4.470257  4.616664
H    -2.369862  3.770176  4.846108
