33
Energy: -18208.8417155 eV PBE+vdW (tier 2 basis)
C    0.026351  0.320482  0.902621
C    -0.536955  -0.694109  1.879624
O    0.167742  -1.565017  2.383076
H    -0.181300  1.353569  1.210368
H    1.108366  0.173645  0.856200
H    -0.395762  0.171343  -0.100698
N    -1.873808  -0.622717  2.194114
C    -2.924152  0.260651  1.685076
C    -3.071159  0.095464  0.142617
O    -3.299882  -1.033401  -0.285508
H    -2.171653  -1.411992  2.757662
H    -3.858008  -0.217116  2.020434
C    -2.913034  1.656115  2.333083
C    -3.097945  1.587181  3.853451
C    -3.028132  2.948670  4.554512
C    -4.162739  3.909954  4.197876
N    -4.026669  5.163870  4.947560
H    -3.726762  2.247034  1.888298
H    -1.977968  2.191414  2.114684
H    -2.321715  0.931747  4.274008
H    -4.064158  1.103284  4.079914
H    -2.066738  3.440514  4.336938
H    -3.042263  2.781923  5.644499
H    -5.131878  3.392074  4.355230
H    -4.117323  4.166120  3.127961
H    -4.761934  5.821452  4.688570
H    -4.131347  4.991900  5.948725
N    -3.012832  1.148748  -0.733337
C    -2.606749  2.540068  -0.595272
H    -3.192338  0.824491  -1.679329
H    -3.360582  3.155664  -0.085411
H    -2.471250  2.946869  -1.603220
H    -1.651086  2.645840  -0.068122
