33
Energy: -18209.3870398 eV PBE+vdW (tier 2 basis)
C    -0.045107  -0.745127  0.080791
C    -0.375257  -1.208083  1.486594
O    0.028507  -2.292325  1.926642
H    1.041916  -0.613106  0.002167
H    -0.537911  0.192920  -0.201055
H    -0.331897  -1.532499  -0.626497
N    -1.124337  -0.351722  2.221803
C    -1.534275  -0.599831  3.590914
C    -2.582864  0.481853  3.897306
O    -2.686731  1.487231  3.189230
H    -1.443640  0.544667  1.854192
H    -2.004485  -1.596323  3.636552
C    -0.348075  -0.566201  4.606988
C    -0.026317  -1.924402  5.250484
C    1.385610  -1.984004  5.866231
C    2.463778  -2.530779  4.923117
N    2.591506  -1.746323  3.686500
H    -0.546013  0.178203  5.394114
H    0.533655  -0.201015  4.065511
H    -0.128225  -2.709993  4.485865
H    -0.772820  -2.150376  6.026674
H    1.370959  -2.629704  6.757966
H    1.682516  -0.980736  6.212963
H    2.246500  -3.601864  4.732981
H    3.430661  -2.497332  5.447532
H    3.465850  -1.983531  3.218883
H    1.844030  -2.000118  3.032729
N    -3.385641  0.302579  4.981984
C    -3.394850  -0.791540  5.936363
H    -4.001107  1.091370  5.154716
H    -4.394266  -0.866386  6.380047
H    -2.663297  -0.652598  6.747116
H    -3.179878  -1.744754  5.439813
