33
Energy: -18209.1636441 eV PBE+vdW (tier 2 basis)
C    -0.448780  -1.724338  0.105111
C    0.000152  -0.471779  0.831228
O    1.160942  -0.302384  1.202155
H    -0.776573  -1.493321  -0.918597
H    -1.290752  -2.213518  0.614220
H    0.397919  -2.413889  0.063264
N    -0.951631  0.492076  1.059073
C    -2.321892  0.523696  0.580770
C    -2.548165  0.795810  -0.928486
O    -3.610851  0.413789  -1.421342
H    -0.580058  1.319901  1.516227
H    -2.743763  -0.485955  0.687217
C    -3.195210  1.430440  1.475953
C    -2.820279  2.919085  1.551383
C    -3.307554  3.772532  0.375797
C    -2.850591  5.230965  0.449594
N    -1.382771  5.343398  0.372663
H    -3.154921  0.995675  2.485627
H    -4.232553  1.326123  1.127792
H    -1.727956  3.029892  1.661229
H    -3.244260  3.329425  2.482271
H    -4.408481  3.744368  0.346020
H    -2.962282  3.353062  -0.578851
H    -3.275687  5.705649  1.355924
H    -3.268326  5.772751  -0.410578
H    -1.113203  6.285175  0.091458
H    -0.957874  5.192588  1.287561
N    -1.590507  1.381948  -1.708145
C    -0.373239  2.121099  -1.373334
H    -1.912430  1.455951  -2.668790
H    -0.004637  2.573216  -2.300789
H    0.417807  1.472135  -0.979874
H    -0.560779  2.945125  -0.670555
