33
Energy: -18209.0786143 eV PBE+vdW (tier 2 basis)
C    -1.490812  -0.540486  -0.647827
C    -1.193822  -0.030290  0.750877
O    -0.092616  -0.168843  1.274056
H    -2.543589  -0.446320  -0.943698
H    -1.194042  -1.593993  -0.707767
H    -0.871418  0.017155  -1.362574
N    -2.235936  0.625018  1.358595
C    -2.160163  1.176595  2.706933
C    -3.137776  0.464450  3.667222
O    -2.709815  -0.180845  4.619251
H    -3.108349  0.683759  0.848682
H    -1.173353  0.869555  3.076546
C    -2.269989  2.719677  2.768245
C    -0.938666  3.474459  2.646825
C    -0.165541  3.319072  1.328288
C    -0.933217  3.694303  0.058939
N    -1.484066  5.056043  0.138662
H    -2.717783  2.989567  3.737615
H    -2.972287  3.081602  2.002441
H    -0.280108  3.159518  3.471407
H    -1.154786  4.540096  2.811377
H    0.206906  2.290086  1.220345
H    0.736649  3.951419  1.392055
H    -1.780847  3.005724  -0.081088
H    -0.261559  3.535053  -0.807327
H    -1.970556  5.296373  -0.724992
H    -0.726927  5.734775  0.238364
N    -4.492786  0.533078  3.433908
C    -5.250316  1.442404  2.590762
H    -5.015671  0.050081  4.159322
H    -6.251121  1.023308  2.433602
H    -4.795032  1.562013  1.600704
H    -5.359503  2.446985  3.029433
