33
Energy: -18209.4718866 eV PBE+vdW (tier 2 basis)
C    0.119146  -2.091188  0.857059
C    -0.232855  -1.175286  2.014278
O    0.202950  -1.361451  3.151196
H    -0.427530  -1.865124  -0.066413
H    -0.079481  -3.127564  1.154028
H    1.195991  -2.008283  0.658491
N    -1.028351  -0.113709  1.691194
C    -1.569022  0.792451  2.686057
C    -3.042603  1.029069  2.314242
O    -3.424361  0.969620  1.144599
H    -1.491370  -0.069117  0.785898
H    -1.487980  0.280733  3.658497
C    -0.830849  2.150036  2.778233
C    0.617869  2.072957  3.290072
C    1.677497  1.783933  2.222380
C    3.079668  1.657554  2.812528
N    4.069760  1.407968  1.754566
H    -1.416029  2.789382  3.457622
H    -0.868171  2.638397  1.791388
H    0.678869  1.310708  4.082862
H    0.863200  3.035300  3.767940
H    1.679774  2.583235  1.464402
H    1.434023  0.853758  1.688756
H    3.062861  0.878538  3.600230
H    3.355447  2.602342  3.308144
H    5.009831  1.373337  2.149533
H    3.904881  0.491065  1.335395
N    -3.858822  1.338129  3.357713
C    -5.262242  1.669304  3.194627
H    -3.464454  1.322878  4.290703
H    -5.474701  2.688419  3.546733
H    -5.902005  0.962626  3.740759
H    -5.493811  1.605323  2.126495
