33
Energy: -18209.3858554 eV PBE+vdW (tier 2 basis)
C    0.145605  -0.560340  -0.008098
C    -0.329344  -0.518055  1.431440
O    0.441729  -0.582495  2.385059
H    -0.213756  0.302106  -0.586029
H    -0.211786  -1.468031  -0.515340
H    1.238375  -0.566480  -0.003346
N    -1.686531  -0.389460  1.636923
C    -2.750998  -0.356899  0.642971
C    -3.068568  1.048052  0.073682
O    -3.861654  1.168546  -0.857860
H    -1.950128  -0.418908  2.618629
H    -2.436376  -0.945437  -0.230496
C    -4.040773  -0.998061  1.187950
C    -4.655688  -0.275359  2.391797
C    -5.995110  -0.865830  2.856510
C    -5.943534  -2.324485  3.322773
N    -5.027566  -2.498494  4.459743
H    -3.816574  -2.048211  1.429700
H    -4.764248  -1.007097  0.360862
H    -4.814574  0.782551  2.131992
H    -3.961658  -0.269045  3.249984
H    -6.726677  -0.788666  2.035874
H    -6.376869  -0.252264  3.686035
H    -5.713335  -2.984864  2.463435
H    -6.948743  -2.609958  3.664491
H    -5.167419  -3.411679  4.890910
H    -4.054751  -2.480230  4.151708
N    -2.424558  2.084294  0.671324
C    -2.608771  3.463299  0.265733
H    -1.790135  1.858024  1.429826
H    -1.659311  3.912343  -0.057011
H    -3.024715  4.066542  1.084739
H    -3.311876  3.470220  -0.574245
