33
Energy: -18209.5205303 eV PBE+vdW (tier 2 basis)
C    0.232669  0.262797  0.071766
C    -0.226777  0.224029  1.514309
O    -0.068278  1.185082  2.278277
H    -0.012957  -0.643816  -0.494863
H    1.318151  0.419850  0.044362
H    -0.232256  1.127851  -0.418010
N    -0.832499  -0.926128  1.912746
C    -1.454429  -1.108913  3.226398
C    -0.395108  -1.567504  4.271200
O    -0.408378  -2.684547  4.784145
H    -0.894644  -1.698922  1.260078
H    -1.801733  -0.109902  3.537845
C    -2.636883  -2.075582  3.139237
C    -3.973627  -1.430351  2.736716
C    -4.015462  -0.673469  1.399393
C    -3.802411  -1.541220  0.150998
N    -3.741997  -0.828519  -1.129547
H    -2.745982  -2.548823  4.123622
H    -2.375123  -2.906143  2.463631
H    -4.273641  -0.734969  3.536885
H    -4.743092  -2.219689  2.727616
H    -3.270030  0.138433  1.401223
H    -4.994914  -0.175229  1.310539
H    -4.606378  -2.290952  0.080933
H    -2.871668  -2.123110  0.241666
H    -3.014443  -0.111677  -1.096596
H    -4.617935  -0.331176  -1.298538
N    0.520227  -0.600610  4.543047
C    1.649946  -0.817539  5.424254
H    0.451921  0.265978  4.002440
H    2.598185  -0.845318  4.866732
H    1.509140  -1.780294  5.926851
H    1.711408  -0.022616  6.179643
