33
Energy: -18209.0732921 eV PBE+vdW (tier 2 basis)
C    -0.240840  -0.108285  -0.126034
C    -0.134312  0.077642  1.379214
O    0.924288  0.418333  1.906854
H    0.015551  0.840549  -0.613477
H    -1.229930  -0.431960  -0.472515
H    0.505845  -0.848475  -0.438770
N    -1.288033  -0.178817  2.066998
C    -1.544127  -0.077453  3.512926
C    -2.191033  1.298622  3.840536
O    -3.421352  1.344383  3.943241
H    -2.112717  -0.363082  1.507969
H    -2.398857  -0.747786  3.680738
C    -0.404300  -0.609719  4.399873
C    -0.847402  -0.968393  5.826857
C    -1.164690  0.215163  6.748418
C    -1.523094  -0.199334  8.177371
N    -0.386376  -0.822872  8.872129
H    0.451354  0.072001  4.429223
H    -0.035121  -1.522251  3.908623
H    -0.029606  -1.556395  6.272134
H    -1.722499  -1.640572  5.782924
H    -2.010575  0.792867  6.348583
H    -0.295328  0.890904  6.788828
H    -2.429851  -0.837437  8.148200
H    -1.796398  0.702221  8.744447
H    -0.589014  -0.915546  9.867086
H    -0.225760  -1.769758  8.528046
N    -1.447598  2.432442  3.961600
C    -0.008087  2.648878  3.972232
H    -2.035034  3.231963  4.182569
H    0.406923  2.597039  4.991355
H    0.196690  3.648326  3.568842
H    0.504343  1.921294  3.333988
