33
Energy: -18209.6394442 eV PBE+vdW (tier 2 basis)
C    1.878697  1.485550  0.275377
C    0.457578  1.097558  0.641498
O    -0.520006  1.537884  0.032465
H    1.969452  2.577589  0.327364
H    2.069863  1.190670  -0.764167
H    2.638220  1.028297  0.920983
N    0.340180  0.209874  1.670541
C    -0.952810  -0.130014  2.230242
C    -0.668075  -0.703880  3.636603
O    0.442359  -0.557547  4.162352
H    1.116069  0.044153  2.312729
H    -1.525759  0.806219  2.368772
C    -1.791539  -1.057477  1.320010
C    -3.283275  -0.692522  1.330594
C    -4.227476  -1.829598  0.926153
C    -4.178391  -3.056832  1.843096
N    -4.278706  -2.672319  3.266227
H    -1.629092  -2.102137  1.624692
H    -1.407472  -0.966411  0.296944
H    -3.432486  0.165328  0.658944
H    -3.574111  -0.334481  2.330322
H    -4.009473  -2.162470  -0.100926
H    -5.259571  -1.441543  0.903074
H    -3.220695  -3.583938  1.720040
H    -4.967093  -3.764980  1.531441
H    -4.298821  -3.508616  3.851324
H    -5.163112  -2.188020  3.435786
N    -1.685985  -1.340763  4.258441
C    -1.501634  -1.900979  5.585165
H    -2.560150  -1.586606  3.776530
H    -2.458470  -2.318532  5.917533
H    -1.181400  -1.127801  6.295692
H    -0.739814  -2.694654  5.592157
