33
Energy: -18208.7416501 eV PBE+vdW (tier 2 basis)
C    0.145227  0.868794  -0.218074
C    0.317990  0.745360  1.282056
O    1.410756  0.919484  1.816203
H    -0.652406  1.572559  -0.487068
H    -0.089732  -0.109255  -0.659292
H    1.091128  1.224833  -0.634034
N    -0.775346  0.428764  2.055516
C    -2.162110  0.069408  1.726994
C    -2.217378  -1.331783  1.049815
O    -1.978775  -2.308350  1.760202
H    -0.501984  0.263089  3.019478
H    -2.583624  -0.173809  2.710647
C    -3.005013  1.238687  1.192584
C    -4.526194  1.013325  1.250742
C    -5.107059  0.789222  2.661909
C    -5.356371  -0.679423  3.019102
N    -5.851955  -0.796238  4.393958
H    -2.715715  1.522833  0.173528
H    -2.753435  2.104683  1.824057
H    -4.815851  0.165051  0.609064
H    -4.999197  1.895483  0.796483
H    -6.065617  1.325881  2.745738
H    -4.452803  1.234502  3.428238
H    -4.422761  -1.258049  2.959820
H    -6.034551  -1.114432  2.255972
H    -5.922759  -1.775410  4.669032
H    -6.789949  -0.400976  4.474256
N    -2.491882  -1.526494  -0.279917
C    -2.883453  -0.642813  -1.368830
H    -2.487145  -2.520657  -0.491202
H    -2.837067  -1.222371  -2.297319
H    -2.201275  0.205555  -1.482085
H    -3.909255  -0.261457  -1.262941
