33
Energy: -18209.2047407 eV PBE+vdW (tier 2 basis)
C    -0.048642  0.111329  0.003979
C    0.052643  -0.037453  1.513312
O    1.134093  -0.083899  2.093088
H    0.967630  0.115321  -0.398025
H    -0.544331  1.050656  -0.279492
H    -0.613657  -0.712881  -0.452926
N    -1.125889  -0.105638  2.217499
C    -2.484536  -0.188113  1.686270
C    -3.377890  0.655192  2.621045
O    -3.942862  0.158342  3.593222
H    -1.004027  -0.283802  3.212248
H    -2.467794  0.273601  0.692252
C    -2.995438  -1.629731  1.569801
C    -4.352761  -1.768183  0.867858
C    -4.364256  -1.318859  -0.597908
C    -5.718321  -1.498694  -1.289053
N    -6.087063  -2.916522  -1.402330
H    -3.061332  -2.050562  2.582809
H    -2.232337  -2.209005  1.026579
H    -5.117360  -1.212760  1.435128
H    -4.641890  -2.828756  0.922951
H    -3.603705  -1.881164  -1.163956
H    -4.095200  -0.251841  -0.670761
H    -5.648839  -1.097154  -2.310539
H    -6.474341  -0.883313  -0.759347
H    -6.378197  -3.289407  -0.498547
H    -6.886731  -3.025969  -2.025108
N    -3.483103  1.986773  2.333888
C    -2.750702  2.740326  1.328584
H    -4.007903  2.507129  3.030208
H    -3.076712  3.784553  1.375338
H    -2.961825  2.377519  0.312363
H    -1.663646  2.713729  1.496337
