33
Energy: -18209.4331907 eV PBE+vdW (tier 2 basis)
C    -0.006460  1.375726  1.735930
C    -0.222973  0.198240  2.667223
O    0.611518  -0.148669  3.498881
H    -0.823227  2.107615  1.800011
H    0.056138  1.044768  0.689268
H    0.936027  1.855584  2.011084
N    -1.420458  -0.474635  2.552395
C    -2.488259  -0.249507  1.586830
C    -3.508653  0.842974  1.989265
O    -4.352961  1.225299  1.181228
H    -1.485056  -1.293301  3.152587
H    -2.049389  0.111789  0.645806
C    -3.235588  -1.559367  1.273745
C    -3.980354  -2.174995  2.460920
C    -4.720010  -3.461961  2.087579
C    -5.388835  -4.153037  3.278414
N    -4.390040  -4.596769  4.262120
H    -2.507389  -2.278707  0.866726
H    -3.948181  -1.332525  0.468389
H    -4.705815  -1.445222  2.856302
H    -3.295967  -2.408571  3.291778
H    -4.015904  -4.168472  1.613273
H    -5.487075  -3.244655  1.327271
H    -6.034178  -4.969632  2.901090
H    -6.055154  -3.437032  3.784782
H    -4.843985  -4.923343  5.114466
H    -3.859740  -5.388833  3.895877
N    -3.397093  1.309816  3.260222
C    -4.281070  2.318308  3.808139
H    -2.658467  0.914716  3.832650
H    -3.718073  3.201094  4.141420
H    -4.856173  1.924702  4.658130
H    -4.976299  2.615266  3.015270
