33
Energy: -18209.025242 eV PBE+vdW (tier 2 basis)
C    -0.448151  -1.437097  0.392329
C    -0.732955  -0.146394  1.144603
O    -0.366955  0.942966  0.705919
H    0.639454  -1.563785  0.319606
H    -0.833894  -1.338456  -0.629474
H    -0.878343  -2.334745  0.853420
N    -1.413897  -0.315000  2.321205
C    -1.793524  0.673464  3.344589
C    -3.320805  0.947648  3.326919
O    -3.992084  0.619793  4.308377
H    -1.687608  -1.265372  2.541971
H    -1.684764  0.142661  4.301509
C    -0.868713  1.904260  3.426776
C    -0.879836  2.610081  4.795983
C    -2.112951  3.425188  5.222069
C    -2.341362  4.768132  4.505352
N    -2.824045  4.748736  3.117989
H    -1.063770  2.607774  2.611744
H    0.151911  1.537577  3.249134
H    -0.003955  3.279955  4.818422
H    -0.686220  1.848392  5.569526
H    -1.991712  3.652534  6.294588
H    -3.027141  2.815472  5.160733
H    -1.411425  5.359347  4.522020
H    -3.071967  5.344152  5.095470
H    -3.597195  4.087631  3.031304
H    -2.096843  4.417287  2.485749
N    -3.912882  1.543175  2.251734
C    -3.378621  1.890280  0.945025
H    -4.921652  1.599119  2.368231
H    -3.771299  2.867225  0.632841
H    -3.657732  1.144253  0.184604
H    -2.286264  1.947798  0.963488
