33
Energy: -18209.0736812 eV PBE+vdW (tier 2 basis)
C    1.833960  -0.823890  0.154641
C    1.254644  0.328509  0.956913
O    1.925862  1.305447  1.274750
H    2.569466  -1.347365  0.779405
H    2.370549  -0.417421  -0.710345
H    1.086726  -1.548930  -0.191523
N    -0.070883  0.201593  1.281747
C    -0.805048  1.092506  2.179512
C    -0.434702  2.590356  2.028015
O    -0.185664  3.287587  3.005925
H    -0.529977  -0.666352  1.031452
H    -1.855361  1.044469  1.840543
C    -0.800673  0.610568  3.650185
C    0.528406  0.118549  4.246167
C    1.567280  1.173444  4.648734
C    1.148654  2.095642  5.805868
N    0.857714  1.464317  7.101557
H    -1.519161  -0.223052  3.704380
H    -1.222359  1.423858  4.256710
H    0.994185  -0.594038  3.547216
H    0.275840  -0.486625  5.133280
H    1.830257  1.792199  3.780493
H    2.489977  0.641992  4.940324
H    0.269434  2.684183  5.510288
H    1.951942  2.830029  5.968679
H    0.039680  0.858068  7.033908
H    1.634206  0.865772  7.389479
N    -0.563746  3.154536  0.787258
C    -0.802039  2.531000  -0.500096
H    -0.271625  4.126795  0.785640
H    -1.176657  3.295105  -1.191758
H    -1.569851  1.751428  -0.426040
H    0.106532  2.084965  -0.934814
