33
Energy: -18208.9789328 eV PBE+vdW (tier 2 basis)
C    0.341672  -0.352621  -0.021792
C    0.304053  -0.101137  1.478220
O    1.312027  0.242205  2.092597
H    0.707763  0.554421  -0.518561
H    -0.623485  -0.635359  -0.460182
H    1.068919  -1.149170  -0.222280
N    -0.927293  -0.271737  2.050924
C    -1.346253  -0.229814  3.461040
C    -2.189683  1.006698  3.855849
O    -3.151799  0.830958  4.605900
H    -1.667546  -0.541640  1.414054
H    -2.104050  -1.021924  3.532457
C    -0.272683  -0.614837  4.512736
C    0.653288  0.459452  5.105044
C    0.053307  1.281711  6.249642
C    1.007480  2.354152  6.802427
N    2.255364  1.899101  7.425430
H    0.330105  -1.413937  4.060606
H    -0.830321  -1.080487  5.339553
H    1.029246  1.116104  4.309769
H    1.545296  -0.067486  5.479977
H    -0.247387  0.607567  7.070800
H    -0.869937  1.785014  5.926214
H    0.468685  2.958812  7.548020
H    1.281807  3.047914  5.990648
H    2.836001  1.398742  6.752152
H    2.056566  1.241833  8.181466
N    -1.895442  2.251103  3.381861
C    -0.784070  2.738176  2.580601
H    -2.569601  2.938594  3.706217
H    -0.546104  3.761271  2.896652
H    -1.024075  2.755575  1.505820
H    0.114036  2.130360  2.724231
