33
Energy: -18209.457356 eV PBE+vdW (tier 2 basis)
C    0.530468  0.125953  1.518703
C    0.062003  0.369313  2.936236
O    0.778402  0.138342  3.910112
H    0.181677  0.882803  0.805337
H    0.173892  -0.862121  1.191909
H    1.623994  0.105507  1.527146
N    -1.209799  0.872206  3.120179
C    -2.326607  0.839371  2.177895
C    -2.940689  2.233884  1.907373
O    -3.972433  2.349497  1.249338
H    -1.462300  0.890043  4.107346
H    -1.924803  0.517506  1.206584
C    -3.417366  -0.169155  2.579823
C    -2.938943  -1.630475  2.586938
C    -2.359906  -2.137065  3.917293
C    -1.474701  -3.376224  3.760230
N    -0.250028  -3.042294  3.017650
H    -4.236959  -0.030358  1.863551
H    -3.828239  0.112230  3.564981
H    -2.179855  -1.768355  1.801499
H    -3.781871  -2.280880  2.307872
H    -3.179574  -2.364385  4.616933
H    -1.756743  -1.356979  4.407037
H    -2.015829  -4.146104  3.186862
H    -1.280524  -3.806560  4.761365
H    0.290854  -3.883248  2.819654
H    0.347766  -2.432434  3.580040
N    -2.241888  3.281411  2.421009
C    -2.634256  4.661073  2.218051
H    -1.384579  3.058939  2.916630
H    -1.892657  5.204489  1.615132
H    -2.759074  5.181280  3.177526
H    -3.590815  4.658520  1.684116
