33
Energy: -18209.5635364 eV PBE+vdW (tier 2 basis)
C    -2.326632  2.758070  3.898605
C    -1.200105  1.790036  4.223404
O    -0.146838  2.165069  4.735178
H    -3.174799  2.284353  3.389212
H    -1.932843  3.566905  3.270890
H    -2.677222  3.214764  4.833143
N    -1.443807  0.484225  3.882986
C    -0.563750  -0.591915  4.327314
C    0.628600  -0.893166  3.391873
O    1.438930  -1.770051  3.687955
H    -2.412232  0.214866  3.646927
H    -0.095322  -0.275536  5.272529
C    -1.372737  -1.877042  4.556472
C    -1.927689  -2.531135  3.266305
C    -3.419736  -2.904980  3.302407
C    -4.373740  -1.822779  2.792744
N    -4.268251  -0.560255  3.553889
H    -2.188711  -1.641085  5.255292
H    -0.714410  -2.585044  5.073863
H    -1.337054  -3.432127  3.056714
H    -1.754523  -1.869416  2.402196
H    -3.707140  -3.203131  4.325545
H    -3.593733  -3.794874  2.678840
H    -5.402881  -2.226658  2.785440
H    -4.118023  -1.589102  1.747396
H    -4.933659  0.121007  3.185343
H    -4.540199  -0.717262  4.526909
N    0.685511  -0.153567  2.254358
C    1.787387  -0.240741  1.319520
H    -0.004360  0.583606  2.159927
H    2.415049  0.662017  1.351550
H    1.422903  -0.383401  0.292964
H    2.398016  -1.103650  1.607312
