33
Energy: -18209.4557105 eV PBE+vdW (tier 2 basis)
C    -0.447192  1.421487  -0.069651
C    -0.484665  1.357917  1.443454
O    0.243263  2.084353  2.134907
H    -1.303683  0.936716  -0.554070
H    0.471792  0.925442  -0.412621
H    -0.395377  2.469660  -0.382842
N    -1.339539  0.439773  1.967852
C    -1.459385  0.020092  3.375391
C    -2.107642  1.067315  4.318541
O    -3.029066  0.723036  5.060458
H    -1.919544  -0.064424  1.309321
H    -2.196977  -0.792519  3.365793
C    -0.153226  -0.530790  3.987664
C    0.271402  -1.924711  3.497265
C    0.830098  -2.046824  2.069447
C    2.074829  -1.202634  1.778996
N    3.198313  -1.583557  2.649858
H    -0.331192  -0.592831  5.071504
H    0.650860  0.206127  3.852069
H    -0.585250  -2.610812  3.599539
H    1.029029  -2.311174  4.197447
H    0.056301  -1.788513  1.330562
H    1.086773  -3.103401  1.897204
H    1.824945  -0.126838  1.835770
H    2.386338  -1.395938  0.741663
H    4.055986  -1.133505  2.330498
H    3.044373  -1.245221  3.600552
N    -1.559023  2.305645  4.288609
C    -2.026250  3.382769  5.137680
H    -0.778516  2.456453  3.638815
H    -2.321885  4.255090  4.538155
H    -1.247475  3.695505  5.848582
H    -2.893753  3.022370  5.700718
