33
Energy: -18209.2550732 eV PBE+vdW (tier 2 basis)
C    -0.050646  -1.666801  2.148452
C    -0.283270  -0.225984  2.556788
O    0.590729  0.409772  3.139839
H    -0.863350  -2.138498  1.591274
H    0.134625  -2.244536  3.063515
H    0.865719  -1.706519  1.548497
N    -1.521155  0.359628  2.346790
C    -2.622915  0.019318  1.433854
C    -3.233603  -1.380658  1.687404
O    -3.726162  -2.050458  0.779052
H    -1.498639  1.331883  2.646761
H    -3.435834  0.700607  1.739071
C    -2.380842  0.308826  -0.055144
C    -1.288703  -0.497493  -0.771749
C    -1.418322  -0.440665  -2.305398
C    -2.327299  -1.524248  -2.898610
N    -3.715637  -1.434257  -2.426488
H    -2.150862  1.382322  -0.147221
H    -3.339941  0.162121  -0.568782
H    -1.329608  -1.552866  -0.463201
H    -0.299283  -0.124676  -0.467690
H    -0.422752  -0.563206  -2.759015
H    -1.784797  0.551665  -2.614349
H    -1.860890  -2.511323  -2.696347
H    -2.337896  -1.404803  -3.992451
H    -4.314642  -2.032798  -2.993986
H    -3.795903  -1.774971  -1.464228
N    -3.254020  -1.756743  2.993412
C    -3.794780  -3.024273  3.441353
H    -2.763345  -1.159264  3.650447
H    -4.500789  -2.875657  4.268900
H    -2.999168  -3.708054  3.772783
H    -4.321902  -3.480752  2.597155
