33
Energy: -18209.1103933 eV PBE+vdW (tier 2 basis)
C    -0.025303  -0.580136  0.032706
C    -0.059844  0.371856  1.216719
O    0.715418  1.316417  1.321737
H    -0.023082  0.008485  -0.892113
H    -0.860014  -1.291865  0.005208
H    0.916701  -1.142761  0.064400
N    -1.030123  0.108201  2.148449
C    -1.155986  0.808263  3.428286
C    -0.985461  2.346872  3.293792
O    -0.196320  2.965442  3.998647
H    -1.593304  -0.724174  2.022279
H    -2.198780  0.642795  3.753248
C    -0.214439  0.241743  4.502551
C    -0.676271  0.533617  5.934906
C    0.330805  0.110152  7.012544
C    0.581461  -1.402479  7.108102
N    1.480214  -1.845160  8.180183
H    0.787351  0.662260  4.336034
H    -0.148358  -0.843983  4.337226
H    -1.641657  0.028191  6.118794
H    -0.859613  1.612236  6.033027
H    -0.029289  0.464115  7.992978
H    1.289241  0.626748  6.835044
H    0.997174  -1.779830  6.161590
H    -0.381856  -1.922176  7.243670
H    1.140258  -1.512069  9.084166
H    2.404986  -1.429586  8.056570
N    -1.834366  3.006327  2.445422
C    -2.790017  2.474359  1.493424
H    -1.614171  3.995416  2.382653
H    -3.347912  1.632702  1.921883
H    -2.320445  2.137022  0.555703
H    -3.517242  3.259454  1.253458
