33
Energy: -18209.4360136 eV PBE+vdW (tier 2 basis)
C    -0.019698  0.745064  0.233811
C    -0.098491  0.624313  1.743838
O    0.865858  0.863281  2.470641
H    0.769430  0.076135  -0.131370
H    0.276065  1.769733  -0.023293
H    -0.960328  0.505379  -0.276516
N    -1.321499  0.255853  2.235129
C    -1.519056  -0.067344  3.633886
C    -2.322615  -1.373949  3.689991
O    -3.054825  -1.703904  2.753963
H    -2.031503  -0.125845  1.612982
H    -0.515828  -0.186623  4.070386
C    -2.274211  1.039524  4.405337
C    -1.523940  2.372744  4.443393
C    -2.252411  3.471052  5.228553
C    -2.410799  3.210047  6.738292
N    -1.181186  3.046465  7.521181
H    -2.464310  0.681241  5.428830
H    -3.263597  1.173113  3.938327
H    -1.356718  2.719980  3.413991
H    -0.515267  2.214076  4.858275
H    -3.255101  3.630280  4.795228
H    -1.708767  4.420636  5.092920
H    -3.028571  2.313528  6.904603
H    -2.977207  4.042352  7.182516
H    -0.590039  3.874450  7.429437
H    -0.628175  2.265408  7.166045
N    -2.225955  -2.132531  4.817663
C    -1.425435  -1.892844  6.006286
H    -2.846274  -2.936725  4.814492
H    -0.462148  -1.440405  5.744059
H    -1.217375  -2.851872  6.494127
H    -1.930761  -1.238406  6.733851
