33
Energy: -18209.4717662 eV PBE+vdW (tier 2 basis)
C    1.569866  -0.513339  1.233320
C    0.160049  -0.499227  1.792540
O    -0.806893  -0.887349  1.135309
H    2.309199  -0.038800  1.889992
H    1.569065  -0.007987  0.260488
H    1.867872  -1.556065  1.061092
N    0.053616  -0.075824  3.087055
C    -1.226326  0.150632  3.732535
C    -1.186918  1.572395  4.317581
O    -0.134477  2.068000  4.722978
H    0.834455  0.406202  3.527000
H    -1.992013  0.070610  2.944801
C    -1.546672  -0.858164  4.862065
C    -1.949738  -2.269725  4.418473
C    -0.840564  -3.145690  3.825774
C    -1.230559  -4.624321  3.745487
N    -1.431363  -5.200908  5.084113
H    -2.373116  -0.435457  5.455612
H    -0.678853  -0.901358  5.539896
H    -2.776339  -2.198677  3.691586
H    -2.354752  -2.792927  5.297715
H    0.075119  -3.049327  4.435643
H    -0.579861  -2.806497  2.814604
H    -0.471604  -5.159577  3.142982
H    -2.182721  -4.717687  3.199465
H    -0.536396  -5.286460  5.568321
H    -1.814293  -6.143366  5.016494
N    -2.391031  2.202446  4.384110
C    -2.567631  3.513269  4.980666
H    -3.195835  1.730777  3.989093
H    -3.249787  3.471338  5.841365
H    -2.960820  4.232143  4.248794
H    -1.584680  3.854919  5.321050
