33
Energy: -18209.446024 eV PBE+vdW (tier 2 basis)
C    -0.749233  -0.072106  0.558291
C    -0.497093  0.074079  2.044163
O    0.227383  0.971792  2.495511
H    -1.210607  0.852437  0.188971
H    -1.396423  -0.919847  0.302595
H    0.212859  -0.185271  0.043686
N    -1.111981  -0.837777  2.843439
C    -1.070380  -0.784046  4.308926
C    0.222765  -1.440623  4.874080
O    0.216880  -2.456042  5.569828
H    -1.658334  -1.574274  2.413485
H    -0.992858  0.288275  4.550312
C    -2.376097  -1.302302  4.931216
C    -2.704059  -2.807245  4.904265
C    -2.688659  -3.498101  3.535874
C    -3.182728  -4.947333  3.578110
N    -4.613960  -5.025222  3.905404
H    -3.193425  -0.739393  4.451203
H    -2.369593  -0.985370  5.984247
H    -3.711428  -2.901655  5.340625
H    -2.008537  -3.333737  5.569892
H    -1.656734  -3.520097  3.147651
H    -3.320826  -2.947830  2.815673
H    -2.534633  -5.521716  4.269642
H    -3.051661  -5.393619  2.581586
H    -4.768650  -4.832010  4.895146
H    -4.960313  -5.970845  3.745908
N    1.344026  -0.753667  4.531313
C    2.674503  -1.197420  4.893442
H    1.220752  0.055958  3.914808
H    3.218588  -0.407281  5.429107
H    3.257836  -1.482849  4.005515
H    2.575619  -2.069863  5.548082
