33
Energy: -18209.1239933 eV PBE+vdW (tier 2 basis)
C    0.551135  2.506439  0.539838
C    0.274905  2.284802  2.017415
O    0.608762  3.093765  2.877223
H    0.075651  1.769478  -0.119636
H    1.636466  2.474934  0.378337
H    0.209238  3.510878  0.264176
N    -0.387368  1.123961  2.320607
C    -0.627757  0.660675  3.687041
C    -1.240556  1.742827  4.614090
O    -0.806435  1.926057  5.745920
H    -0.584929  0.478654  1.565806
H    -1.400066  -0.122510  3.597143
C    0.625975  0.055312  4.336109
C    1.259105  -1.093938  3.542484
C    0.367598  -2.322379  3.293852
C    -0.218587  -2.969078  4.552642
N    0.839240  -3.462553  5.444083
H    0.348831  -0.264235  5.349773
H    1.358856  0.861263  4.474065
H    2.169948  -1.413920  4.071452
H    1.616446  -0.717692  2.570685
H    0.959053  -3.080671  2.758813
H    -0.470398  -2.058277  2.625603
H    -0.823433  -3.836079  4.248812
H    -0.916935  -2.262186  5.045082
H    1.328490  -2.684770  5.888467
H    0.434849  -4.011326  6.202417
N    -2.352466  2.411427  4.175808
C    -3.051910  2.339697  2.907656
H    -2.650879  3.122413  4.835738
H    -4.073063  2.712621  3.053362
H    -3.130791  1.304049  2.554161
H    -2.573888  2.940142  2.117770
