33
Energy: -18209.5251789 eV PBE+vdW (tier 2 basis)
C    1.313383  -3.701566  1.207687
C    0.163042  -2.985947  1.889804
O    -0.979647  -2.988136  1.426719
H    1.063004  -4.765925  1.117554
H    2.269345  -3.601718  1.736082
H    1.421485  -3.304031  0.190936
N    0.476574  -2.342419  3.049649
C    -0.506172  -1.584019  3.798280
C    0.261184  -0.498390  4.563308
O    1.409468  -0.692462  4.966322
H    1.425218  -2.310689  3.414281
H    -1.196481  -1.136037  3.068036
C    -1.305634  -2.499890  4.759762
C    -2.531101  -1.869673  5.434156
C    -3.616300  -1.338880  4.483616
C    -4.199253  -2.370716  3.496925
N    -4.843996  -3.549787  4.080197
H    -0.611132  -2.874592  5.526540
H    -1.611895  -3.369839  4.161454
H    -2.215664  -1.060976  6.111584
H    -2.978593  -2.632823  6.090678
H    -3.234969  -0.488436  3.889679
H    -4.437064  -0.923687  5.092253
H    -3.417156  -2.722383  2.807919
H    -4.942799  -1.859676  2.866074
H    -5.531477  -3.281897  4.786037
H    -4.164935  -4.153510  4.542901
N    -0.426982  0.654604  4.778564
C    0.102115  1.758813  5.557024
H    -1.359345  0.731023  4.389053
H    -0.519411  1.955212  6.441940
H    0.162679  2.675137  4.954134
H    1.109509  1.480314  5.882854
