33
Energy: -18209.1363009 eV PBE+vdW (tier 2 basis)
C    -0.761322  0.837268  0.454162
C    0.209973  0.362755  1.515016
O    1.198644  1.012552  1.850108
H    -1.725242  1.116756  0.902319
H    -0.971739  0.060443  -0.293061
H    -0.328678  1.713379  -0.035326
N    -0.052232  -0.852491  2.104643
C    -1.231527  -1.694629  1.957557
C    -2.552199  -1.044714  2.437497
O    -3.544629  -1.101311  1.708793
H    0.622287  -1.102794  2.822778
H    -1.427207  -1.862853  0.888112
C    -0.930940  -3.063519  2.599956
C    -2.088037  -4.079718  2.571253
C    -3.096787  -4.001616  3.731512
C    -2.666498  -4.677897  5.036461
N    -1.494665  -4.042644  5.674009
H    -0.595188  -2.903107  3.634232
H    -0.070607  -3.471946  2.048059
H    -1.657637  -5.094492  2.550233
H    -2.629452  -3.968711  1.619933
H    -4.029260  -4.489590  3.408326
H    -3.363782  -2.957160  3.942872
H    -2.513683  -5.758813  4.848498
H    -3.501232  -4.603153  5.748248
H    -1.455076  -4.302217  6.659587
H    -0.630167  -4.397710  5.263885
N    -2.596787  -0.393833  3.636912
C    -1.622121  -0.356459  4.722357
H    -3.517295  -0.008295  3.823235
H    -2.072348  0.196129  5.553963
H    -0.704772  0.170310  4.430478
H    -1.374360  -1.363402  5.090555
