33
Energy: -18209.0809387 eV PBE+vdW (tier 2 basis)
C    0.144517  0.563553  0.435227
C    -0.318008  -0.119466  1.704848
O    0.423743  -0.853217  2.355840
H    -0.215790  0.005862  -0.441089
H    1.237671  0.546519  0.429392
H    -0.216980  1.592172  0.329800
N    -1.622061  0.057118  2.114843
C    -2.694106  0.913562  1.596896
C    -2.915584  0.719613  0.079369
O    -2.741202  1.625763  -0.732978
H    -1.814354  -0.440335  2.979584
H    -3.602001  0.531466  2.089894
C    -2.538989  2.391301  1.986140
C    -3.787284  3.269731  1.797419
C    -5.061973  2.749735  2.490706
C    -6.007241  1.981861  1.563543
N    -7.066187  1.316293  2.334096
H    -1.705625  2.829041  1.419842
H    -2.244943  2.402435  3.047225
H    -3.975693  3.408771  0.722984
H    -3.538178  4.266089  2.189257
H    -5.619463  3.597253  2.920809
H    -4.804575  2.103518  3.346717
H    -5.459356  1.198953  1.016752
H    -6.382060  2.681195  0.790088
H    -7.610270  2.006879  2.854644
H    -7.723556  0.849089  1.709046
N    -3.336064  -0.518326  -0.319621
C    -3.601782  -1.693909  0.493949
H    -3.440656  -0.598812  -1.325993
H    -4.232297  -1.447869  1.359877
H    -2.680544  -2.170255  0.858339
H    -4.152568  -2.418523  -0.115419
