33
Energy: -18209.1217371 eV PBE+vdW (tier 2 basis)
C    0.733050  -0.211209  0.426287
C    -0.113404  0.596601  1.396141
O    0.380272  1.371395  2.208730
H    1.439549  0.463695  -0.070735
H    0.152988  -0.749727  -0.333704
H    1.323005  -0.938000  0.999655
N    -1.466581  0.408932  1.284043
C    -2.457816  0.970141  2.204450
C    -2.169475  2.451737  2.572178
O    -2.117778  2.821390  3.739591
H    -1.793280  -0.293750  0.631712
H    -3.410846  0.973900  1.645641
C    -2.635835  0.111098  3.465628
C    -3.973363  0.324341  4.178031
C    -4.115372  -0.536989  5.434205
C    -5.442812  -0.327637  6.159340
N    -5.540334  -1.205461  7.334169
H    -1.803166  0.329029  4.148821
H    -2.545345  -0.944542  3.163647
H    -4.799597  0.093531  3.481677
H    -4.071512  1.385900  4.447030
H    -3.286892  -0.302220  6.124560
H    -4.015346  -1.605651  5.185131
H    -6.272199  -0.588253  5.482393
H    -5.556384  0.749680  6.394986
H    -4.828068  -0.951178  8.020781
H    -6.440518  -1.081889  7.798049
N    -2.099409  3.356342  1.546175
C    -2.069744  3.129949  0.114240
H    -1.854486  4.284564  1.876640
H    -2.353499  4.060538  -0.392075
H    -2.797319  2.363460  -0.179431
H    -1.076947  2.823490  -0.252039
