33
Energy: -18208.9451921 eV PBE+vdW (tier 2 basis)
C    -0.221928  0.537493  0.299056
C    -0.116095  -0.066165  1.685349
O    0.968827  -0.103722  2.266084
H    -0.685288  -0.139784  -0.427426
H    0.794813  0.772875  -0.026088
H    -0.811689  1.462748  0.314381
N    -1.227806  -0.562935  2.333372
C    -2.643457  -0.807210  2.031809
C    -3.004077  -2.311362  2.088866
O    -3.987162  -2.668195  2.747225
H    -0.954310  -0.893193  3.256996
H    -3.211828  -0.397484  2.880789
C    -3.226472  -0.159406  0.763346
C    -4.770751  -0.254618  0.702780
C    -5.307082  -0.772557  -0.638223
C    -5.004049  -2.257320  -0.925129
N    -5.597587  -3.254935  -0.035136
H    -2.793362  -0.620796  -0.134173
H    -2.923442  0.895081  0.743390
H    -5.196406  0.737993  0.905023
H    -5.140266  -0.903229  1.509832
H    -4.899674  -0.162078  -1.463402
H    -6.399595  -0.628745  -0.665229
H    -3.913949  -2.422253  -0.923297
H    -5.329845  -2.486050  -1.951576
H    -6.615713  -3.187535  -0.046492
H    -5.302473  -3.121397  0.934566
N    -2.270332  -3.226848  1.396282
C    -1.131534  -3.056171  0.506844
H    -2.649281  -4.164447  1.491672
H    -0.940402  -4.017216  0.018276
H    -0.222602  -2.754970  1.043252
H    -1.332352  -2.322478  -0.285274
