33
Energy: -18209.0146169 eV PBE+vdW (tier 2 basis)
C    -0.045340  -0.434667  1.745007
C    -0.990238  -0.934191  2.818656
O    -0.845748  -2.042141  3.335348
H    0.100634  0.649934  1.736585
H    -0.434510  -0.725431  0.758694
H    0.914216  -0.939408  1.890123
N    -2.057817  -0.151122  3.192316
C    -2.440221  1.225555  2.863076
C    -2.248085  1.581170  1.371157
O    -1.589545  2.552930  1.007753
H    -2.603432  -0.601030  3.922728
H    -3.537109  1.242439  2.998687
C    -1.897700  2.310366  3.812984
C    -0.382378  2.484830  4.000083
C    0.364535  1.439403  4.849350
C    -0.263663  1.096177  6.201073
N    -0.503366  2.300311  7.009865
H    -2.364048  2.150867  4.797072
H    -2.301861  3.263406  3.442488
H    -0.253497  3.463503  4.483834
H    0.103661  2.574574  3.018917
H    1.385217  1.821948  5.022709
H    0.502753  0.496170  4.304836
H    0.379113  0.343839  6.697096
H    -1.236435  0.604248  6.043662
H    0.381158  2.769438  7.212444
H    -0.908274  2.050309  7.911916
N    -2.896016  0.793232  0.458946
C    -3.756993  -0.357595  0.674439
H    -2.723238  1.083987  -0.498216
H    -4.387574  -0.490014  -0.212238
H    -4.423503  -0.201027  1.532274
H    -3.193434  -1.286672  0.845278
