33
Energy: -18208.9061444 eV PBE+vdW (tier 2 basis)
C    0.465032  -0.527899  0.374399
C    0.135706  -0.008494  1.759708
O    1.038001  0.300862  2.538239
H    0.189056  0.205582  -0.394037
H    -0.044190  -1.467666  0.133673
H    1.546591  -0.682795  0.338960
N    -1.171636  0.152497  2.168822
C    -2.514887  -0.146805  1.657436
C    -3.260056  -1.177008  2.539627
O    -4.414144  -0.933623  2.906988
H    -1.180036  0.539401  3.110695
H    -3.108760  0.767017  1.811280
C    -2.648251  -0.507048  0.167531
C    -4.115500  -0.472994  -0.326320
C    -4.538711  -1.726062  -1.106201
C    -4.672789  -2.994292  -0.255966
N    -5.784320  -2.892503  0.693854
H    -2.218072  -1.499303  -0.025107
H    -2.050964  0.206332  -0.414133
H    -4.252081  0.409692  -0.966393
H    -4.799531  -0.327797  0.521299
H    -3.816286  -1.915647  -1.917916
H    -5.512256  -1.537983  -1.582474
H    -3.696063  -3.227176  0.221381
H    -4.885794  -3.837740  -0.929173
H    -5.990808  -3.802926  1.102052
H    -5.559635  -2.266742  1.470773
N    -2.659847  -2.349333  2.893241
C    -1.367861  -2.906772  2.522540
H    -3.267750  -2.924153  3.468439
H    -1.338261  -3.945739  2.867378
H    -0.529798  -2.367745  2.982629
H    -1.224736  -2.920590  1.433957
