33
Energy: -18209.5986277 eV PBE+vdW (tier 2 basis)
C    -0.547361  0.438244  -0.351668
C    -0.260820  0.040280  1.083061
O    0.852097  -0.371184  1.431566
H    -1.577087  0.777065  -0.516930
H    -0.343897  -0.421611  -1.001895
H    0.145404  1.238230  -0.641056
N    -1.302241  0.161886  1.945146
C    -1.211069  -0.156819  3.360186
C    -2.653892  -0.319419  3.854319
O    -3.577153  0.328588  3.355607
H    -2.200975  0.538116  1.650570
H    -0.658460  -1.102240  3.470047
C    -0.464628  0.967598  4.122594
C    -0.213995  0.765004  5.622227
C    0.568753  -0.484512  6.064618
C    1.911273  -0.756585  5.362450
N    1.761025  -1.570728  4.149981
H    -1.035234  1.897607  3.978106
H    0.492353  1.108598  3.599859
H    -1.172337  0.786590  6.165348
H    0.336595  1.653504  5.970893
H    -0.034998  -1.400311  5.950503
H    0.749855  -0.381044  7.146065
H    2.543425  -1.326628  6.058117
H    2.435069  0.206513  5.192549
H    1.534623  -1.018324  3.316205
H    2.633714  -2.051471  3.938301
N    -2.814722  -1.198063  4.876950
C    -4.086894  -1.424069  5.535748
H    -1.996930  -1.704938  5.196790
H    -4.832062  -0.790355  5.044119
H    -4.397239  -2.474144  5.447096
H    -4.035392  -1.157376  6.600746
