33
Energy: -18209.1349932 eV PBE+vdW (tier 2 basis)
C    -2.412708  -2.210267  -0.859183
C    -1.416992  -1.594164  0.101316
O    -0.207729  -1.775267  -0.030320
H    -3.349110  -1.657239  -0.972119
H    -2.658266  -3.224219  -0.511910
H    -1.919868  -2.300698  -1.831633
N    -1.871904  -0.873688  1.186032
C    -3.190204  -0.352066  1.556136
C    -4.351585  -1.347142  1.331728
O    -5.359445  -1.043191  0.691709
H    -1.092147  -0.523419  1.737057
H    -3.145220  -0.240211  2.654771
C    -3.502372  1.044757  0.992347
C    -3.438452  1.194038  -0.530679
C    -4.067388  2.495546  -1.046129
C    -5.574171  2.610666  -0.778354
N    -6.300898  1.452237  -1.309650
H    -2.800802  1.755689  1.458238
H    -4.502503  1.315620  1.359524
H    -3.960978  0.357732  -1.012655
H    -2.391584  1.139245  -0.864359
H    -3.903123  2.549699  -2.132712
H    -3.560301  3.367632  -0.600207
H    -5.947698  3.510524  -1.289039
H    -5.746455  2.782093  0.304262
H    -6.150528  0.631125  -0.718070
H    -7.303965  1.632493  -1.304870
N    -4.248024  -2.570905  1.926246
C    -3.193042  -3.102036  2.774071
H    -5.046025  -3.167962  1.732476
H    -3.611059  -3.916756  3.376208
H    -2.816712  -2.338317  3.465963
H    -2.340675  -3.492036  2.199332
