33
Energy: -18209.4128552 eV PBE+vdW (tier 2 basis)
C    -0.673058  3.305299  3.449152
C    -0.636519  1.932225  4.094211
O    -0.516678  1.778686  5.304517
H    0.159978  3.902595  3.837362
H    -1.602359  3.807408  3.749000
H    -0.622738  3.282599  2.353164
N    -0.734179  0.870913  3.218943
C    -0.936291  -0.499956  3.671043
C    0.252023  -1.441843  3.370714
O    0.134036  -2.659966  3.489491
H    -0.969474  1.078903  2.253588
H    -0.985439  -0.434194  4.771143
C    -2.244337  -1.092796  3.131494
C    -3.497688  -0.436030  3.715419
C    -4.825264  -0.836251  3.055024
C    -5.227484  -2.313494  3.162832
N    -4.590170  -3.155739  2.137362
H    -2.207483  -2.164139  3.368745
H    -2.248809  -1.018970  2.029559
H    -3.400949  0.659835  3.644162
H    -3.544294  -0.659020  4.794422
H    -4.812846  -0.566005  1.986566
H    -5.620625  -0.233512  3.520822
H    -6.312125  -2.386389  2.996773
H    -5.047945  -2.660759  4.200983
H    -3.605829  -3.317102  2.350495
H    -5.029310  -4.076145  2.120503
N    1.407342  -0.824323  3.006265
C    2.646606  -1.543971  2.792671
H    1.400163  0.189230  2.988320
H    3.383618  -1.317608  3.576839
H    3.081660  -1.296848  1.814808
H    2.417469  -2.614633  2.823609
