33
Energy: -18209.0965466 eV PBE+vdW (tier 2 basis)
C    0.264532  -1.509085  0.860731
C    0.021301  -0.565787  2.025620
O    0.835778  -0.417784  2.931762
H    -0.528037  -1.493784  0.102053
H    0.365019  -2.529552  1.251519
H    1.217432  -1.244538  0.386768
N    -1.168348  0.119655  1.985448
C    -1.622554  0.932321  3.120388
C    -3.158014  0.976393  3.140583
O    -3.778288  0.581813  4.124568
H    -1.863359  -0.184926  1.313861
H    -1.358232  0.391751  4.040196
C    -0.904450  2.301361  3.182894
C    -1.258507  3.159683  4.406711
C    -2.538218  3.994606  4.272917
C    -2.857514  4.835464  5.510817
N    -1.838390  5.869527  5.748825
H    -1.074970  2.872809  2.259243
H    0.166310  2.059620  3.205709
H    -0.411197  3.838469  4.586766
H    -1.330701  2.513774  5.298098
H    -3.402434  3.340721  4.085983
H    -2.441671  4.670510  3.407196
H    -3.011314  4.155643  6.372875
H    -3.814231  5.352667  5.347192
H    -2.159332  6.521059  6.464610
H    -0.980588  5.453468  6.112448
N    -3.832483  1.405263  2.019233
C    -3.360312  2.232118  0.915863
H    -4.837525  1.399013  2.175622
H    -3.366662  3.305149  1.164255
H    -4.011473  2.071231  0.047928
H    -2.341900  1.955845  0.625157
