33
Energy: -18209.5214542 eV PBE+vdW (tier 2 basis)
C    -1.639569  -1.113903  -0.921639
C    -1.361544  -0.513447  0.444121
O    -1.056528  0.670780  0.591452
H    -2.470254  -0.567100  -1.385072
H    -1.887581  -2.181830  -0.890783
H    -0.757186  -0.966835  -1.556618
N    -1.486167  -1.373214  1.496441
C    -1.155107  -0.986288  2.851069
C    -0.781511  -2.277996  3.600161
O    -1.018139  -3.391228  3.127847
H    -1.602226  -2.375815  1.359560
H    -0.281494  -0.314590  2.810422
C    -2.303688  -0.219970  3.552688
C    -3.577447  -1.045107  3.749969
C    -4.763740  -0.241014  4.299108
C    -4.583940  0.263124  5.739925
N    -5.727163  0.964415  6.332337
H    -2.513847  0.667141  2.937015
H    -1.930708  0.158462  4.517385
H    -3.373105  -1.896353  4.421447
H    -3.862404  -1.486733  2.783240
H    -5.667458  -0.871701  4.264047
H    -4.965217  0.619067  3.637491
H    -3.720950  0.943662  5.799551
H    -4.340608  -0.591657  6.392743
H    -6.559279  0.372749  6.303251
H    -5.952080  1.798077  5.787130
N    -0.204745  -2.088904  4.816702
C    0.163647  -3.182002  5.697077
H    -0.028472  -1.138511  5.119862
H    1.244861  -3.187670  5.892278
H    -0.111278  -4.116108  5.196908
H    -0.371073  -3.117503  6.654885
