33
Energy: -18209.6319006 eV PBE+vdW (tier 2 basis)
C    -2.334425  -0.005749  0.079708
C    -1.431149  -0.343515  1.248961
O    -0.218210  -0.559269  1.081644
H    -3.375976  0.165555  0.375960
H    -2.293788  -0.824742  -0.649477
H    -1.944622  0.891754  -0.417165
N    -2.040470  -0.406444  2.455943
C    -1.322662  -0.527385  3.730385
C    -0.817581  -1.963147  4.062441
O    -0.960613  -2.471892  5.176706
H    -3.037698  -0.138400  2.501896
H    -0.399470  0.069714  3.619441
C    -2.141130  0.099902  4.874580
C    -3.332154  -0.683213  5.473989
C    -4.367660  -1.326300  4.536632
C    -5.393199  -0.393688  3.889193
N    -4.784325  0.579525  2.952666
H    -2.453057  1.097805  4.527204
H    -1.441189  0.284022  5.701382
H    -3.856277  -0.004665  6.169147
H    -2.904610  -1.485871  6.084870
H    -4.939563  -2.055567  5.131749
H    -3.864322  -1.918203  3.756616
H    -5.983060  0.107072  4.679115
H    -6.100419  -1.001871  3.307412
H    -5.484090  0.919733  2.293291
H    -4.455607  1.402609  3.459224
N    -0.165591  -2.567707  3.041750
C    0.440043  -3.875140  3.198072
H    0.031460  -1.996488  2.209253
H    -0.247160  -4.545766  3.728181
H    1.375999  -3.832007  3.777391
H    0.656573  -4.288662  2.206841
