33
Energy: -18209.0926678 eV PBE+vdW (tier 2 basis)
C    0.083415  0.580424  0.961235
C    -0.381232  -0.330508  2.078301
O    0.408747  -0.855201  2.860730
H    -0.584284  1.427352  0.769281
H    0.157404  0.008404  0.025049
H    1.082169  0.941365  1.221346
N    -1.726639  -0.610239  2.185928
C    -2.882526  -0.082374  1.453738
C    -2.695873  -0.171676  -0.076706
O    -2.726541  0.820255  -0.806277
H    -1.922782  -1.221006  2.973719
H    -3.697106  -0.784303  1.691988
C    -3.305361  1.311927  1.949388
C    -4.593451  1.935606  1.384391
C    -5.878981  1.091943  1.434720
C    -6.082543  0.083601  0.292292
N    -6.052653  0.738378  -1.018339
H    -2.476707  2.012897  1.773905
H    -3.398734  1.218137  3.043381
H    -4.416550  2.276344  0.356750
H    -4.768367  2.851341  1.969084
H    -6.735035  1.782261  1.404555
H    -5.946324  0.557234  2.398238
H    -7.077524  -0.369594  0.416562
H    -5.360435  -0.754551  0.380003
H    -6.410520  0.111469  -1.737540
H    -5.093208  0.969560  -1.282906
N    -2.520044  -1.420271  -0.600496
C    -2.493410  -2.703477  0.082242
H    -2.392563  -1.412559  -1.607537
H    -3.321496  -2.791415  0.799321
H    -1.550089  -2.875623  0.619075
H    -2.621849  -3.494647  -0.664374
