33
Energy: -18209.0780366 eV PBE+vdW (tier 2 basis)
C    -0.682750  -0.153625  -0.749598
C    -0.415192  -0.270882  0.735731
O    0.632541  -0.744390  1.172857
H    -0.377933  0.847808  -1.086277
H    -1.732841  -0.289440  -1.031881
H    -0.056822  -0.888526  -1.263680
N    -1.365983  0.194239  1.616959
C    -2.680504  0.798049  1.386419
C    -3.631709  -0.142613  0.603814
O    -4.147147  0.188352  -0.462311
H    -1.046688  0.136285  2.579297
H    -3.116731  0.892687  2.393522
C    -2.645465  2.195406  0.749340
C    -1.675332  3.198000  1.386876
C    -2.013466  3.707211  2.799479
C    -1.566953  2.821517  3.965842
N    -1.733786  3.532853  5.238139
H    -3.669862  2.596745  0.774787
H    -2.409847  2.086462  -0.317526
H    -1.641450  4.069476  0.716839
H    -0.653650  2.784448  1.381164
H    -3.099970  3.891700  2.873259
H    -1.531904  4.684585  2.952258
H    -0.496113  2.592162  3.850567
H    -2.102580  1.849530  3.940276
H    -2.722137  3.711886  5.421942
H    -1.389802  2.970755  6.016441
N    -3.885102  -1.365391  1.159380
C    -3.390660  -1.931806  2.403154
H    -4.485271  -1.943959  0.580194
H    -4.038149  -2.770333  2.683179
H    -3.434888  -1.199764  3.221116
H    -2.357220  -2.297906  2.320605
