33
Energy: -18209.1326868 eV PBE+vdW (tier 2 basis)
C    -0.746886  -0.509824  0.321091
C    -0.420232  -0.158693  1.764773
O    0.742028  0.008436  2.132439
H    -0.254898  0.217091  -0.335914
H    -1.819619  -0.533181  0.092130
H    -0.317517  -1.494909  0.097177
N    -1.513168  -0.056374  2.583215
C    -1.603494  0.175665  4.032291
C    -2.112198  1.588230  4.417736
O    -3.081091  1.675280  5.174694
H    -2.409046  -0.202868  2.133615
H    -2.439610  -0.453610  4.370197
C    -0.382124  -0.234007  4.872222
C    -0.064037  -1.729593  4.810804
C    1.103530  -2.111381  5.725421
C    1.524630  -3.577604  5.619291
N    0.466390  -4.484741  6.089122
H    -0.631308  0.042060  5.908928
H    0.504913  0.343346  4.586459
H    0.184720  -2.011978  3.776009
H    -0.966494  -2.296267  5.095306
H    0.841791  -1.893839  6.773281
H    1.973362  -1.484046  5.471615
H    2.401960  -3.740159  6.262357
H    1.853944  -3.780312  4.579565
H    -0.305600  -4.513861  5.422553
H    0.821027  -5.438678  6.152990
N    -1.485087  2.705863  3.954231
C    -0.348910  2.856772  3.061382
H    -1.941633  3.554111  4.277487
H    0.240564  3.726806  3.376706
H    -0.663046  3.011423  2.016617
H    0.303719  1.978652  3.087931
