33
Energy: -18208.8942873 eV PBE+vdW (tier 2 basis)
C    -0.235717  0.199486  -0.091331
C    -0.104406  -0.266059  1.344864
O    0.980820  -0.662354  1.772613
H    -0.944167  -0.413036  -0.662438
H    0.753746  0.109602  -0.547348
H    -0.567294  1.242517  -0.154209
N    -1.181287  -0.240877  2.206494
C    -2.622862  0.028188  2.144197
C    -3.509947  -1.223086  2.368176
O    -4.458524  -1.135951  3.148883
H    -0.875832  -0.561392  3.123098
H    -2.850178  0.607061  3.051750
C    -3.150029  0.855540  0.960383
C    -2.762125  2.341776  1.014669
C    -3.595817  3.160848  2.005214
C    -3.100360  4.599394  2.174414
N    -1.752989  4.627741  2.760452
H    -4.246907  0.768553  0.993144
H    -2.844931  0.407775  0.006371
H    -2.882213  2.774791  0.008622
H    -1.700691  2.458867  1.275728
H    -3.601646  2.672619  2.995116
H    -4.648141  3.182531  1.679727
H    -3.851463  5.168345  2.755787
H    -3.039952  5.081647  1.185745
H    -1.371316  5.572785  2.744651
H    -1.785897  4.344741  3.740907
N    -3.251820  -2.394790  1.716205
C    -2.293536  -2.701236  0.665976
H    -3.919513  -3.118081  1.964424
H    -2.372536  -2.003056  -0.178315
H    -2.521596  -3.701444  0.282370
H    -1.257615  -2.703351  1.028767
