33
Energy: -18209.4715579 eV PBE+vdW (tier 2 basis)
C    -4.726810  0.091364  3.315228
C    -3.330598  0.672707  3.414078
O    -2.789607  1.209463  2.438339
H    -5.131408  -0.263267  4.270903
H    -4.704181  -0.748434  2.608528
H    -5.398028  0.851263  2.898142
N    -2.733216  0.566643  4.632655
C    -1.340463  0.885228  4.983114
C    -0.930425  2.374781  4.981533
O    -0.190545  2.780342  5.883211
H    -3.280128  0.135060  5.366918
H    -1.252244  0.612523  6.041273
C    -0.310088  0.061749  4.182757
C    -0.354033  -1.445917  4.455820
C    -0.105383  -1.896616  5.904821
C    1.233123  -1.448155  6.541748
N    1.296124  -0.158409  7.228745
H    0.684745  0.463842  4.424734
H    -0.461381  0.248272  3.110783
H    0.400625  -1.921752  3.809228
H    -1.323472  -1.847189  4.117557
H    -0.141574  -2.998312  5.913307
H    -0.930920  -1.575679  6.563783
H    2.019653  -1.456499  5.768966
H    1.535540  -2.211515  7.274864
H    0.637570  -0.120925  8.006119
H    1.089970  0.641062  6.629548
N    -1.371642  3.125776  3.947713
C    -0.993183  4.515955  3.785847
H    -1.874886  2.633945  3.199553
H    -1.864694  5.115378  3.493188
H    -0.210929  4.636674  3.021037
H    -0.601831  4.882562  4.740584
