33
Energy: -18209.1273545 eV PBE+vdW (tier 2 basis)
C    -0.355080  0.475950  -0.762736
C    0.250347  0.392325  0.626111
O    1.459614  0.227076  0.796216
H    -1.193422  1.182009  -0.827900
H    -0.722691  -0.513596  -1.069103
H    0.433113  0.774616  -1.459514
N    -0.595583  0.508988  1.693032
C    -2.040107  0.460814  1.719776
C    -2.461036  0.871625  3.141565
O    -1.682459  0.812262  4.092374
H    -0.163053  0.468895  2.616730
H    -2.441894  1.220057  1.028994
C    -2.669315  -0.916479  1.304045
C    -1.828606  -2.192036  1.467867
C    -1.573018  -2.731876  2.886903
C    -0.291785  -2.258856  3.592666
N    0.908353  -2.518184  2.781357
H    -2.944856  -0.834950  0.242315
H    -3.616923  -1.045894  1.849414
H    -0.867111  -2.096020  0.942394
H    -2.375883  -2.965845  0.908342
H    -1.508635  -3.827671  2.812141
H    -2.438084  -2.512137  3.535339
H    -0.202043  -2.839353  4.522804
H    -0.396104  -1.208096  3.908800
H    1.714831  -2.667334  3.384881
H    1.149113  -1.718699  2.191563
N    -3.751001  1.285982  3.306761
C    -4.734241  1.599223  2.281146
H    -3.964392  1.543347  4.264880
H    -5.640941  1.961846  2.776117
H    -5.010575  0.718312  1.686123
H    -4.386398  2.388535  1.597409
