33
Energy: -18209.3254335 eV PBE+vdW (tier 2 basis)
C    -0.212799  -2.954005  1.067198
C    0.117243  -1.544683  1.515411
O    1.240750  -1.237150  1.904047
H    -0.004378  -3.044059  -0.008173
H    -1.255300  -3.245726  1.236739
H    0.455755  -3.640134  1.595950
N    -0.887588  -0.594700  1.495089
C    -2.226642  -0.652971  0.900092
C    -3.229799  -1.531325  1.691095
O    -4.261746  -1.944409  1.167839
H    -0.526602  0.329299  1.716537
H    -2.622147  0.367956  1.023778
C    -2.269201  -0.978664  -0.605045
C    -1.332205  -0.121893  -1.461538
C    -1.622463  1.380961  -1.422984
C    -0.742361  2.184422  -2.379025
N    -1.012417  3.622140  -2.252429
H    -3.311561  -0.851402  -0.927010
H    -2.043760  -2.042489  -0.760390
H    -1.408464  -0.476970  -2.501563
H    -0.285517  -0.297113  -1.162621
H    -1.474495  1.790488  -0.411081
H    -2.684299  1.555243  -1.671304
H    -0.875222  1.790936  -3.407269
H    0.314955  2.021678  -2.117643
H    -0.365918  4.160473  -2.829005
H    -1.950378  3.838743  -2.593349
N    -2.900414  -1.744151  2.994114
C    -3.737410  -2.502157  3.901815
H    -2.009099  -1.377702  3.310519
H    -4.040211  -1.892829  4.764651
H    -3.218718  -3.399653  4.267702
H    -4.632760  -2.808401  3.350091
