33
Energy: -18209.5493479 eV PBE+vdW (tier 2 basis)
C    0.155412  1.202976  0.572343
C    0.007500  0.447969  1.876913
O    0.777168  0.634237  2.827785
H    -0.581161  0.918543  -0.188997
H    1.164694  1.035249  0.177067
H    0.058339  2.276636  0.777112
N    -1.022992  -0.438820  1.939487
C    -1.353326  -1.207948  3.141445
C    -0.475520  -2.488019  3.225036
O    -0.926465  -3.614755  3.026416
H    -1.575053  -0.610619  1.106664
H    -1.088188  -0.562391  3.993511
C    -2.842786  -1.537297  3.180470
C    -3.743121  -0.311645  3.347538
C    -5.231916  -0.666991  3.358212
C    -6.155573  0.526169  3.615275
N    -5.940839  1.084964  4.957810
H    -3.004509  -2.240631  4.009769
H    -3.109652  -2.104715  2.273028
H    -3.555073  0.413702  2.537932
H    -3.493114  0.211092  4.282890
H    -5.421399  -1.437774  4.126156
H    -5.514571  -1.128456  2.397833
H    -7.201329  0.214143  3.425953
H    -5.930761  1.322366  2.887683
H    -6.471341  1.947165  5.078381
H    -6.279276  0.435119  5.669103
N    0.819963  -2.216279  3.536971
C    1.844430  -3.240343  3.574968
H    1.084277  -1.228241  3.573345
H    2.433964  -3.164010  4.498313
H    2.527688  -3.163489  2.715480
H    1.350089  -4.217115  3.543152
