33
Energy: -18209.1166023 eV PBE+vdW (tier 2 basis)
C    -0.292822  1.783139  0.954105
C    -0.412181  0.390585  1.548717
O    0.542881  -0.374829  1.624695
H    0.331179  1.733961  0.055449
H    0.219215  2.431052  1.679375
H    -1.259105  2.238999  0.701475
N    -1.663272  0.075832  2.019885
C    -1.939944  -1.130781  2.786247
C    -2.703684  -2.235519  2.023327
O    -2.374278  -3.408930  2.175393
H    -2.355710  0.814377  2.021570
H    -0.960101  -1.592576  2.969298
C    -2.632274  -0.825400  4.133736
C    -1.687407  -0.458327  5.287886
C    -0.806467  0.788771  5.117667
C    -1.549354  2.111271  4.912426
N    -2.509038  2.364710  5.995583
H    -3.191712  -1.722763  4.434927
H    -3.389485  -0.035534  3.992365
H    -1.028466  -1.319835  5.476819
H    -2.304369  -0.334813  6.189610
H    -0.095371  0.652057  4.289732
H    -0.179796  0.881833  6.021233
H    -2.122226  2.081948  3.972175
H    -0.795497  2.913204  4.784652
H    -2.988107  3.253339  5.851503
H    -2.019039  2.443655  6.888468
N    -3.766641  -1.911290  1.221309
C    -4.403422  -0.630166  0.974199
H    -4.175255  -2.729606  0.781046
H    -3.851234  -0.012504  0.249443
H    -4.541078  -0.057336  1.901714
H    -5.404169  -0.815143  0.567299
