33
Energy: -18209.156144 eV PBE+vdW (tier 2 basis)
C    -1.485147  0.776638  -0.119956
C    -1.140974  0.794324  1.360020
O    -0.771102  1.812567  1.937535
H    -2.374391  1.400097  -0.279360
H    -1.682517  -0.226268  -0.519821
H    -0.661193  1.232730  -0.681470
N    -1.260664  -0.406425  2.005147
C    -1.093553  -0.540421  3.445616
C    0.316534  -0.308114  4.020603
O    0.405374  0.123357  5.170355
H    -1.586752  -1.210350  1.482112
H    -1.689005  0.254264  3.914755
C    -1.627732  -1.912261  3.904897
C    -3.163557  -1.992566  3.985873
C    -3.747661  -1.649063  5.366817
C    -3.409740  -0.260820  5.922881
N    -3.813445  0.803582  4.995152
H    -1.191028  -2.138324  4.888223
H    -1.237375  -2.685139  3.220682
H    -3.485571  -3.013233  3.730411
H    -3.607463  -1.330445  3.227048
H    -3.406184  -2.397511  6.100743
H    -4.844549  -1.758527  5.316201
H    -2.323758  -0.170138  6.075352
H    -3.868399  -0.173873  6.926977
H    -4.830016  0.880997  4.948673
H    -3.461232  1.707899  5.307087
N    1.439919  -0.632954  3.314300
C    1.603748  -1.192342  1.983557
H    2.284471  -0.393113  3.824125
H    2.630368  -1.568071  1.898407
H    1.442483  -0.450997  1.186908
H    0.930921  -2.041573  1.814045
