33
Energy: -18209.0097382 eV PBE+vdW (tier 2 basis)
C    -0.099120  0.527846  0.328581
C    -0.270515  0.626253  1.830234
O    0.631437  1.048919  2.554560
H    0.701310  1.215423  0.041460
H    0.214348  -0.491988  0.063096
H    -1.005748  0.753570  -0.242724
N    -1.438644  0.179282  2.405524
C    -2.759923  -0.129476  1.847862
C    -2.710945  -0.950354  0.541186
O    -3.263159  -0.574424  -0.490399
H    -1.416550  0.316066  3.413359
H    -3.207284  -0.826539  2.580074
C    -3.739476  1.060627  1.778921
C    -3.407930  2.302270  0.931166
C    -2.249682  3.213738  1.370334
C    -2.248582  3.649402  2.834233
N    -1.076576  4.493551  3.099945
H    -3.934453  1.367656  2.818527
H    -4.688380  0.647649  1.405924
H    -4.328871  2.907945  0.917252
H    -3.248568  1.990267  -0.109890
H    -2.270407  4.121411  0.748510
H    -1.279609  2.746147  1.154099
H    -2.297973  2.759538  3.492426
H    -3.153773  4.242026  3.044710
H    -0.227766  3.930528  3.010482
H    -1.092738  4.832717  4.061905
N    -2.071888  -2.158455  0.595847
C    -1.398862  -2.798867  1.713303
H    -2.075952  -2.642226  -0.296765
H    -1.346381  -3.875676  1.516204
H    -1.958884  -2.660804  2.646855
H    -0.377866  -2.420783  1.870075
