33
Energy: -18209.2462717 eV PBE+vdW (tier 2 basis)
C    -0.060467  0.369083  0.545824
C    -0.483682  -0.172455  1.896924
O    0.332811  -0.487091  2.760847
H    0.246812  1.415736  0.676475
H    -0.851662  0.328748  -0.213161
H    0.811121  -0.192485  0.192913
N    -1.836132  -0.278680  2.085938
C    -2.445524  -0.549285  3.387029
C    -1.792603  0.360151  4.466302
O    -1.641368  1.555916  4.233972
H    -2.429077  0.143134  1.382505
H    -3.454629  -0.112614  3.320624
C    -2.671784  -2.060055  3.654047
C    -1.522398  -3.050340  3.413583
C    -0.395159  -3.079236  4.447170
C    0.763863  -4.022661  4.072808
N    1.525255  -3.667620  2.871069
H    -3.496923  -2.354686  2.986897
H    -3.081761  -2.176263  4.671611
H    -1.097996  -2.850425  2.418223
H    -1.967671  -4.057392  3.351742
H    -0.796553  -3.391608  5.429665
H    0.028024  -2.070985  4.560173
H    0.389831  -5.051119  3.943248
H    1.466937  -4.059657  4.919883
H    1.720683  -2.663511  2.869608
H    0.969300  -3.840679  2.033667
N    -1.546545  -0.202326  5.680134
C    -0.923049  0.554778  6.749997
H    -1.520593  -1.212460  5.739349
H    -1.259047  0.172678  7.721373
H    -1.218423  1.603886  6.647547
H    0.175775  0.502800  6.702295
