33
Energy: -18209.1307331 eV PBE+vdW (tier 2 basis)
C    0.047706  1.218132  0.405318
C    -0.115799  0.188075  1.510072
O    0.815348  -0.504024  1.909836
H    -0.891336  1.694032  0.095500
H    0.508878  0.733323  -0.463513
H    0.740858  1.995731  0.750744
N    -1.378615  0.075245  2.026902
C    -1.702097  -0.803344  3.144098
C    -1.365284  -2.297837  2.942109
O    -0.925955  -2.938488  3.893521
H    -2.109643  0.678931  1.669396
H    -1.074037  -0.530900  4.005650
C    -3.183703  -0.607792  3.516239
C    -3.618714  -1.342313  4.787667
C    -5.107229  -1.177179  5.116347
C    -5.526539  0.242976  5.498232
N    -6.955504  0.283781  5.832700
H    -3.821495  -0.928027  2.674354
H    -3.344964  0.476190  3.636465
H    -3.006643  -0.992786  5.634867
H    -3.391012  -2.412140  4.684442
H    -5.352523  -1.849166  5.955473
H    -5.727167  -1.512786  4.269472
H    -5.374649  0.924286  4.646792
H    -4.862600  0.603632  6.310962
H    -7.139774  -0.281331  6.663243
H    -7.244889  1.234744  6.061253
N    -1.647964  -2.918873  1.755394
C    -2.107410  -2.384517  0.485336
H    -1.342377  -3.887195  1.763870
H    -2.469793  -3.220451  -0.124785
H    -1.311700  -1.869446  -0.074713
H    -2.945953  -1.691151  0.617297
