33
Energy: -18209.2314631 eV PBE+vdW (tier 2 basis)
C    -2.437267  1.326518  -0.661162
C    -1.758681  1.341586  0.700014
O    -1.196274  2.345514  1.130997
H    -2.323020  2.319513  -1.103278
H    -3.509337  1.096290  -0.576637
H    -1.989446  0.582866  -1.334441
N    -1.806155  0.188126  1.437351
C    -2.431997  -1.075319  1.104337
C    -2.815386  -1.744947  2.436588
O    -2.215293  -1.481097  3.477628
H    -1.408038  0.235366  2.375136
H    -3.345240  -0.886333  0.520339
C    -1.518797  -2.018145  0.271999
C    -0.200391  -2.396921  0.946811
C    0.679470  -3.278399  0.055394
C    1.982661  -3.724898  0.721106
N    2.876967  -2.587703  0.974554
H    -2.082803  -2.929783  0.016759
H    -1.309072  -1.514573  -0.684341
H    -0.400492  -2.919045  1.896651
H    0.337619  -1.472760  1.207044
H    0.927824  -2.737944  -0.872151
H    0.114366  -4.178978  -0.238361
H    2.509499  -4.409739  0.040543
H    1.737242  -4.311397  1.630751
H    2.520860  -2.006615  1.733876
H    3.794184  -2.916487  1.274619
N    -3.809833  -2.678824  2.405225
C    -4.718329  -2.992600  1.313303
H    -3.994302  -3.093734  3.313054
H    -5.268213  -2.106764  0.962638
H    -5.453661  -3.717460  1.677323
H    -4.201258  -3.446468  0.456347
