33
Energy: -18208.8034448 eV PBE+vdW (tier 2 basis)
C    0.056630  0.693105  -0.448340
C    0.303583  0.349330  1.007300
O    1.441612  0.210163  1.448649
H    -0.454212  -0.134075  -0.959586
H    1.028350  0.854212  -0.921910
H    -0.552200  1.599024  -0.561411
N    -0.777949  0.194694  1.844225
C    -2.224735  0.185942  1.589209
C    -2.615579  -1.092741  0.788205
O    -2.492638  -2.171749  1.365442
H    -0.491587  -0.158897  2.751996
H    -2.651028  -0.062439  2.571921
C    -2.803768  1.564595  1.230284
C    -4.312359  1.658878  1.494712
C    -4.920479  3.037684  1.208115
C    -5.008680  3.407704  -0.273173
N    -5.649060  4.718488  -0.434150
H    -2.568311  1.857563  0.201012
H    -2.285038  2.292237  1.873369
H    -4.491411  1.408180  2.552460
H    -4.856469  0.891147  0.919230
H    -4.333119  3.808204  1.737800
H    -5.935888  3.088686  1.627640
H    -5.640156  2.667076  -0.790373
H    -4.004383  3.345502  -0.738874
H    -5.067603  5.450119  -0.022403
H    -5.749729  4.952033  -1.421875
N    -3.057232  -1.075663  -0.510564
C    -3.363258  -0.012436  -1.456572
H    -3.261529  -2.022369  -0.818529
H    -2.521785  0.673966  -1.602049
H    -4.250652  0.569866  -1.172562
H    -3.570047  -0.481917  -2.424465
