33
Energy: -18209.3293364 eV PBE+vdW (tier 2 basis)
C    -0.212490  -0.187536  0.233591
C    -0.086050  -0.053951  1.738841
O    1.002886  0.080649  2.294627
H    0.193462  0.718136  -0.234040
H    -1.242360  -0.336807  -0.113982
H    0.404368  -1.031033  -0.099715
N    -1.265390  -0.111931  2.433964
C    -1.342010  0.093006  3.876338
C    -2.088384  -1.080637  4.549362
O    -3.155051  -0.925737  5.144877
H    -2.131929  -0.184438  1.914145
H    -0.292909  0.072724  4.209847
C    -1.930025  1.462269  4.254596
C    -3.276888  1.817945  3.617787
C    -3.817264  3.165340  4.102427
C    -5.188595  3.539331  3.514258
N    -6.328854  2.693552  3.881462
H    -1.181309  2.223276  3.984034
H    -2.030152  1.487692  5.349530
H    -3.997504  1.020922  3.852083
H    -3.175396  1.858721  2.519025
H    -3.096740  3.963447  3.852382
H    -3.891997  3.154014  5.203542
H    -5.123576  3.547999  2.413623
H    -5.435172  4.570645  3.809197
H    -6.441580  2.673776  4.896383
H    -6.169237  1.726770  3.596401
N    -1.504611  -2.313293  4.467017
C    -0.261603  -2.707923  3.825663
H    -2.067932  -3.040831  4.897123
H    0.175837  -3.546536  4.380783
H    0.465271  -1.888112  3.826717
H    -0.412707  -3.022036  2.780823
