33
Energy: -18209.1215512 eV PBE+vdW (tier 2 basis)
C    0.315254  -0.164846  0.620095
C    0.255577  0.021850  2.121656
O    1.270678  0.047983  2.815657
H    -0.371746  0.487988  0.070346
H    0.054296  -1.199986  0.357769
H    1.344301  0.024366  0.303283
N    -0.978752  0.127367  2.724724
C    -2.327775  0.191100  2.156210
C    -2.607730  -0.973044  1.173064
O    -2.905691  -0.779484  -0.003827
H    -0.897227  0.261281  3.728367
H    -2.995786  0.023118  3.016326
C    -2.683527  1.554284  1.540762
C    -4.192627  1.814213  1.430576
C    -4.888225  2.073444  2.772021
C    -6.399035  2.283536  2.653802
N    -7.082829  1.044213  2.256312
H    -2.230849  1.620780  0.542895
H    -2.214424  2.329452  2.165769
H    -4.655870  0.963895  0.908193
H    -4.347095  2.688491  0.778258
H    -4.443171  2.965978  3.241846
H    -4.724785  1.233178  3.466367
H    -6.591313  3.137365  1.972013
H    -6.795501  2.573483  3.637841
H    -8.093860  1.162479  2.316206
H    -6.880842  0.816601  1.282324
N    -2.518289  -2.238292  1.680262
C    -2.203626  -2.662471  3.034650
H    -2.695266  -2.956550  0.985288
H    -2.751764  -2.067280  3.777516
H    -1.129755  -2.594355  3.259690
H    -2.521475  -3.704166  3.153360
