33
Energy: -18209.5483355 eV PBE+vdW (tier 2 basis)
C    1.969381  0.620295  1.666451
C    0.526184  0.359262  2.042550
O    -0.393993  0.481538  1.224980
H    2.059873  1.649174  1.296979
H    2.242283  -0.048600  0.840719
H    2.674988  0.471895  2.492943
N    0.304123  -0.023384  3.330964
C    -1.026256  -0.355527  3.840872
C    -1.762714  0.930843  4.305122
O    -1.916478  1.216792  5.490910
H    1.078311  -0.022640  3.985551
H    -1.578283  -0.757870  2.978713
C    -0.946465  -1.393473  4.957736
C    -0.283165  -2.719876  4.558435
C    -0.924534  -3.458032  3.374043
C    -2.404508  -3.842644  3.556242
N    -2.734572  -4.727123  4.677587
H    -1.972165  -1.563462  5.315202
H    -0.421840  -0.951428  5.818457
H    -0.282206  -3.377342  5.442514
H    0.779812  -2.550843  4.325338
H    -0.344667  -4.376040  3.181554
H    -0.831933  -2.852197  2.456888
H    -2.753213  -4.330311  2.633267
H    -3.022953  -2.937790  3.661525
H    -2.528762  -4.280483  5.571381
H    -2.173000  -5.579278  4.641778
N    -2.199763  1.687296  3.262371
C    -2.819623  2.984693  3.444909
H    -1.908054  1.390649  2.328495
H    -3.735135  3.063284  2.843949
H    -2.140993  3.803007  3.160024
H    -3.073681  3.093615  4.504549
