33
Energy: -18209.2663572 eV PBE+vdW (tier 2 basis)
C    -0.263861  -0.088159  2.980033
C    -1.512945  0.585974  3.509202
O    -1.496642  1.771079  3.865906
H    -0.420785  -0.532559  1.987493
H    0.055944  -0.891640  3.656745
H    0.522933  0.667580  2.912232
N    -2.664734  -0.144550  3.618217
C    -3.035902  -1.387492  2.950814
C    -2.030437  -2.525740  3.256582
O    -1.681575  -2.764815  4.407798
H    -3.464661  0.441496  3.886990
H    -3.941462  -1.725383  3.482651
C    -3.452420  -1.180296  1.476370
C    -4.550595  -0.109937  1.304831
C    -4.055161  1.344088  1.132265
C    -4.824197  2.367893  1.975420
N    -4.564819  2.177484  3.411100
H    -3.835110  -2.139868  1.092739
H    -2.579528  -0.907572  0.858915
H    -5.222474  -0.159221  2.176575
H    -5.168149  -0.379511  0.436648
H    -4.130974  1.638029  0.074815
H    -2.987636  1.424365  1.383970
H    -5.905160  2.240998  1.805124
H    -4.567389  3.384043  1.622336
H    -3.620093  2.501332  3.648704
H    -5.220991  2.717119  3.973571
N    -1.607489  -3.255018  2.183318
C    -0.689426  -4.369880  2.314616
H    -1.903107  -2.971873  1.257860
H    -1.089265  -5.267370  1.823926
H    -0.562690  -4.568634  3.383959
H    0.293800  -4.135479  1.880815
