33
Energy: -18209.5222373 eV PBE+vdW (tier 2 basis)
C    -1.097990  3.466297  4.402676
C    -0.676209  2.039063  4.699457
O    -0.344351  1.672928  5.827508
H    -1.970843  3.711959  5.020438
H    -1.345676  3.641876  3.348729
H    -0.286577  4.141909  4.700124
N    -0.704661  1.187971  3.632758
C    -0.229389  -0.176069  3.725377
C    0.254520  -0.573287  2.319804
O    -0.020639  0.100026  1.325261
H    -0.835352  1.527169  2.681476
H    0.618627  -0.191622  4.430004
C    -1.307177  -1.148377  4.264766
C    -2.527796  -1.305503  3.358434
C    -3.598384  -2.219486  3.957517
C    -4.819338  -2.384544  3.054658
N    -5.829071  -3.240007  3.691633
H    -1.607256  -0.771148  5.253203
H    -0.842007  -2.132437  4.442052
H    -2.216186  -1.697302  2.375714
H    -2.961501  -0.311548  3.164048
H    -3.931538  -1.830272  4.932169
H    -3.161851  -3.214198  4.158440
H    -4.486515  -2.747387  2.060663
H    -5.279529  -1.398194  2.886644
H    -5.476196  -4.193571  3.787385
H    -6.665595  -3.300362  3.111179
N    0.973406  -1.726527  2.266121
C    1.467783  -2.294350  1.025854
H    1.176090  -2.203942  3.136292
H    2.565219  -2.348589  1.022694
H    1.143078  -1.639841  0.210623
H    1.060905  -3.301635  0.860299
