33
Energy: -18209.3546962 eV PBE+vdW (tier 2 basis)
C    -0.101427  0.841400  0.820892
C    -0.352637  0.187136  2.166920
O    0.549921  -0.035367  2.968622
H    -0.292612  0.138294  -0.002576
H    0.948532  1.142578  0.786046
H    -0.739885  1.721200  0.661887
N    -1.657760  -0.133775  2.476967
C    -2.836935  -0.061711  1.625661
C    -3.742985  1.167969  1.902081
O    -4.858195  1.257973  1.389845
H    -1.745202  -0.631219  3.360317
H    -2.488551  0.099718  0.595063
C    -3.620336  -1.391196  1.600069
C    -4.123767  -1.993827  2.924793
C    -5.290262  -1.252372  3.606759
C    -4.864895  -0.230358  4.676735
N    -5.869788  0.766900  5.055785
H    -2.963249  -2.127411  1.113479
H    -4.478667  -1.237269  0.931494
H    -3.292338  -2.128551  3.640181
H    -4.443341  -3.018587  2.686082
H    -5.967270  -1.983749  4.075129
H    -5.881360  -0.731313  2.838844
H    -3.977217  0.322166  4.338087
H    -4.550178  -0.759696  5.589849
H    -6.679333  0.311804  5.480627
H    -6.216405  1.232103  4.213903
N    -3.187738  2.129672  2.684389
C    -3.910627  3.317791  3.097168
H    -2.300762  1.905673  3.123481
H    -3.260564  4.199605  3.039022
H    -4.292561  3.218292  4.124425
H    -4.759766  3.449267  2.418024
