33
Energy: -18209.3895171 eV PBE+vdW (tier 2 basis)
C    0.992397  0.688910  0.566098
C    0.224786  -0.329489  1.386267
O    0.604500  -1.495958  1.498847
H    0.571112  1.700596  0.610772
H    1.011579  0.355638  -0.479332
H    2.029982  0.715882  0.920294
N    -0.901226  0.143924  2.004166
C    -1.805144  -0.734463  2.734020
C    -2.974645  -1.113782  1.801077
O    -3.763361  -0.251194  1.410994
H    -1.258110  1.056440  1.740569
H    -1.204774  -1.612499  2.998221
C    -2.333903  -0.066580  4.007273
C    -3.191746  -1.005962  4.858668
C    -3.682478  -0.353647  6.154543
C    -4.455696  -1.298806  7.075436
N    -5.728159  -1.722873  6.475248
H    -2.924147  0.819633  3.725676
H    -1.467295  0.284922  4.588053
H    -2.608831  -1.911429  5.104485
H    -4.055915  -1.338708  4.261414
H    -4.325437  0.507015  5.912100
H    -2.815407  0.038551  6.711218
H    -4.696666  -0.765210  8.006485
H    -3.793318  -2.143121  7.359411
H    -5.567485  -2.357455  5.692698
H    -6.285780  -2.241599  7.153179
N    -3.084226  -2.416627  1.424245
C    -2.203786  -3.530630  1.756675
H    -3.874913  -2.594680  0.812143
H    -2.416335  -4.353288  1.065197
H    -2.368399  -3.898838  2.781145
H    -1.149202  -3.250410  1.637248
