33
Energy: -18209.2781236 eV PBE+vdW (tier 2 basis)
C    -0.249725  0.984806  0.192420
C    -0.246619  -0.042038  1.307983
O    0.793960  -0.439489  1.829633
H    0.208115  1.909279  0.565977
H    -1.249691  1.214446  -0.196166
H    0.379079  0.618233  -0.628207
N    -1.480243  -0.509651  1.677571
C    -1.672278  -1.413150  2.804936
C    -2.496199  -2.649224  2.378397
O    -3.575836  -2.940148  2.895303
H    -2.301011  -0.104961  1.242387
H    -0.655393  -1.764979  3.040464
C    -2.221048  -0.710554  4.068623
C    -3.219699  0.439263  3.854054
C    -4.573303  0.077784  3.227907
C    -5.507232  -0.684963  4.171023
N    -6.625132  -1.268680  3.416138
H    -1.353219  -0.301808  4.606135
H    -2.658061  -1.486202  4.711268
H    -2.733257  1.220694  3.248675
H    -3.394186  0.910210  4.835321
H    -4.429346  -0.540239  2.327353
H    -5.082454  0.992557  2.888505
H    -5.923315  0.016402  4.911412
H    -4.924037  -1.439549  4.728494
H    -6.269589  -2.058050  2.872244
H    -7.315823  -1.658823  4.058039
N    -1.960110  -3.437618  1.400244
C    -0.695322  -3.313547  0.694317
H    -2.564852  -4.215002  1.152857
H    -0.790289  -2.724762  -0.231338
H    -0.335795  -4.316043  0.432791
H    0.066719  -2.835792  1.320193
