33
Energy: -18209.4056459 eV PBE+vdW (tier 2 basis)
C    -1.283959  1.988214  -0.164138
C    -1.194135  0.854882  0.839187
O    -0.112272  0.419782  1.236247
H    -2.310468  2.312666  -0.374029
H    -0.812513  1.665916  -1.101286
H    -0.708443  2.840890  0.215851
N    -2.393994  0.367942  1.282560
C    -2.479770  -0.789797  2.162548
C    -2.753132  -2.039725  1.298560
O    -3.823398  -2.158372  0.698478
H    -3.243331  0.646346  0.802430
H    -1.503467  -0.852346  2.656689
C    -3.583442  -0.617859  3.210649
C    -3.628031  -1.767992  4.219500
C    -4.730167  -1.602101  5.267246
C    -4.788744  -2.756256  6.265877
N    -5.840207  -2.528371  7.265663
H    -4.553008  -0.543025  2.693298
H    -3.411741  0.337202  3.729933
H    -2.650349  -1.848790  4.725212
H    -3.777180  -2.719261  3.682652
H    -5.704711  -1.517369  4.755800
H    -4.592288  -0.661996  5.824037
H    -3.829318  -2.819362  6.803516
H    -4.899099  -3.708765  5.708374
H    -6.759711  -2.547837  6.821621
H    -5.841515  -3.274810  7.960796
N    -1.771924  -2.977990  1.216470
C    -0.450145  -2.962369  1.832596
H    -2.021588  -3.772777  0.635424
H    0.171655  -3.709992  1.328062
H    -0.487785  -3.219354  2.902467
H    0.030188  -1.983128  1.710049
