33
Energy: -18209.0993711 eV PBE+vdW (tier 2 basis)
C    -0.888470  -0.141288  -0.629432
C    -0.172017  0.059077  0.690447
O    1.054308  0.134491  0.741625
H    -0.282100  0.323326  -1.412905
H    -0.949020  -1.220197  -0.825653
H    -1.906941  0.258497  -0.665168
N    -0.902376  0.115904  1.855936
C    -2.336594  0.135598  2.116945
C    -3.090989  -0.949600  1.301557
O    -2.633073  -2.081800  1.192663
H    -0.296179  0.176132  2.668495
H    -2.440561  -0.255639  3.142986
C    -2.920353  1.568354  2.154744
C    -2.792931  2.421211  0.888959
C    -3.440103  3.799917  1.045524
C    -3.287566  4.694559  -0.186374
N    -3.951476  4.112692  -1.363811
H    -2.406757  2.093474  2.976043
H    -3.975176  1.515125  2.476667
H    -3.254374  1.906825  0.031120
H    -1.726883  2.542910  0.639440
H    -2.996255  4.316855  1.912230
H    -4.514787  3.680716  1.259586
H    -2.212002  4.907229  -0.348072
H    -3.769391  5.660936  0.019501
H    -4.076455  4.822071  -2.085107
H    -3.371772  3.385626  -1.783589
N    -4.301932  -0.582097  0.792095
C    -5.154417  -1.506819  0.069091
H    -4.603970  0.378348  0.892139
H    -6.130884  -1.614307  0.561285
H    -4.650459  -2.478702  0.056596
H    -5.313741  -1.172538  -0.965648
