33
Energy: -18209.2172852 eV PBE+vdW (tier 2 basis)
C    0.581824  -1.471384  1.678844
C    -0.376668  -1.778838  2.813152
O    -0.261378  -2.802287  3.486189
H    0.780367  -2.412448  1.154232
H    0.238610  -0.713970  0.964529
H    1.535433  -1.138008  2.111923
N    -1.378212  -0.881228  3.099101
C    -1.766351  0.376567  2.461602
C    -1.827294  1.456147  3.561619
O    -2.885587  1.776620  4.100319
H    -1.969605  -1.192241  3.868285
H    -0.987099  0.633221  1.733088
C    -3.114017  0.254591  1.729660
C    -2.996070  -0.414938  0.350570
C    -2.891378  0.567306  -0.830143
C    -1.789765  1.628051  -0.768013
N    -0.447360  1.031982  -0.654996
H    -3.560797  1.255503  1.637604
H    -3.802787  -0.305746  2.376466
H    -2.142395  -1.109450  0.343785
H    -3.880599  -1.043372  0.173097
H    -2.775090  -0.010014  -1.763451
H    -3.848946  1.103066  -0.931393
H    -1.940443  2.274877  0.111079
H    -1.899545  2.283722  -1.652145
H    0.267095  1.757909  -0.719127
H    -0.279049  0.400176  -1.440418
N    -0.641771  2.033252  3.927863
C    0.701241  1.662705  3.514740
H    -0.735433  2.654280  4.726263
H    1.044250  0.726429  3.981463
H    1.389309  2.465766  3.801814
H    0.763094  1.548440  2.425310
