33
Energy: -18209.3697264 eV PBE+vdW (tier 2 basis)
C    -0.488946  -0.014614  -0.238137
C    -0.383946  0.193535  1.260951
O    0.671668  0.596520  1.767623
H    -1.489880  -0.298628  -0.584723
H    0.221015  -0.799791  -0.528421
H    -0.180080  0.907667  -0.744415
N    -1.518060  -0.076739  1.963856
C    -1.764745  -0.149004  3.419024
C    -1.420274  1.072617  4.308231
O    -2.016158  1.172420  5.381914
H    -2.305032  -0.378929  1.402291
H    -2.860750  -0.159655  3.495084
C    -1.300061  -1.486280  4.048745
C    0.184135  -1.861574  3.966294
C    1.135021  -1.028071  4.828048
C    2.576786  -1.523907  4.747520
N    3.459758  -0.690066  5.574905
H    -1.887257  -2.282619  3.564603
H    -1.627173  -1.455455  5.099058
H    0.520565  -1.835375  2.918188
H    0.263359  -2.917248  4.275801
H    0.808180  -1.036685  5.879276
H    1.113008  0.021658  4.501869
H    2.877140  -1.569158  3.681040
H    2.633786  -2.553904  5.134888
H    4.415233  -1.046621  5.548385
H    3.497954  0.257543  5.195388
N    -0.511848  1.966436  3.857575
C    -0.093199  3.078661  4.690143
H    0.084042  1.662825  3.076092
H    0.390028  3.835097  4.061742
H    0.611283  2.762319  5.476556
H    -0.967013  3.518548  5.183673
