33
Energy: -18209.2375743 eV PBE+vdW (tier 2 basis)
C    0.741053  -1.412439  0.613761
C    0.241531  -1.118135  2.017300
O    0.555137  -1.811861  2.981236
H    1.820424  -1.211914  0.580016
H    0.252022  -0.817408  -0.167899
H    0.597529  -2.478212  0.403181
N    -0.542205  0.002754  2.131657
C    -1.214978  0.365744  3.384558
C    -2.310237  1.411870  3.144460
O    -3.340419  1.414119  3.809017
H    -0.940746  0.371342  1.275216
H    -1.741637  -0.520778  3.767782
C    -0.257536  0.828078  4.513713
C    0.447299  2.185379  4.366604
C    1.508815  2.325408  3.262198
C    2.677841  1.338385  3.349499
N    3.417481  1.493238  4.612077
H    0.467969  0.017232  4.662021
H    -0.874016  0.858223  5.423999
H    0.928735  2.409547  5.331593
H    -0.302888  2.982823  4.242789
H    1.916884  3.346790  3.309965
H    1.052482  2.211810  2.265212
H    3.377306  1.562778  2.530758
H    2.314819  0.308406  3.179476
H    2.895588  1.077603  5.384653
H    4.297206  0.979571  4.565213
N    -2.063252  2.333897  2.157268
C    -2.970916  3.447551  1.932473
H    -1.104223  2.441003  1.842550
H    -2.836409  3.830080  0.914434
H    -2.809481  4.266428  2.650594
H    -3.998619  3.090903  2.054537
