33
Energy: -18209.4597705 eV PBE+vdW (tier 2 basis)
C    0.962955  -1.904348  1.148775
C    0.573899  -1.463100  2.547865
O    1.101603  -1.940464  3.553116
H    0.415394  -1.383215  0.354101
H    0.786705  -2.983561  1.059402
H    2.038436  -1.736633  1.011910
N    -0.382455  -0.488669  2.604079
C    -0.984987  -0.059540  3.851174
C    -2.501229  0.006927  3.630525
O    -2.968386  0.216562  2.507209
H    -0.921354  -0.247839  1.774480
H    -0.729027  -0.816759  4.605227
C    -0.470860  1.327555  4.307365
C    1.001180  1.330757  4.745400
C    1.325442  0.544968  6.027253
C    1.077521  1.275820  7.348857
N    -0.345246  1.591254  7.595443
H    -1.119472  1.686703  5.117631
H    -0.610206  2.021338  3.464235
H    1.328160  2.377650  4.866995
H    1.605270  0.926121  3.920367
H    2.392317  0.275611  6.003688
H    0.786380  -0.413742  6.030731
H    1.723811  2.174886  7.389832
H    1.407365  0.620127  8.167755
H    -0.482888  1.806173  8.583319
H    -0.611204  2.439075  7.092942
N    -3.293188  -0.124502  4.728585
C    -2.893491  -0.537661  6.069771
H    -4.285035  -0.074155  4.517731
H    -3.757915  -0.420659  6.732445
H    -2.082045  0.083865  6.474672
H    -2.582329  -1.593472  6.101367
