33
Energy: -18208.92637 eV PBE+vdW (tier 2 basis)
C    -1.086236  0.270198  0.197265
C    -1.013954  -0.558785  1.470895
O    -0.287637  -1.537132  1.562034
H    -0.283373  1.020287  0.230944
H    -2.042548  0.792792  0.063469
H    -0.904672  -0.383210  -0.661482
N    -1.852051  -0.103562  2.472152
C    -1.770804  -0.385253  3.905053
C    -0.480373  0.234128  4.507490
O    0.477345  0.562755  3.815861
H    -2.291269  0.785038  2.260824
H    -2.599050  0.207113  4.327856
C    -2.108407  -1.838098  4.336965
C    -1.188768  -3.021628  3.989282
C    0.265419  -2.948546  4.470357
C    0.458631  -2.975154  5.991511
N    1.836077  -2.783877  6.466589
H    -3.101032  -2.046019  3.908879
H    -2.264749  -1.811028  5.425635
H    -1.179098  -3.156702  2.902807
H    -1.668599  -3.918480  4.418938
H    0.746002  -2.053271  4.050119
H    0.810770  -3.801642  4.034227
H    0.093073  -3.931234  6.400205
H    -0.153727  -2.195101  6.467116
H    2.431064  -3.534204  6.109886
H    2.213666  -1.923393  6.063534
N    -0.469415  0.458447  5.861179
C    -1.519958  0.294723  6.849971
H    0.412447  0.849619  6.177937
H    -1.349204  1.006242  7.666316
H    -1.547501  -0.717917  7.282821
H    -2.507384  0.515438  6.425235
