33
Energy: -18209.220518 eV PBE+vdW (tier 2 basis)
C    0.270858  -0.152135  1.098086
C    0.150804  -0.771346  2.480566
O    1.132800  -1.147466  3.114621
H    -0.100436  0.882359  1.081109
H    -0.293544  -0.720538  0.345983
H    1.329141  -0.151142  0.825276
N    -1.112568  -0.884575  3.010547
C    -2.392266  -0.604602  2.362074
C    -3.308239  0.010845  3.444318
O    -4.090263  -0.678939  4.095297
H    -1.141884  -1.373804  3.902602
H    -2.207417  0.145512  1.580990
C    -3.030754  -1.841350  1.721671
C    -4.247599  -1.512013  0.854193
C    -4.877665  -2.752217  0.217432
C    -6.103289  -2.433870  -0.636475
N    -6.638232  -3.653879  -1.255013
H    -3.318159  -2.538315  2.522503
H    -2.259254  -2.342076  1.116281
H    -3.950972  -0.804337  0.059772
H    -5.001969  -0.993808  1.467153
H    -5.166817  -3.458165  1.014952
H    -4.140683  -3.280019  -0.408163
H    -5.811317  -1.751293  -1.450530
H    -6.840624  -1.884930  -0.016043
H    -6.995598  -4.285836  -0.536628
H    -7.428757  -3.431654  -1.860128
N    -3.178637  1.351911  3.668415
C    -2.204963  2.263883  3.089766
H    -3.739546  1.684476  4.446612
H    -2.393811  3.266568  3.486994
H    -2.300403  2.322276  1.996134
H    -1.171040  1.984674  3.341074
