33
Energy: -18209.1838664 eV PBE+vdW (tier 2 basis)
C    0.025806  0.085838  0.378484
C    -0.244351  -0.476046  1.759548
O    0.636757  -0.968355  2.462047
H    -0.147503  1.170927  0.347899
H    -0.629337  -0.363622  -0.380620
H    1.069332  -0.117778  0.126234
N    -1.541747  -0.416632  2.210790
C    -2.672174  0.248494  1.584632
C    -2.616810  1.793681  1.539259
O    -3.034811  2.374178  0.537931
H    -1.656732  -0.796262  3.146346
H    -2.698917  -0.019919  0.519346
C    -3.998632  -0.206064  2.220843
C    -4.263476  -1.716739  2.148827
C    -4.278793  -2.294805  0.732330
C    -4.674809  -3.770182  0.701169
N    -4.682657  -4.277233  -0.676200
H    -4.802334  0.339275  1.705337
H    -4.030897  0.120293  3.273498
H    -5.236265  -1.906382  2.630434
H    -3.521090  -2.260695  2.755335
H    -3.279854  -2.190726  0.275689
H    -4.972318  -1.727895  0.091604
H    -5.695548  -3.879271  1.100339
H    -4.008745  -4.335863  1.384417
H    -3.734352  -4.289750  -1.054991
H    -5.014416  -5.241337  -0.701404
N    -2.120316  2.495893  2.601579
C    -1.656126  2.046341  3.907017
H    -2.139102  3.497112  2.434490
H    -2.360703  1.345536  4.374301
H    -1.592465  2.922737  4.561664
H    -0.664609  1.574981  3.867182
