33
Energy: -18209.5550664 eV PBE+vdW (tier 2 basis)
C    -1.766976  0.820040  -0.195235
C    -1.288867  0.545175  1.214813
O    -0.443627  -0.323747  1.459598
H    -0.901544  1.094380  -0.811279
H    -2.517209  1.617471  -0.259638
H    -2.186737  -0.103065  -0.613623
N    -1.838056  1.318540  2.193850
C    -1.457454  1.193001  3.601131
C    -2.266578  0.042628  4.260453
O    -3.263946  0.246366  4.951122
H    -2.593350  1.952961  1.959244
H    -0.396553  0.904609  3.592845
C    -1.648501  2.523073  4.326747
C    -1.093443  2.550838  5.759443
C    0.406346  2.252681  5.904470
C    1.349361  3.192414  5.131522
N    1.290858  4.620216  5.462673
H    -2.725415  2.746859  4.369546
H    -1.175119  3.307270  3.714971
H    -1.664051  1.840407  6.373489
H    -1.309048  3.544589  6.183402
H    0.619431  1.215096  5.596299
H    0.664002  2.297616  6.975663
H    1.173391  3.100018  4.048185
H    2.385896  2.857937  5.289051
H    0.364494  5.001724  5.268805
H    1.455602  4.761616  6.460727
N    -1.760428  -1.187166  3.975489
C    -2.427334  -2.411430  4.373877
H    -1.038311  -1.219640  3.252428
H    -3.126723  -2.172643  5.181906
H    -1.694428  -3.145269  4.732512
H    -2.994687  -2.857563  3.542513
