33
Energy: -18209.5103794 eV PBE+vdW (tier 2 basis)
C    -0.124825  1.694154  0.524632
C    -0.668272  0.379878  1.044900
O    -0.011917  -0.666645  0.985243
H    0.114536  1.582011  -0.540079
H    0.812662  1.917889  1.048772
H    -0.814003  2.538022  0.650671
N    -1.915390  0.424677  1.592969
C    -2.569127  -0.759789  2.154536
C    -3.244045  -1.549926  0.998453
O    -4.435251  -1.426905  0.721804
H    -2.453658  1.281568  1.531469
H    -1.757444  -1.374534  2.572301
C    -3.561794  -0.371946  3.252551
C    -3.780445  -1.457127  4.316790
C    -4.384759  -2.773239  3.817885
C    -4.633923  -3.764254  4.952905
N    -5.241446  -5.000329  4.443444
H    -4.519195  -0.108417  2.777107
H    -3.177614  0.528860  3.754870
H    -4.439693  -1.037126  5.093825
H    -2.818969  -1.662015  4.818573
H    -3.712106  -3.245120  3.081150
H    -5.328716  -2.585278  3.286067
H    -5.340110  -3.320528  5.672972
H    -3.684966  -3.926484  5.505101
H    -4.600362  -5.470167  3.802112
H    -5.417149  -5.654590  5.206033
N    -2.374715  -2.355799  0.330738
C    -2.757366  -3.073482  -0.870129
H    -1.383554  -2.207644  0.531038
H    -2.261167  -4.051444  -0.898512
H    -2.495123  -2.517812  -1.784125
H    -3.842852  -3.216827  -0.854787
