33
Energy: -18209.3660323 eV PBE+vdW (tier 2 basis)
C    0.852152  -0.146997  0.588233
C    0.237025  0.691806  1.693025
O    0.901528  1.486340  2.357424
H    1.316150  0.522081  -0.147049
H    0.132354  -0.797652  0.076963
H    1.651592  -0.762797  1.018702
N    -1.109826  0.519119  1.871246
C    -1.816892  1.091543  3.002960
C    -2.664147  -0.031751  3.617185
O    -2.997761  -1.010330  2.944091
H    -1.571959  -0.297965  1.473893
H    -1.048402  1.449252  3.705360
C    -2.724615  2.268851  2.582682
C    -1.938493  3.502646  2.120852
C    -2.804129  4.554524  1.402524
C    -2.876999  4.387998  -0.118456
N    -3.472960  3.104941  -0.526044
H    -3.375641  2.551765  3.424887
H    -3.398721  1.914481  1.789390
H    -1.112353  3.195063  1.460629
H    -1.448953  3.952894  2.997547
H    -2.394081  5.556951  1.599548
H    -3.825672  4.547697  1.815991
H    -1.861904  4.548040  -0.535350
H    -3.512053  5.187328  -0.528226
H    -3.672776  3.116103  -1.526163
H    -2.809901  2.341522  -0.382253
N    -3.057914  0.103408  4.914311
C    -2.775120  1.186540  5.839529
H    -3.680695  -0.637174  5.223100
H    -2.770786  0.792419  6.862548
H    -3.518953  1.996755  5.782697
H    -1.785050  1.614093  5.646032
