33
Energy: -18209.4236366 eV PBE+vdW (tier 2 basis)
C    0.228105  -0.029104  -0.010566
C    -0.502937  -0.738751  1.113634
O    -0.703019  -1.954068  1.104046
H    0.300115  1.056540  0.127764
H    -0.288986  -0.239363  -0.954746
H    1.239710  -0.446259  -0.092011
N    -0.910174  0.060542  2.142296
C    -1.700470  -0.450675  3.243762
C    -2.552603  0.723379  3.743441
O    -2.235112  1.890873  3.492763
H    -0.862421  1.075684  2.085380
H    -2.345589  -1.248276  2.842757
C    -0.812226  -1.093558  4.346100
C    0.164772  -0.135353  5.040960
C    -0.410469  0.617556  6.246720
C    0.441906  1.813813  6.705033
N    0.554024  2.935168  5.766897
H    -0.262047  -1.895444  3.835426
H    -1.453162  -1.591533  5.089891
H    0.538632  0.582656  4.293417
H    1.047732  -0.704716  5.369932
H    -0.528928  -0.083826  7.090579
H    -1.420847  0.992669  6.021271
H    1.462838  1.476057  6.945201
H    0.023579  2.203838  7.646268
H    1.100231  2.666180  4.948549
H    -0.369521  3.190973  5.411088
N    -3.664068  0.440600  4.476666
C    -4.175594  -0.852665  4.895708
H    -4.138032  1.271850  4.817424
H    -3.744630  -1.185259  5.852544
H    -3.968264  -1.616897  4.138337
H    -5.263813  -0.785993  5.010005
