33
Energy: -18209.1196473 eV PBE+vdW (tier 2 basis)
C    -0.369690  -1.086704  -0.874325
C    -0.149227  -0.657463  0.560772
O    0.977294  -0.573187  1.047200
H    -1.303004  -1.633136  -1.049400
H    -0.387104  -0.189925  -1.510382
H    0.485398  -1.697584  -1.177910
N    -1.243319  -0.321791  1.327840
C    -2.677693  -0.382789  1.033258
C    -3.139274  -1.801984  0.613794
O    -3.731742  -2.006383  -0.444084
H    -0.969038  0.006191  2.248544
H    -3.165627  -0.178816  2.001843
C    -3.170460  0.677135  0.040118
C    -2.863333  2.106150  0.493645
C    -3.252919  3.182836  -0.526126
C    -4.752880  3.281259  -0.807227
N    -5.028876  4.385466  -1.733733
H    -4.250728  0.525675  -0.088387
H    -2.730270  0.488349  -0.949422
H    -1.786258  2.195584  0.701630
H    -3.376159  2.306308  1.451504
H    -2.726668  3.012004  -1.478477
H    -2.901101  4.160614  -0.156330
H    -5.293555  3.358157  0.159556
H    -5.105564  2.356920  -1.288458
H    -6.018357  4.412365  -1.978889
H    -4.813463  5.281740  -1.294452
N    -2.867119  -2.825477  1.477477
C    -2.223609  -2.789660  2.780684
H    -3.170472  -3.727321  1.123855
H    -2.478691  -3.710656  3.316954
H    -2.590877  -1.949487  3.385612
H    -1.128897  -2.716416  2.711141
