33
Energy: -18209.4277204 eV PBE+vdW (tier 2 basis)
C    0.612309  1.331207  0.079352
C    0.439590  1.113633  1.570418
O    1.275151  1.515762  2.387769
H    0.681093  2.409235  -0.113490
H    -0.200022  0.910006  -0.524764
H    1.563358  0.882494  -0.233091
N    -0.688826  0.455533  1.937020
C    -1.025423  0.124594  3.308190
C    -2.155785  -0.911942  3.211089
O    -2.791071  -1.066546  2.164526
H    -1.362997  0.110186  1.253883
H    -0.140035  -0.331518  3.780989
C    -1.450317  1.365940  4.155500
C    -0.424447  1.779817  5.219312
C    -0.562447  3.238153  5.678285
C    -0.185736  4.274179  4.611947
N    1.214740  4.134488  4.203428
H    -2.430233  1.189068  4.625250
H    -1.609702  2.185141  3.441585
H    0.586862  1.622469  4.818583
H    -0.513288  1.120822  6.096889
H    0.092559  3.395299  6.548331
H    -1.595516  3.431604  6.014293
H    -0.314368  5.276100  5.048114
H    -0.904208  4.217037  3.767214
H    1.340765  3.317094  3.599935
H    1.505745  4.944038  3.657091
N    -2.440913  -1.643417  4.322872
C    -1.820980  -1.580039  5.634899
H    -3.241292  -2.256362  4.202114
H    -1.946095  -2.548160  6.133084
H    -2.261566  -0.799779  6.274374
H    -0.745400  -1.386875  5.550191
