33
Energy: -18209.4516486 eV PBE+vdW (tier 2 basis)
C    0.514699  -0.885398  -0.169601
C    0.338999  -0.913562  1.337292
O    1.133910  -1.490201  2.081265
H    -0.284078  -0.348504  -0.695529
H    0.558768  -1.917712  -0.537970
H    1.477082  -0.413458  -0.404004
N    -0.751526  -0.244939  1.810948
C    -1.107046  -0.257167  3.214172
C    -2.628033  -0.046736  3.283670
O    -3.261628  0.343298  2.299039
H    -1.475486  0.114860  1.191857
H    -0.833570  -1.245443  3.618914
C    -0.348803  0.814956  4.033018
C    -0.665982  2.260091  3.632434
C    -0.259187  3.295025  4.689520
C    -1.015346  3.174120  6.027937
N    -2.480971  3.225255  5.977000
H    0.724979  0.608753  3.921181
H    -0.575579  0.656668  5.096434
H    -1.743931  2.366841  3.427120
H    -0.169378  2.493644  2.679990
H    0.822906  3.221050  4.892303
H    -0.425930  4.304432  4.279067
H    -0.677727  3.976324  6.700659
H    -0.736912  2.235531  6.532643
H    -2.791942  4.121077  5.597496
H    -2.842953  2.511251  5.342787
N    -3.252808  -0.254476  4.477598
C    -2.721570  -0.800058  5.716727
H    -4.247312  -0.050502  4.440713
H    -2.437674  -0.012708  6.431491
H    -1.845660  -1.427505  5.519886
H    -3.483372  -1.433551  6.187245
