33
Energy: -18209.4173117 eV PBE+vdW (tier 2 basis)
C    -4.298942  -1.254672  0.340713
C    -4.560332  -1.093510  1.826883
O    -5.441806  -1.726099  2.411138
H    -3.502309  -0.603374  -0.038956
H    -5.227263  -1.045070  -0.204743
H    -4.031364  -2.299936  0.140937
N    -3.744099  -0.211497  2.470936
C    -3.915779  0.114750  3.871530
C    -3.348669  1.528759  4.062384
O    -2.592074  2.027838  3.224821
H    -3.097209  0.393619  1.968943
H    -4.996157  0.096001  4.086131
C    -3.235242  -0.919900  4.803737
C    -1.710454  -0.974949  4.683780
C    -1.058199  -2.043215  5.570245
C    -1.381382  -3.483489  5.169824
N    -0.673090  -4.429424  6.041577
H    -3.687162  -1.889559  4.553897
H    -3.517623  -0.711020  5.847143
H    -1.285421  0.007169  4.943131
H    -1.434379  -1.152544  3.631962
H    -1.345039  -1.897795  6.624173
H    0.035922  -1.908695  5.532831
H    -1.158223  -3.611551  4.090578
H    -2.457953  -3.675934  5.288229
H    -0.934325  -5.389217  5.816431
H    0.335015  -4.361998  5.892622
N    -3.682487  2.203799  5.197213
C    -4.582591  1.810707  6.267505
H    -3.216657  3.102993  5.274303
H    -5.066647  2.705783  6.676269
H    -4.061949  1.292944  7.087528
H    -5.372083  1.152040  5.888983
