33
Energy: -18209.3585913 eV PBE+vdW (tier 2 basis)
C    -1.651060  -1.208547  0.138296
C    -1.263187  -0.680427  1.505880
O    -0.139473  -0.224057  1.730168
H    -2.660672  -1.633941  0.111897
H    -0.922252  -1.970557  -0.164484
H    -1.582392  -0.388172  -0.587952
N    -2.236567  -0.773022  2.462433
C    -2.035374  -0.204689  3.793706
C    -2.246059  -1.250576  4.907426
O    -3.064130  -1.094956  5.815910
H    -3.170003  -1.071389  2.158005
H    -0.963711  0.056947  3.796553
C    -2.792048  1.123909  4.018303
C    -4.309694  1.124998  4.304167
C    -5.176243  0.174615  3.472819
C    -5.185213  0.434519  1.957604
N    -5.080572  -0.846118  1.228359
H    -2.568427  1.734676  3.130119
H    -2.303512  1.638393  4.858909
H    -4.667027  2.159715  4.169139
H    -4.463695  0.872702  5.359080
H    -6.206366  0.208883  3.857996
H    -4.838292  -0.858226  3.652466
H    -4.312262  1.038199  1.668473
H    -6.077505  1.022656  1.679057
H    -5.154145  -0.695385  0.220902
H    -5.858017  -1.457826  1.483971
N    -1.459341  -2.367986  4.870719
C    -0.395587  -2.730579  3.949340
H    -1.675905  -3.015027  5.622739
H    0.349576  -3.329614  4.487039
H    0.108977  -1.842197  3.552536
H    -0.766098  -3.318753  3.095146
