33
Energy: -18209.5563586 eV PBE+vdW (tier 2 basis)
C    -3.755000  -0.897608  0.110085
C    -3.267244  -1.676214  1.313834
O    -3.620438  -2.843863  1.521226
H    -4.850799  -0.852989  0.136941
H    -3.472002  -1.443501  -0.798522
H    -3.355506  0.122196  0.052511
N    -2.412133  -1.017458  2.144310
C    -1.820140  -1.643185  3.330921
C    -2.843466  -1.537208  4.494165
O    -2.800566  -0.653999  5.353418
H    -2.212302  -0.037679  1.977046
H    -1.701220  -2.707675  3.076686
C    -0.455017  -1.022107  3.637069
C    0.495903  -1.924155  4.443491
C    0.137782  -2.216181  5.910941
C    0.506588  -1.120461  6.917284
N    -0.080311  0.180904  6.580627
H    -0.586341  -0.061528  4.153376
H    0.025906  -0.816689  2.667721
H    1.495423  -1.461942  4.415819
H    0.592925  -2.882976  3.907256
H    0.671991  -3.127630  6.221582
H    -0.931776  -2.456734  6.009325
H    1.603922  -1.003719  6.923355
H    0.227994  -1.487873  7.926324
H    -1.092559  0.092861  6.455702
H    0.083436  0.850901  7.330911
N    -3.799491  -2.499885  4.440425
C    -4.938652  -2.510945  5.337887
H    -3.840868  -3.040099  3.572525
H    -4.665489  -1.973639  6.251977
H    -5.208108  -3.544153  5.588714
H    -5.816070  -2.014629  4.894644
