33
Energy: -18208.7607076 eV PBE+vdW (tier 2 basis)
C    0.692726  0.572351  0.620358
C    0.275200  0.566786  2.075957
O    1.114894  0.577253  2.973433
H    0.061060  1.200533  -0.016782
H    0.667479  -0.456313  0.234874
H    1.726361  0.925896  0.572572
N    -1.063191  0.554048  2.402302
C    -2.300830  0.358416  1.626853
C    -2.517612  -1.167218  1.406412
O    -2.985850  -1.805550  2.350865
H    -1.180589  0.423878  3.404036
H    -3.084869  0.563069  2.369097
C    -2.540587  1.382236  0.499429
C    -4.029225  1.687783  0.269317
C    -4.879182  0.527029  -0.254636
C    -6.344511  0.908901  -0.458418
N    -7.102134  -0.225190  -1.001604
H    -2.073916  1.093765  -0.448951
H    -2.043692  2.311302  0.815653
H    -4.098198  2.528324  -0.439877
H    -4.460484  2.057197  1.215214
H    -4.835368  -0.325940  0.442556
H    -4.483296  0.164564  -1.215987
H    -6.407677  1.731533  -1.188190
H    -6.748818  1.303820  0.495683
H    -7.158265  -0.975514  -0.310935
H    -8.063016  0.050083  -1.204462
N    -2.131231  -1.835000  0.273808
C    -1.797554  -1.393819  -1.072648
H    -2.344803  -2.824469  0.370692
H    -1.032752  -0.613081  -1.072516
H    -2.674225  -1.033382  -1.631406
H    -1.381618  -2.252554  -1.611876
