33
Energy: -18209.113802 eV PBE+vdW (tier 2 basis)
C    0.544074  -0.572650  0.609056
C    -0.134076  0.497362  1.449546
O    0.489865  1.425202  1.956527
H    1.076409  -0.086373  -0.217759
H    -0.144194  -1.322481  0.199063
H    1.296157  -1.078748  1.227115
N    -1.489100  0.364418  1.579066
C    -2.324021  1.225160  2.413549
C    -2.043881  2.737939  2.231264
O    -1.889841  3.478282  3.197433
H    -1.944783  -0.448410  1.179773
H    -3.346565  1.056735  2.041566
C    -2.275574  0.836891  3.903065
C    -3.582083  1.087012  4.672135
C    -4.867905  0.462523  4.103761
C    -4.922150  -1.065682  4.000810
N    -4.096990  -1.618507  2.902084
H    -1.465220  1.403785  4.378566
H    -1.992305  -0.223877  3.962745
H    -3.731500  2.173637  4.753964
H    -3.440221  0.725753  5.703862
H    -5.101756  0.880749  3.111419
H    -5.699043  0.775979  4.755752
H    -5.962094  -1.354328  3.790837
H    -4.669957  -1.506326  4.984742
H    -4.435846  -2.549436  2.659049
H    -3.135443  -1.748491  3.217142
N    -2.090439  3.247666  0.961572
C    -2.257175  2.567823  -0.308291
H    -1.853698  4.234317  0.938208
H    -2.609596  3.295982  -1.049019
H    -3.015995  1.778760  -0.238639
H    -1.323177  2.118405  -0.681243
