33
Energy: -18209.127982 eV PBE+vdW (tier 2 basis)
C    -0.220924  1.478484  0.225314
C    0.040595  0.265892  1.092168
O    1.158868  -0.240321  1.206702
H    -0.742978  1.176085  -0.694508
H    0.743020  1.913029  -0.051650
H    -0.840900  2.233138  0.726231
N    -1.027358  -0.271944  1.761668
C    -2.442336  0.030213  1.610242
C    -3.018900  1.030649  2.637475
O    -3.767562  1.925077  2.243640
H    -0.780824  -1.117758  2.267031
H    -2.584269  0.557584  0.659014
C    -3.272420  -1.266860  1.545119
C    -3.064208  -2.060428  0.232642
C    -2.526263  -3.487696  0.394922
C    -1.038372  -3.565059  0.772843
N    -0.193175  -2.887331  -0.214870
H    -4.329129  -0.989761  1.658786
H    -3.033037  -1.893700  2.420915
H    -2.359079  -1.521710  -0.417742
H    -4.018550  -2.098606  -0.310038
H    -2.662313  -4.022233  -0.559094
H    -3.119009  -4.042657  1.141623
H    -0.766731  -4.625721  0.924288
H    -0.877333  -3.089290  1.753212
H    0.156754  -3.536353  -0.916075
H    0.606604  -2.422983  0.214007
N    -2.719672  0.903474  3.964965
C    -1.876097  -0.061309  4.652240
H    -3.147669  1.633774  4.525453
H    -2.077062  0.014555  5.726666
H    -0.804362  0.120239  4.487694
H    -2.110253  -1.092479  4.355482
