33
Energy: -18209.1301125 eV PBE+vdW (tier 2 basis)
C    -1.627453  0.119002  -0.234880
C    -1.468306  -0.295297  1.216984
O    -1.205557  -1.445550  1.551961
H    -2.223905  1.031656  -0.364462
H    -2.090854  -0.701927  -0.791166
H    -0.630291  0.296769  -0.662938
N    -1.610532  0.728444  2.122373
C    -1.286528  0.575645  3.532942
C    -2.484662  0.360349  4.484384
O    -2.342438  -0.372357  5.460331
H    -1.680490  1.668114  1.749957
H    -0.739905  -0.374358  3.617038
C    -0.403351  1.732793  4.046398
C    1.094994  1.599816  3.737984
C    1.481054  1.510022  2.258438
C    2.991706  1.564965  2.037638
N    3.307812  1.435280  0.608674
H    -0.526164  1.789658  5.137134
H    -0.789264  2.687493  3.645904
H    1.480137  0.714210  4.268568
H    1.605575  2.466797  4.189532
H    1.016143  2.327040  1.682760
H    1.102193  0.569723  1.827831
H    3.476879  0.797821  2.674367
H    3.375444  2.540018  2.376843
H    4.308693  1.554211  0.451793
H    3.078016  0.494566  0.283677
N    -3.672061  1.006276  4.266933
C    -4.038783  2.008558  3.281033
H    -4.364646  0.769267  4.970245
H    -4.961489  2.495335  3.617006
H    -4.221361  1.577955  2.286064
H    -3.277380  2.796278  3.193148
