33
Energy: -18209.1841303 eV PBE+vdW (tier 2 basis)
C    -0.077167  1.481345  2.683138
C    0.632074  0.425836  3.506497
O    1.458818  0.702888  4.373311
H    -1.143822  1.534526  2.943556
H    -0.022877  1.271151  1.606493
H    0.389159  2.446894  2.893868
N    0.314035  -0.887165  3.245355
C    -0.734764  -1.402373  2.377003
C    -2.177724  -1.028686  2.792652
O    -2.973529  -0.653666  1.931308
H    0.813397  -1.545732  3.837047
H    -0.641895  -0.944508  1.380978
C    -0.560155  -2.923220  2.213948
C    -1.577158  -3.582163  1.280863
C    -1.303067  -5.074830  1.077188
C    -2.353490  -5.782587  0.218932
N    -2.365094  -5.267461  -1.157226
H    -0.602531  -3.408400  3.203888
H    0.458677  -3.093017  1.830061
H    -1.557941  -3.060449  0.311474
H    -2.594985  -3.445911  1.680320
H    -1.263085  -5.576341  2.058730
H    -0.316008  -5.209927  0.606817
H    -3.337250  -5.713973  0.727380
H    -2.102786  -6.852032  0.166649
H    -2.930935  -5.868288  -1.755716
H    -2.796159  -4.343373  -1.194788
N    -2.560689  -1.132857  4.100546
C    -1.813091  -1.539482  5.282705
H    -3.522228  -0.837113  4.237925
H    -2.530906  -1.711046  6.092590
H    -1.093809  -0.777866  5.614578
H    -1.276389  -2.483056  5.122600
