33
Energy: -18209.4584288 eV PBE+vdW (tier 2 basis)
C    0.078873  -0.234901  0.210473
C    0.053627  0.163306  1.673522
O    1.102376  0.393971  2.289823
H    0.641560  0.520010  -0.351729
H    -0.915085  -0.351663  -0.238278
H    0.622426  -1.183918  0.117731
N    -1.181608  0.249575  2.238074
C    -1.507626  0.483281  3.656491
C    -1.233366  1.910666  4.185919
O    -2.119423  2.501460  4.808378
H    -1.969839  0.079836  1.626532
H    -2.601263  0.422386  3.701547
C    -0.913537  -0.579450  4.601158
C    -1.510326  -1.982458  4.411360
C    -3.012288  -2.137284  4.704876
C    -3.433391  -2.100214  6.178000
N    -3.139636  -0.813537  6.821995
H    -1.099633  -0.244067  5.629413
H    0.174052  -0.619023  4.454420
H    -0.951759  -2.679371  5.056438
H    -1.318722  -2.318271  3.378702
H    -3.346715  -3.104629  4.298450
H    -3.594541  -1.380188  4.150227
H    -2.875937  -2.877196  6.726459
H    -4.502874  -2.388725  6.230269
H    -3.465290  -0.811640  7.788030
H    -3.619337  -0.044935  6.349491
N    0.010533  2.396313  3.961399
C    0.436173  3.696427  4.437739
H    0.664002  1.787455  3.455273
H    0.821018  4.309772  3.611102
H    1.223817  3.603723  5.199981
H    -0.429324  4.196545  4.885298
