33
Energy: -18209.413318 eV PBE+vdW (tier 2 basis)
C    1.566250  -1.985562  0.882935
C    1.097091  -1.462203  2.227681
O    1.826803  -1.452559  3.220078
H    2.433648  -1.397185  0.558464
H    0.796173  -1.946581  0.102935
H    1.902511  -3.022352  1.006827
N    -0.183192  -0.990464  2.256815
C    -0.808341  -0.553915  3.487752
C    -2.312192  -0.824331  3.336029
O    -2.814570  -1.013758  2.225026
H    -0.825297  -1.129406  1.478938
H    -0.382754  -1.158555  4.304309
C    -0.516280  0.934703  3.806108
C    -1.102720  1.923579  2.795749
C    -0.695406  3.380538  3.045286
C    -1.235685  3.974798  4.346962
N    -0.867438  5.391058  4.457884
H    0.578453  1.036120  3.846673
H    -0.881009  1.156133  4.819521
H    -2.202994  1.847480  2.791356
H    -0.777804  1.633325  1.785515
H    -1.060468  3.994955  2.205178
H    0.401494  3.478526  3.040269
H    -0.790744  3.456032  5.209782
H    -2.329323  3.788091  4.396395
H    -1.185817  5.779562  5.345419
H    -1.322289  5.934567  3.722724
N    -3.079563  -0.819551  4.461615
C    -2.673584  -0.660923  5.847206
H    -4.068590  -0.943653  4.267197
H    -2.700913  0.389077  6.177203
H    -1.659362  -1.045765  6.001762
H    -3.348361  -1.241616  6.487488
