33
Energy: -18209.142031 eV PBE+vdW (tier 2 basis)
C    -0.520993  -0.121530  -0.186581
C    -0.268628  0.041485  1.301956
O    0.863594  0.016522  1.778722
H    -0.966135  0.784103  -0.623156
H    -1.196787  -0.960577  -0.400112
H    0.442304  -0.305044  -0.669086
N    -1.361825  0.239183  2.109366
C    -2.775985  0.225213  1.748137
C    -3.524181  1.316268  2.553438
O    -4.458775  1.050133  3.305845
H    -1.126441  0.286586  3.097461
H    -2.841899  0.523925  0.690246
C    -3.445214  -1.153786  1.888996
C    -3.191806  -1.872657  3.218764
C    -3.896199  -3.231162  3.323355
C    -5.419793  -3.146537  3.423701
N    -5.999305  -4.490512  3.554956
H    -3.083274  -1.789158  1.064362
H    -4.522739  -1.009625  1.730570
H    -3.515495  -1.226680  4.048716
H    -2.109423  -2.032551  3.338934
H    -3.517625  -3.753121  4.218255
H    -3.632065  -3.870742  2.465614
H    -5.834462  -2.702553  2.506284
H    -5.684764  -2.457149  4.249989
H    -5.711415  -4.913178  4.439160
H    -7.017740  -4.439216  3.580315
N    -3.099266  2.605660  2.386267
C    -2.080103  3.132162  1.492556
H    -3.616063  3.265833  2.958396
H    -2.240775  4.210401  1.382997
H    -2.156849  2.687491  0.491106
H    -1.060468  2.965523  1.866982
