33
Energy: -18209.1246755 eV PBE+vdW (tier 2 basis)
C    0.019291  -0.203519  0.004607
C    -0.070969  -0.274694  1.519313
O    0.894915  -0.606407  2.207058
H    -0.922782  0.064151  -0.489969
H    0.360667  -1.174716  -0.373269
H    0.782505  0.538497  -0.262764
N    -1.281584  0.088292  2.042146
C    -1.666324  -0.004470  3.455881
C    -3.099901  0.505605  3.690441
O    -3.797301  -0.066677  4.524789
H    -2.044326  0.189171  1.382310
H    -1.743417  -1.067767  3.731434
C    -0.664386  0.620550  4.457964
C    -0.224097  2.061015  4.194413
C    0.952191  2.516591  5.070611
C    2.256209  1.731146  4.868820
N    2.685477  1.730089  3.462959
H    0.211497  -0.037124  4.473779
H    -1.138536  0.539841  5.447993
H    0.073894  2.178974  3.141276
H    -1.065545  2.751396  4.359087
H    1.151477  3.576396  4.850102
H    0.669763  2.458563  6.135203
H    2.146816  0.711958  5.287439
H    3.039075  2.220947  5.466140
H    3.684548  1.537546  3.406287
H    2.224549  0.971150  2.954214
N    -3.624490  1.539117  2.947501
C    -2.977760  2.636239  2.236864
H    -4.588569  1.708426  3.226974
H    -2.971960  3.556261  2.840470
H    -3.511737  2.840450  1.298366
H    -1.941977  2.386644  1.999270
