33
Energy: -18209.4762021 eV PBE+vdW (tier 2 basis)
C    -0.584550  -0.673055  0.143032
C    -0.365579  -0.156673  1.551322
O    0.773560  0.073718  1.978512
H    -1.640134  -0.774873  -0.136434
H    -0.098653  -1.653056  0.052330
H    -0.088442  0.003900  -0.562711
N    -1.492325  0.031769  2.291090
C    -1.577736  0.399160  3.714958
C    -1.203840  1.867484  4.040766
O    -1.964510  2.548514  4.730252
H    -2.373852  -0.153071  1.829889
H    -2.647665  0.353197  3.954831
C    -0.834822  -0.576991  4.648858
C    -1.355693  -2.014951  4.566995
C    -0.575612  -3.020248  5.423431
C    -0.692421  -2.802689  6.932066
N    -0.026734  -3.893750  7.658593
H    -0.955784  -0.178742  5.666621
H    0.240848  -0.556032  4.423599
H    -1.316284  -2.351086  3.519316
H    -2.421257  -2.037040  4.854940
H    0.489371  -2.991284  5.133244
H    -0.924723  -4.040244  5.202811
H    -1.757251  -2.816672  7.215152
H    -0.309388  -1.798706  7.198711
H    0.977438  -3.878093  7.471518
H    -0.130344  -3.765824  8.665458
N    -0.006114  2.286503  3.564441
C    0.505941  3.618787  3.813271
H    0.547422  1.608956  3.027955
H    0.742313  4.130694  2.870002
H    1.415477  3.587389  4.430993
H    -0.263633  4.185957  4.347670
