33
Energy: -18209.0940473 eV PBE+vdW (tier 2 basis)
C    0.422228  1.758897  1.348139
C    -0.155109  0.385944  1.649997
O    0.576489  -0.579636  1.873890
H    -0.323221  2.563209  1.321766
H    0.927704  1.716870  0.374053
H    1.181325  1.993909  2.102814
N    -1.518096  0.319721  1.603505
C    -2.377356  -0.845911  1.864191
C    -2.686930  -0.927936  3.386699
O    -3.630858  -0.255485  3.812551
H    -2.010015  1.200791  1.519472
H    -3.360048  -0.544203  1.475080
C    -1.994879  -2.139526  1.124963
C    -2.308609  -2.134017  -0.377754
C    -1.416934  -1.235786  -1.244227
C    -1.549379  -1.520407  -2.743330
N    -1.072346  -2.871409  -3.071101
H    -2.577223  -2.947907  1.594208
H    -0.937259  -2.380405  1.275345
H    -3.366419  -1.858916  -0.534139
H    -2.203556  -3.163779  -0.749619
H    -0.362640  -1.368243  -0.945535
H    -1.646413  -0.173949  -1.071609
H    -1.031098  -0.718806  -3.305062
H    -2.611400  -1.466959  -3.032241
H    -1.273819  -3.100286  -4.043819
H    -0.058372  -2.923914  -2.963189
N    -1.945858  -1.691800  4.235738
C    -0.780254  -2.537125  4.011809
H    -2.302475  -1.635863  5.185522
H    -0.115212  -2.091725  3.263978
H    -1.058998  -3.556074  3.701622
H    -0.225748  -2.607765  4.954917
