33
Energy: -18209.4692854 eV PBE+vdW (tier 2 basis)
C    -0.173152  0.036321  -0.323844
C    -1.125187  0.446904  0.784248
O    -2.163484  1.060097  0.562536
H    0.037025  0.909060  -0.953114
H    -0.673174  -0.708788  -0.956338
H    0.773547  -0.385173  0.037284
N    -0.728797  0.094854  2.056886
C    -1.607307  0.234517  3.211746
C    -1.111598  1.259229  4.257751
O    -1.625281  1.315684  5.373234
H    0.072163  -0.520908  2.146524
H    -2.537800  0.662664  2.805229
C    -1.928275  -1.113442  3.875070
C    -0.714009  -1.863913  4.430253
C    -1.096711  -3.151054  5.166402
C    0.113403  -3.924037  5.710167
N    -0.170610  -5.163754  6.437921
H    -2.459687  -1.739282  3.141927
H    -2.628584  -0.904962  4.695105
H    -0.161469  -1.203661  5.118501
H    -0.012833  -2.124483  3.616497
H    -1.670892  -3.808530  4.490830
H    -1.772748  -2.903044  6.001759
H    0.692026  -3.269465  6.381446
H    0.791051  -4.174917  4.877631
H    -0.762020  -4.972524  7.248052
H    -0.694827  -5.811550  5.847732
N    -0.112940  2.083672  3.840904
C    0.390175  3.174581  4.650838
H    0.197195  1.980705  2.881309
H    -0.048004  3.074610  5.649787
H    0.102013  4.151332  4.235581
H    1.484792  3.132260  4.731147
