33
Energy: -18208.9122738 eV PBE+vdW (tier 2 basis)
C    -0.573244  -0.540691  0.185106
C    -0.483974  -0.018617  1.604962
O    0.561145  0.438626  2.069334
H    -0.538365  0.315515  -0.501842
H    -1.484643  -1.116683  -0.016852
H    0.303029  -1.165954  -0.018401
N    -1.640294  -0.083000  2.327659
C    -1.801716  0.529242  3.648169
C    -1.229092  1.978325  3.606928
O    -1.794042  2.771094  2.853878
H    -2.481446  -0.369081  1.843056
H    -2.874268  0.761858  3.715439
C    -1.501513  -0.426110  4.828417
C    -0.319134  -1.405589  4.685822
C    -0.693488  -2.774651  4.097398
C    -1.448273  -3.684172  5.066481
N    -1.856071  -4.927595  4.399867
H    -2.419514  -1.010356  4.998764
H    -1.394907  0.190590  5.732261
H    0.133555  -1.562054  5.678417
H    0.463016  -0.955087  4.064252
H    0.230381  -3.288277  3.782628
H    -1.298014  -2.651067  3.186975
H    -2.366749  -3.184623  5.413504
H    -0.820962  -3.841653  5.967826
H    -1.033066  -5.459442  4.111782
H    -2.374899  -5.526663  5.042101
N    -0.258733  2.417889  4.466672
C    0.858903  1.688238  5.055615
H    -0.088886  3.405729  4.297238
H    1.588107  2.426082  5.407283
H    1.344412  1.040523  4.314993
H    0.554595  1.089103  5.923172
