33
Energy: -18209.2516802 eV PBE+vdW (tier 2 basis)
C    0.562477  0.378822  -0.336212
C    0.309373  0.675534  1.133201
O    1.227939  0.781996  1.939411
H    -0.346424  0.339910  -0.949604
H    1.088899  -0.580546  -0.414743
H    1.229684  1.150934  -0.738447
N    -1.014919  0.834718  1.469074
C    -1.504721  0.954408  2.848025
C    -3.038235  1.028215  2.877206
O    -3.673955  0.564066  3.817662
H    -1.690130  0.508674  0.785883
H    -1.251140  0.043911  3.412463
C    -0.898133  2.153127  3.616933
C    -1.096179  3.530642  2.974216
C    -0.202508  4.618368  3.587611
C    1.260397  4.531383  3.150245
N    2.050623  5.596342  3.786710
H    0.170510  1.941887  3.735648
H    -1.347177  2.138439  4.621220
H    -2.149115  3.838578  3.068096
H    -0.884744  3.470142  1.892695
H    -0.259126  4.559167  4.688810
H    -0.581682  5.615267  3.318259
H    1.313596  4.685825  2.060689
H    1.652306  3.514065  3.336458
H    2.093102  5.442755  4.795840
H    3.015384  5.564395  3.456004
N    -3.630705  1.648025  1.807289
C    -5.059972  1.907269  1.778620
H    -3.033730  2.190957  1.192012
H    -5.419943  1.903679  0.743045
H    -5.314799  2.871784  2.244468
H    -5.562886  1.115201  2.342532
