33
Energy: -18209.2702351 eV PBE+vdW (tier 2 basis)
C    -0.613483  -0.826079  -0.896085
C    0.021624  -0.941661  0.474655
O    1.181039  -1.318903  0.619869
H    -1.695663  -0.998255  -0.903804
H    -0.118449  -1.543284  -1.557725
H    -0.426266  0.181780  -1.292568
N    -0.741980  -0.624637  1.583532
C    -2.048844  0.033393  1.668890
C    -3.237976  -0.874643  1.258199
O    -4.329278  -0.394687  0.961543
H    -0.183035  -0.639163  2.432489
H    -2.206584  0.185925  2.748021
C    -2.148374  1.410761  0.984494
C    -1.020940  2.404112  1.293723
C    -0.976908  2.996427  2.714425
C    -0.321441  2.124302  3.800458
N    -0.113338  2.761883  5.102602
H    -3.120113  1.837446  1.267448
H    -2.205955  1.265077  -0.103108
H    -1.135318  3.237551  0.584750
H    -0.042189  1.953614  1.057802
H    -1.996854  3.271531  3.034034
H    -0.409862  3.941105  2.674415
H    0.659101  1.774297  3.439066
H    -0.920745  1.219042  3.985711
H    -1.001150  3.090402  5.485458
H    0.479363  3.587520  5.003231
N    -2.984617  -2.210053  1.316127
C    -3.986462  -3.213110  1.017023
H    -2.037539  -2.490267  1.547339
H    -4.152229  -3.876617  1.877065
H    -3.693702  -3.823630  0.151110
H    -4.920630  -2.690450  0.784812
