33
Energy: -18209.0760139 eV PBE+vdW (tier 2 basis)
C    0.488821  -1.644872  2.549707
C    -0.093623  -0.247056  2.497068
O    0.620312  0.743606  2.639667
H    1.522984  -1.589388  2.196469
H    -0.059277  -2.393788  1.968952
H    0.493072  -1.975276  3.597064
N    -1.450370  -0.084604  2.327007
C    -2.526967  -1.031300  2.064418
C    -2.447280  -2.273743  2.991793
O    -2.184132  -2.152330  4.182935
H    -1.714647  0.894477  2.381059
H    -3.435853  -0.536608  2.446576
C    -2.777079  -1.251994  0.552313
C    -1.616355  -1.788793  -0.290310
C    -1.985559  -1.932163  -1.770219
C    -0.847237  -2.465187  -2.642942
N    0.262405  -1.507804  -2.725505
H    -3.069344  -0.273055  0.140080
H    -3.673867  -1.883887  0.425182
H    -1.269617  -2.765608  0.088157
H    -0.765481  -1.098924  -0.187577
H    -2.301431  -0.954412  -2.167130
H    -2.848622  -2.612039  -1.868037
H    -1.227620  -2.613569  -3.663940
H    -0.547651  -3.467593  -2.271285
H    0.782368  -1.468001  -1.848746
H    0.929761  -1.793873  -3.440871
N    -2.756762  -3.471194  2.415149
C    -2.803068  -4.708896  3.170183
H    -2.942487  -3.499537  1.421248
H    -3.796155  -5.174977  3.108367
H    -2.586176  -4.464857  4.215290
H    -2.051421  -5.424431  2.807896
