33
Energy: -18209.5322066 eV PBE+vdW (tier 2 basis)
C    0.161996  0.416740  0.178539
C    -0.144370  0.364567  1.660536
O    0.296166  1.211825  2.447452
H    -0.289987  -0.401248  -0.395539
H    1.249918  0.395175  0.039799
H    -0.199257  1.373161  -0.219730
N    -0.934718  -0.665021  2.071197
C    -1.373803  -0.839382  3.457174
C    -0.286600  -1.579408  4.285841
O    -0.422578  -2.739792  4.669081
H    -1.199621  -1.379423  1.402122
H    -1.473360  0.177175  3.869759
C    -2.718024  -1.559662  3.512123
C    -3.876371  -0.732623  2.944291
C    -5.205362  -1.492331  2.856336
C    -5.772199  -1.937237  4.205318
N    -7.077826  -2.583254  4.024503
H    -2.902916  -1.825427  4.561208
H    -2.634431  -2.524890  2.985006
H    -3.613330  -0.369714  1.938257
H    -4.009208  0.172294  3.561485
H    -5.096916  -2.379101  2.211756
H    -5.948420  -0.845251  2.360510
H    -5.792511  -1.064020  4.890279
H    -5.103403  -2.679047  4.666336
H    -7.423134  -2.951100  4.910709
H    -7.769509  -1.904237  3.703121
N    0.804543  -0.805436  4.529814
C    1.984835  -1.309851  5.202490
H    0.829256  0.109633  4.072540
H    2.294721  -0.627405  6.005167
H    2.826624  -1.435723  4.504792
H    1.738720  -2.285581  5.634721
