33
Energy: -18209.0687285 eV PBE+vdW (tier 2 basis)
C    -1.117825  -0.805834  -0.375482
C    -0.896927  -0.499850  1.094741
O    -0.001927  0.245126  1.483796
H    -1.980539  -1.455305  -0.570237
H    -0.213718  -1.282707  -0.774358
H    -1.254596  0.139198  -0.914928
N    -1.777715  -1.101451  1.960071
C    -1.572876  -1.025042  3.410962
C    -2.135663  -2.271741  4.109881
O    -1.410270  -2.965345  4.818511
H    -2.360978  -1.844882  1.594804
H    -0.492228  -1.087106  3.585865
C    -2.085131  0.304795  4.013499
C    -1.763133  0.491880  5.508729
C    -0.428212  1.185189  5.818188
C    0.830020  0.463061  5.331038
N    2.029065  1.157990  5.821845
H    -3.168880  0.381203  3.853253
H    -1.629559  1.115697  3.427068
H    -1.801562  -0.480811  6.026016
H    -2.564489  1.097285  5.957408
H    -0.355607  1.309789  6.912123
H    -0.428192  2.203415  5.398111
H    0.872037  0.486488  4.231856
H    0.776939  -0.603331  5.629502
H    2.131300  1.021291  6.828709
H    2.866634  0.767171  5.390998
N    -3.450351  -2.626044  3.911199
C    -4.566249  -1.849232  3.389229
H    -3.691474  -3.451348  4.454420
H    -5.071262  -1.263169  4.173632
H    -5.300153  -2.530848  2.940841
H    -4.234504  -1.155948  2.610464
