33
Energy: -18209.10405 eV PBE+vdW (tier 2 basis)
C    -0.165432  -0.908655  0.540914
C    -0.672715  -0.552875  1.923343
O    0.096760  -0.428533  2.874562
H    0.851015  -0.514084  0.451199
H    -0.781279  -0.540016  -0.284207
H    -0.109878  -2.003409  0.455030
N    -2.029475  -0.427962  2.135143
C    -3.173539  -0.381715  1.221343
C    -3.121099  -1.438627  0.094740
O    -3.236060  -1.134140  -1.090987
H    -2.225079  -0.186415  3.103344
H    -4.035063  -0.690899  1.840012
C    -3.508364  1.029706  0.701209
C    -2.403021  1.775511  -0.047327
C    -2.837960  3.177368  -0.481383
C    -1.762250  3.952280  -1.262384
N    -1.357529  3.412416  -2.563892
H    -3.818879  1.627944  1.573920
H    -4.392469  0.939086  0.052637
H    -2.117095  1.188806  -0.931900
H    -1.509139  1.863559  0.591708
H    -3.118744  3.768426  0.407802
H    -3.748313  3.105610  -1.101732
H    -0.854131  4.038720  -0.643942
H    -2.114736  4.981984  -1.427068
H    -2.169312  3.308228  -3.174770
H    -0.954672  2.480631  -2.461937
N    -2.995333  -2.745349  0.475183
C    -2.907765  -3.318435  1.808352
H    -2.966110  -3.380045  -0.316629
H    -3.596392  -2.820083  2.502411
H    -1.894467  -3.260157  2.231658
H    -3.202662  -4.372492  1.751880
