33
Energy: -18209.2719443 eV PBE+vdW (tier 2 basis)
C    1.193783  0.706699  0.347908
C    0.572253  0.211456  1.641151
O    1.245050  -0.232565  2.566988
H    0.472886  1.147894  -0.351831
H    1.693519  -0.137532  -0.143994
H    1.963467  1.449832  0.587613
N    -0.795404  0.294371  1.703924
C    -1.548210  -0.225969  2.844316
C    -2.878712  -0.800569  2.319066
O    -3.023545  -1.996192  2.089753
H    -1.306661  0.629197  0.896152
H    -0.983537  -1.087805  3.224888
C    -1.680678  0.808219  3.975428
C    -2.367409  0.244879  5.223376
C    -2.485593  1.240301  6.383308
C    -3.428928  2.413785  6.113941
N    -3.534887  3.270940  7.299384
H    -2.199894  1.708896  3.603939
H    -0.663175  1.139934  4.230210
H    -1.798614  -0.634083  5.563477
H    -3.371510  -0.131804  4.963860
H    -1.494092  1.636360  6.652262
H    -2.849660  0.699768  7.272906
H    -4.402220  2.013122  5.758274
H    -3.030491  3.037398  5.298840
H    -4.128157  4.078879  7.111965
H    -3.970896  2.761280  8.069307
N    -3.852002  0.132444  2.073783
C    -5.176482  -0.231083  1.605096
H    -3.704103  1.072970  2.421671
H    -5.501615  0.443289  0.802454
H    -5.919099  -0.202597  2.416704
H    -5.123105  -1.254778  1.220286
