33
Energy: -18209.1560951 eV PBE+vdW (tier 2 basis)
C    0.494009  0.263861  1.258304
C    0.187401  -0.075774  2.704105
O    1.033855  0.047698  3.586782
H    0.782578  -0.657267  0.732763
H    1.342358  0.953795  1.246810
H    -0.348470  0.708117  0.715100
N    -1.062447  -0.558214  3.012037
C    -2.221363  -0.787924  2.156354
C    -1.857627  -1.707143  0.955697
O    -1.129660  -2.682515  1.109304
H    -1.129219  -0.856738  3.979044
H    -2.890670  -1.426378  2.756716
C    -3.005417  0.496826  1.827364
C    -3.466878  1.256175  3.075316
C    -4.235177  2.555773  2.797064
C    -5.625028  2.409186  2.167037
N    -5.563362  2.033218  0.742103
H    -2.390658  1.170884  1.208300
H    -3.896579  0.251649  1.232603
H    -4.099589  0.591960  3.690121
H    -2.587390  1.494183  3.692165
H    -3.621370  3.222556  2.165740
H    -4.360875  3.090347  3.751193
H    -6.186187  3.347525  2.339974
H    -6.178161  1.615150  2.693858
H    -5.147705  2.795519  0.203522
H    -6.506299  1.908565  0.372134
N    -2.423626  -1.377195  -0.240218
C    -2.220653  -2.166309  -1.439761
H    -3.004187  -0.549331  -0.290914
H    -1.708333  -1.583229  -2.218267
H    -3.176315  -2.530970  -1.841399
H    -1.595164  -3.023423  -1.169082
