33
Energy: -18209.2478845 eV PBE+vdW (tier 2 basis)
C    -0.779094  0.591771  -0.308281
C    -0.850163  0.017361  1.091758
O    -0.374459  -1.074633  1.387489
H    -1.591017  1.297557  -0.528738
H    -0.800430  -0.228370  -1.032166
H    0.180759  1.122678  -0.405814
N    -1.412584  0.856638  2.023726
C    -1.501364  0.538750  3.444273
C    -2.994780  0.538376  3.842588
O    -3.676240  -0.478429  3.789298
H    -1.817022  1.727983  1.700743
H    -1.177942  -0.508105  3.524331
C    -0.607107  1.433343  4.327072
C    0.897988  1.106807  4.322587
C    1.660630  1.242475  2.996562
C    1.607586  2.628034  2.356547
N    2.209611  2.597333  1.015036
H    -0.957450  1.334193  5.366682
H    -0.755518  2.494081  4.055437
H    1.025835  0.075462  4.685587
H    1.372666  1.752442  5.079959
H    1.307897  0.495488  2.274309
H    2.716070  0.988174  3.193131
H    2.077042  3.364237  3.040875
H    0.560699  2.943535  2.229787
H    3.169137  2.250668  1.067305
H    2.266031  3.538402  0.624837
N    -3.507184  1.763335  4.185836
C    -4.893790  1.944968  4.573507
H    -2.861786  2.531558  4.325684
H    -5.330776  2.810771  4.058836
H    -5.000800  2.085154  5.659596
H    -5.438121  1.039626  4.285207
