33
Energy: -18209.4314618 eV PBE+vdW (tier 2 basis)
C    0.006083  -1.164195  -0.634518
C    0.061772  -1.119321  0.878742
O    1.010985  -1.576646  1.512228
H    -0.144800  -0.167939  -1.070299
H    -0.828346  -1.791680  -0.980516
H    0.945271  -1.587464  -0.998843
N    -1.004241  -0.529252  1.537456
C    -2.328677  -0.323905  0.950591
C    -2.416276  0.902043  0.017156
O    -3.282110  0.967372  -0.852532
H    -0.983717  -0.752567  2.534941
H    -2.610118  -1.181237  0.318138
C    -3.411189  -0.140916  2.036710
C    -3.473855  -1.164157  3.182331
C    -3.603305  -2.652365  2.823917
C    -2.289857  -3.364114  2.444739
N    -1.220849  -3.070539  3.405291
H    -4.370318  -0.117016  1.500331
H    -3.285231  0.858965  2.483003
H    -4.341938  -0.877623  3.794765
H    -2.602190  -1.052903  3.845176
H    -4.332895  -2.797707  2.010681
H    -4.026420  -3.170722  3.699857
H    -1.946082  -3.027967  1.457439
H    -2.502115  -4.443847  2.333450
H    -0.297702  -3.239855  3.007501
H    -1.308538  -3.636594  4.248190
N    -1.513228  1.884297  0.281019
C    -1.468877  3.133160  -0.450746
H    -0.823709  1.685042  0.999448
H    -1.628857  3.991947  0.216250
H    -2.270774  3.108540  -1.196772
H    -0.505804  3.260951  -0.965209
