33
Energy: -18209.1040069 eV PBE+vdW (tier 2 basis)
C    -1.019188  1.694283  0.055962
C    -0.350699  0.607134  0.870517
O    0.839059  0.656559  1.178359
H    -1.996413  1.989645  0.454805
H    -1.182013  1.355688  -0.976852
H    -0.347287  2.556349  0.038703
N    -1.103178  -0.482051  1.252599
C    -2.531349  -0.770283  1.073700
C    -2.917550  -0.728930  -0.426106
O    -3.758123  0.048466  -0.879540
H    -0.568639  -1.131001  1.822197
H    -2.635301  -1.825036  1.380632
C    -3.459331  0.067910  1.975761
C    -4.679624  -0.691906  2.523656
C    -5.787103  -1.079918  1.528308
C    -6.799220  0.024098  1.202081
N    -6.162459  1.242755  0.692426
H    -3.792927  0.969300  1.448795
H    -2.848155  0.393256  2.829558
H    -5.127818  -0.075944  3.319204
H    -4.317061  -1.607058  3.023545
H    -6.358171  -1.921180  1.951133
H    -5.351967  -1.459316  0.590676
H    -7.340163  0.288765  2.126529
H    -7.554096  -0.407272  0.512980
H    -6.866493  1.913016  0.386483
H    -5.569368  1.023337  -0.111390
N    -2.278045  -1.611712  -1.248009
C    -1.252924  -2.591758  -0.928743
H    -2.546304  -1.508030  -2.221605
H    -1.200368  -3.316182  -1.749122
H    -1.504290  -3.148886  -0.016442
H    -0.261317  -2.136514  -0.795150
