33
Energy: -18209.4931192 eV PBE+vdW (tier 2 basis)
C    -0.815623  1.571176  -0.005327
C    -1.040323  0.612104  1.148544
O    -0.202835  0.445550  2.033875
H    -1.640665  1.593023  -0.727721
H    0.109920  1.289255  -0.521978
H    -0.669217  2.580421  0.399636
N    -2.250894  -0.028514  1.144936
C    -2.566117  -1.089014  2.082870
C    -3.170081  -2.247847  1.274930
O    -3.791696  -2.043631  0.230902
H    -2.830304  -0.022873  0.307988
H    -1.616657  -1.386200  2.556143
C    -3.563135  -0.639545  3.175469
C    -3.029176  0.492431  4.056100
C    -4.004465  0.950078  5.150460
C    -5.341694  1.501565  4.646402
N    -5.148914  2.682138  3.793277
H    -3.814723  -1.511531  3.801715
H    -4.497956  -0.342006  2.674300
H    -2.752480  1.350522  3.425354
H    -2.087529  0.170754  4.525808
H    -3.512708  1.730963  5.749813
H    -4.214366  0.109025  5.832208
H    -5.936424  1.817770  5.515995
H    -5.918596  0.690368  4.157957
H    -4.706673  2.421210  2.910984
H    -6.049060  3.094667  3.549487
N    -3.001424  -3.481682  1.822074
C    -3.569659  -4.687368  1.248283
H    -2.437470  -3.556314  2.660344
H    -4.257868  -5.176428  1.951679
H    -2.783662  -5.400554  0.964194
H    -4.124327  -4.394968  0.350750
