33
Energy: -18209.3712001 eV PBE+vdW (tier 2 basis)
C    0.125737  -0.363092  0.582481
C    -0.076259  -0.367020  2.085021
O    0.832821  -0.602358  2.875629
H    -0.210294  0.576747  0.123811
H    -0.439397  -1.178458  0.107663
H    1.190131  -0.508635  0.382415
N    -1.344193  -0.072117  2.542947
C    -2.560583  0.110903  1.762521
C    -2.759945  1.536981  1.198108
O    -3.620648  1.747681  0.346255
H    -1.437426  -0.175271  3.550557
H    -2.527263  -0.534171  0.872088
C    -3.796944  -0.268026  2.596153
C    -3.905128  -1.740109  3.020835
C    -4.034401  -2.757039  1.870771
C    -2.717144  -3.410934  1.448756
N    -2.949675  -4.390516  0.382515
H    -4.676701  0.008999  1.999163
H    -3.817388  0.376052  3.492138
H    -4.791170  -1.816141  3.667388
H    -3.052949  -2.019497  3.662781
H    -4.498428  -2.268007  0.996456
H    -4.721650  -3.565273  2.158781
H    -2.295769  -3.950082  2.311493
H    -1.974047  -2.633161  1.184752
H    -3.268579  -3.924602  -0.468349
H    -2.085619  -4.876088  0.142595
N    -1.946350  2.491553  1.721135
C    -2.003613  3.882004  1.317115
H    -1.253779  2.185722  2.396675
H    -2.237549  4.534007  2.170124
H    -2.797197  3.976758  0.567929
H    -1.052032  4.207510  0.873968
