33
Energy: -18209.3079259 eV PBE+vdW (tier 2 basis)
C    0.192769  -0.543360  0.923139
C    -0.279427  0.552054  1.869027
O    0.359930  1.595501  2.010882
H    1.128258  -0.209799  0.466640
H    -0.537836  -0.740746  0.125418
H    0.370676  -1.490362  1.451426
N    -1.449485  0.346315  2.544404
C    -2.251011  -0.866533  2.596876
C    -3.747707  -0.479139  2.628617
O    -4.502020  -0.785943  3.554160
H    -1.705562  1.044349  3.265499
H    -2.107578  -1.407647  1.648064
C    -1.855191  -1.834042  3.738824
C    -1.340933  -1.225561  5.054064
C    -2.367589  -0.562627  6.002572
C    -2.307482  0.963846  6.092367
N    -2.742409  1.621169  4.845099
H    -1.050556  -2.472865  3.343165
H    -2.710791  -2.494885  3.938178
H    -0.530434  -0.514156  4.830119
H    -0.857272  -2.050479  5.597119
H    -2.200823  -0.940747  7.022140
H    -3.386478  -0.869502  5.724757
H    -1.270315  1.279774  6.286165
H    -2.905566  1.286570  6.964984
H    -3.721340  1.389065  4.663094
H    -2.687433  2.635529  4.941713
N    -4.219789  0.225220  1.557280
C    -3.524773  0.645135  0.350887
H    -5.204394  0.455845  1.641961
H    -4.274030  0.936548  -0.393503
H    -2.936608  -0.176463  -0.080308
H    -2.851322  1.494423  0.528332
