33
Energy: -18209.4522724 eV PBE+vdW (tier 2 basis)
C    -0.260408  -0.637469  -0.007928
C    -0.034851  -0.468537  1.482985
O    1.070070  -0.238581  1.978842
H    -0.821915  0.226834  -0.395096
H    -0.844034  -1.541389  -0.230652
H    0.709665  -0.698560  -0.508423
N    -1.168636  -0.555035  2.236273
C    -1.207657  -0.325988  3.663679
C    -2.590535  -0.798920  4.143195
O    -3.523108  -0.982762  3.358094
H    -2.070638  -0.764087  1.814626
H    -0.429179  -0.946808  4.139835
C    -0.925525  1.141518  4.084580
C    -1.929928  2.219351  3.648255
C    -1.916769  2.576042  2.144065
C    -3.135508  2.068405  1.373252
N    -2.901948  2.140547  -0.077272
H    0.076996  1.387194  3.707098
H    -0.846997  1.155631  5.183844
H    -2.950459  1.933074  3.953819
H    -1.695617  3.120002  4.233687
H    -1.861434  3.670341  2.027137
H    -1.009054  2.178605  1.668691
H    -4.028871  2.632865  1.708976
H    -3.329669  1.017576  1.628989
H    -2.736370  3.107773  -0.362147
H    -3.730954  1.832278  -0.586295
N    -2.705867  -0.964151  5.487769
C    -3.947755  -1.340819  6.136117
H    -1.883198  -0.813678  6.059390
H    -4.704969  -1.461317  5.354742
H    -4.280200  -0.565239  6.840203
H    -3.840492  -2.290966  6.677319
