33
Energy: -18209.2958674 eV PBE+vdW (tier 2 basis)
C    -1.221279  2.097341  -1.120444
C    -0.413910  2.044362  0.160577
O    0.404116  2.912778  0.449538
H    -0.654632  2.680825  -1.851960
H    -2.166960  2.622449  -0.926683
H    -1.464334  1.113313  -1.537612
N    -0.610526  0.973325  1.013995
C    -1.646635  -0.063958  0.978109
C    -1.452577  -1.070528  -0.189194
O    -2.400624  -1.680997  -0.677990
H    -0.112608  1.096917  1.891231
H    -1.462792  -0.663525  1.885418
C    -3.096081  0.457075  1.062659
C    -4.052139  -0.506715  1.771220
C    -5.487640  0.017408  1.834744
C    -6.479286  -0.950638  2.504199
N    -6.726313  -2.229146  1.831570
H    -3.476440  0.659565  0.051627
H    -3.072899  1.417050  1.600754
H    -3.687969  -0.694204  2.797245
H    -4.028070  -1.470181  1.241738
H    -5.841516  0.239679  0.813060
H    -5.508295  0.976167  2.381652
H    -7.449883  -0.444149  2.617621
H    -6.134986  -1.175875  3.526850
H    -5.864305  -2.768314  1.746274
H    -7.059720  -2.071592  0.879225
N    -0.158933  -1.249880  -0.570091
C    0.229915  -2.164130  -1.625200
H    0.531944  -0.632990  -0.156144
H    -0.660617  -2.727662  -1.923168
H    0.998339  -2.865267  -1.272764
H    0.618186  -1.625275  -2.501631
