33
Energy: -18209.177377 eV PBE+vdW (tier 2 basis)
C    1.251537  0.259606  1.598932
C    0.030766  1.040781  2.037136
O    -0.015266  2.269071  1.985567
H    1.072026  -0.816056  1.475425
H    2.022508  0.412986  2.369205
H    1.624987  0.678342  0.657953
N    -1.006590  0.282938  2.514266
C    -2.208645  0.800641  3.174017
C    -2.716462  2.141419  2.577097
O    -2.940237  3.111131  3.294070
H    -0.855383  -0.717115  2.576771
H    -3.006447  0.069537  2.951755
C    -2.079841  0.890953  4.705200
C    -0.864082  1.682493  5.223903
C    0.347561  0.808226  5.585643
C    1.641382  1.597493  5.792890
N    2.222194  2.010614  4.505583
H    -2.053970  -0.135776  5.107035
H    -3.009491  1.347111  5.068818
H    -1.164782  2.247020  6.118566
H    -0.594189  2.442262  4.478909
H    0.534386  0.056856  4.802619
H    0.119121  0.245417  6.505494
H    2.380998  0.954624  6.293811
H    1.439858  2.443170  6.482029
H    1.576459  2.611082  3.988043
H    3.066019  2.562786  4.658022
N    -3.058534  2.155331  1.251273
C    -2.807912  1.162078  0.224940
H    -3.328514  3.084184  0.942531
H    -3.496098  1.341428  -0.609953
H    -3.004621  0.150684  0.600582
H    -1.776298  1.195046  -0.160202
