33
Energy: -18209.4355893 eV PBE+vdW (tier 2 basis)
C    0.141197  -1.102809  0.531671
C    0.074562  -0.281311  1.804190
O    1.053534  -0.084583  2.518575
H    -0.255586  -0.555051  -0.334022
H    -0.441082  -2.030628  0.629088
H    1.187359  -1.362353  0.351528
N    -1.149362  0.265960  2.129012
C    -2.432419  0.055850  1.473427
C    -2.785947  1.095509  0.385085
O    -3.802429  0.956897  -0.292998
H    -1.149761  0.735010  3.032066
H    -2.397040  -0.901473  0.934280
C    -3.569810  -0.013378  2.505531
C    -3.487250  -1.207890  3.467338
C    -3.426004  -2.586829  2.797430
C    -4.606459  -2.904065  1.879062
N    -4.451832  -4.241469  1.294389
H    -4.510846  -0.028019  1.940877
H    -3.578571  0.925723  3.084348
H    -4.363821  -1.162678  4.133082
H    -2.609199  -1.101265  4.123002
H    -3.373452  -3.352797  3.588719
H    -2.494083  -2.701380  2.221348
H    -4.640172  -2.187231  1.044723
H    -5.549911  -2.764970  2.446430
H    -4.532305  -4.959167  2.016254
H    -5.192623  -4.425722  0.618285
N    -1.908870  2.124430  0.251393
C    -2.077754  3.179804  -0.727007
H    -1.094618  2.115628  0.856760
H    -2.158142  4.162374  -0.241675
H    -3.003326  2.976747  -1.276618
H    -1.238365  3.203247  -1.435916
