33
Energy: -18209.2531717 eV PBE+vdW (tier 2 basis)
C    0.094842  -0.684090  -0.097700
C    0.283194  0.389367  0.955548
O    1.308520  1.061453  1.022651
H    -0.937391  -0.790525  -0.447787
H    0.403782  -1.654881  0.315519
H    0.750250  -0.447260  -0.940373
N    -0.711032  0.554734  1.903604
C    -2.098288  0.075860  1.877648
C    -2.188239  -1.473686  1.917397
O    -3.055155  -2.091673  1.306564
H    -0.514515  1.343788  2.513774
H    -2.517963  0.401835  2.844198
C    -2.979144  0.682592  0.768187
C    -4.444451  0.845777  1.181179
C    -5.317291  1.382406  0.044896
C    -6.779321  1.618738  0.430139
N    -7.425161  0.375559  0.871383
H    -2.926225  0.050775  -0.130055
H    -2.554175  1.662650  0.502588
H    -4.505854  1.535283  2.041903
H    -4.846059  -0.117386  1.521766
H    -5.278420  0.678612  -0.805195
H    -4.903005  2.331919  -0.332920
H    -7.290911  2.110520  -0.421020
H    -6.821923  2.328399  1.272175
H    -8.388271  0.551662  1.155817
H    -7.466620  -0.294991  0.102119
N    -1.261235  -2.063650  2.722376
C    -1.173938  -3.499442  2.897059
H    -0.531259  -1.467007  3.096978
H    -0.276799  -3.913529  2.412918
H    -2.060163  -3.945845  2.433828
H    -1.152876  -3.763227  3.962859
