33
Energy: -18209.2045073 eV PBE+vdW (tier 2 basis)
C    0.193857  -0.972472  0.728914
C    -0.167748  -0.781607  2.194408
O    0.612033  -1.085386  3.094633
H    0.201495  -0.014083  0.189395
H    -0.510244  -1.638239  0.211446
H    1.194554  -1.409886  0.685145
N    -1.397864  -0.248356  2.474990
C    -2.410335  0.223915  1.551826
C    -3.159293  1.359972  2.279220
O    -3.097649  1.471470  3.504863
H    -1.572630  -0.007272  3.451411
H    -1.923232  0.650494  0.660666
C    -3.359101  -0.907680  1.063248
C    -4.230698  -1.562863  2.149635
C    -5.564947  -0.866581  2.474745
C    -6.727423  -1.176996  1.527863
N    -6.520979  -0.678116  0.152023
H    -2.710197  -1.673525  0.614621
H    -3.982214  -0.517571  0.248621
H    -3.631748  -1.648494  3.068584
H    -4.443238  -2.601864  1.847793
H    -5.433114  0.222519  2.530309
H    -5.879866  -1.180929  3.481773
H    -7.627130  -0.679347  1.917925
H    -6.934281  -2.264912  1.558559
H    -7.412843  -0.662066  -0.343356
H    -5.930507  -1.324627  -0.372970
N    -3.884386  2.232463  1.525519
C    -4.176406  2.192137  0.100396
H    -4.395741  2.904042  2.090620
H    -4.446044  3.202433  -0.228538
H    -5.005525  1.504757  -0.133257
H    -3.288999  1.890370  -0.470030
