33
Energy: -18209.560294 eV PBE+vdW (tier 2 basis)
C    -2.212355  1.874487  0.110855
C    -2.014508  0.773614  1.135728
O    -1.538243  -0.324483  0.827903
H    -1.233520  2.161723  -0.294396
H    -2.704869  2.762480  0.525359
H    -2.807875  1.480544  -0.721769
N    -2.379172  1.107519  2.406779
C    -2.322668  0.118448  3.470948
C    -3.715615  -0.504748  3.674376
O    -4.692586  0.168385  4.032907
H    -2.947375  1.959614  2.566419
H    -1.636178  -0.649986  3.097295
C    -1.721087  0.635267  4.796720
C    -2.424476  1.752200  5.586894
C    -2.304478  3.184708  5.006117
C    -3.621006  3.818900  4.550335
N    -4.224351  3.092796  3.419815
H    -0.689028  0.947617  4.570006
H    -1.632336  -0.245343  5.453744
H    -1.978640  1.745497  6.591972
H    -3.481454  1.486991  5.732864
H    -1.596402  3.192532  4.163208
H    -1.871631  3.848423  5.769197
H    -3.417998  4.847986  4.218523
H    -4.304785  3.895593  5.418026
H    -4.649635  2.211928  3.737428
H    -4.967578  3.645991  2.994992
N    -3.837903  -1.838638  3.444961
C    -2.839925  -2.764874  2.920564
H    -4.778306  -2.188340  3.603851
H    -2.110112  -3.065512  3.687548
H    -2.308912  -2.328655  2.064148
H    -3.358600  -3.667148  2.578511
