33
Energy: -18209.1250658 eV PBE+vdW (tier 2 basis)
C    -1.210472  -0.796712  -0.577261
C    -0.494209  -0.583569  0.739615
O    0.619098  -1.058657  0.958049
H    -0.984409  0.049010  -1.243033
H    -2.300839  -0.867362  -0.493588
H    -0.808781  -1.704899  -1.035555
N    -1.099890  0.191563  1.703769
C    -2.407184  0.856054  1.721259
C    -3.578274  -0.144779  1.547213
O    -4.400904  -0.031559  0.640353
H    -0.499705  0.322339  2.511925
H    -2.494935  1.259139  2.744314
C    -2.537750  2.033069  0.746628
C    -1.434669  3.079368  0.918933
C    -1.561746  4.280720  -0.025685
C    -1.395504  3.935239  -1.506868
N    -1.426540  5.153909  -2.323934
H    -3.525337  2.491297  0.903810
H    -2.560010  1.645866  -0.279951
H    -0.450718  2.605465  0.771930
H    -1.440583  3.445652  1.959419
H    -0.793190  5.023454  0.246543
H    -2.532371  4.782068  0.113318
H    -2.229485  3.299758  -1.839935
H    -0.471246  3.332664  -1.631073
H    -0.605445  5.730474  -2.134057
H    -1.395271  4.923054  -3.316719
N    -3.664368  -1.163975  2.453331
C    -2.811846  -1.459691  3.592868
H    -4.431391  -1.799475  2.257726
H    -3.354069  -2.134779  4.264450
H    -2.578809  -0.551176  4.164714
H    -1.866537  -1.939436  3.301114
