33
Energy: -18209.4077408 eV PBE+vdW (tier 2 basis)
C    0.976907  -1.106922  0.870820
C    0.342792  -0.166249  1.877380
O    0.941997  0.209845  2.885574
H    0.349375  -1.302573  -0.007264
H    1.198881  -2.058395  1.370540
H    1.931606  -0.679136  0.541739
N    -0.926628  0.247249  1.573428
C    -1.713529  1.048019  2.500796
C    -2.656599  0.104925  3.276703
O    -3.525430  -0.533164  2.678668
H    -1.433401  -0.231934  0.836338
H    -0.982121  1.519626  3.166649
C    -2.525810  2.125634  1.775069
C    -3.248614  3.067030  2.740640
C    -4.090820  4.124918  2.024713
C    -4.842847  5.067404  2.967131
N    -5.796595  4.331228  3.808906
H    -3.259409  1.630680  1.118585
H    -1.836363  2.691364  1.129285
H    -2.508032  3.570449  3.386092
H    -3.901964  2.492634  3.413540
H    -4.818217  3.624071  1.361710
H    -3.450620  4.731855  1.363822
H    -5.308973  5.871658  2.364548
H    -4.121690  5.558970  3.639696
H    -6.544365  3.938051  3.234962
H    -6.243985  4.957916  4.477232
N    -2.477825  -0.000754  4.620386
C    -1.484482  0.667296  5.452279
H    -3.142863  -0.622444  5.070489
H    -1.464698  0.169515  6.427862
H    -1.727433  1.728062  5.617806
H    -0.482343  0.588031  5.011401
