33
Energy: -18209.281672 eV PBE+vdW (tier 2 basis)
C    1.722264  -0.074298  0.596531
C    1.139365  0.065929  1.993376
O    1.671870  0.767065  2.855158
H    1.097730  -0.673521  -0.077770
H    2.714012  -0.539730  0.671197
H    1.864164  0.925819  0.169546
N    0.014457  -0.666630  2.225454
C    -0.747106  -0.531905  3.457061
C    -0.194368  -1.161206  4.757862
O    -0.734699  -0.828278  5.813490
H    -0.452496  -1.140671  1.438724
H    -0.797395  0.536693  3.716456
C    -2.175596  -1.053828  3.226161
C    -2.284429  -2.584405  3.016376
C    -3.140629  -3.024114  1.816204
C    -2.377210  -3.187303  0.499796
N    -1.707558  -1.943907  0.064186
H    -2.586526  -0.515658  2.359433
H    -2.775758  -0.752974  4.092900
H    -2.692531  -3.031887  3.932090
H    -1.281539  -3.025941  2.904477
H    -3.979180  -2.320273  1.676354
H    -3.607557  -3.997307  2.030606
H    -3.066958  -3.586929  -0.266328
H    -1.588826  -3.943556  0.639956
H    -1.222013  -2.105902  -0.819393
H    -2.405392  -1.222303  -0.129608
N    0.800075  -2.099045  4.767608
C    1.685674  -2.604092  3.728141
H    1.031913  -2.356447  5.722601
H    2.254122  -3.438706  4.154773
H    2.399303  -1.843256  3.381073
H    1.128036  -2.986361  2.865806
