33
Energy: -18209.0226191 eV PBE+vdW (tier 2 basis)
C    0.016746  0.224775  1.181104
C    -0.509306  0.661389  2.531964
O    -0.055615  1.651887  3.104132
H    0.358544  1.121843  0.656245
H    -0.704554  -0.314762  0.561157
H    0.886863  -0.430115  1.331845
N    -1.482844  -0.086787  3.155457
C    -2.293441  -1.226647  2.718171
C    -1.488261  -2.298343  1.947109
O    -1.833558  -2.703846  0.839327
H    -1.750077  0.332461  4.042481
H    -2.580197  -1.733507  3.657453
C    -3.622894  -0.871305  2.021583
C    -3.581626  -0.036425  0.731059
C    -3.506967  1.482636  0.934170
C    -3.314267  2.261687  -0.367543
N    -4.455039  2.096740  -1.281057
H    -4.250425  -0.352408  2.764796
H    -4.119616  -1.829614  1.814437
H    -4.500868  -0.267219  0.171376
H    -2.757821  -0.384207  0.091000
H    -2.682219  1.747931  1.609660
H    -4.434160  1.829173  1.419105
H    -2.342107  1.968224  -0.815575
H    -3.236796  3.332439  -0.129747
H    -4.376153  2.744700  -2.064435
H    -4.459035  1.160940  -1.687892
N    -0.391898  -2.821314  2.575310
C    0.144961  -2.536759  3.895870
H    0.085865  -3.515305  2.009028
H    0.755926  -3.389865  4.212497
H    -0.657554  -2.414184  4.634382
H    0.769373  -1.631706  3.916590
