33
Energy: -18209.0263549 eV PBE+vdW (tier 2 basis)
C    1.215437  -0.228095  0.691121
C    0.575923  0.275185  1.976685
O    1.253054  0.797614  2.861319
H    1.740243  0.607987  0.212453
H    0.510462  -0.665012  -0.026960
H    1.970098  -0.980925  0.950417
N    -0.779841  0.108908  2.037288
C    -1.745186  0.365094  3.119547
C    -2.711093  1.549049  2.857394
O    -3.903841  1.381187  3.122842
H    -1.199188  -0.311819  1.216432
H    -2.446025  -0.477887  3.046431
C    -1.207862  0.291372  4.572336
C    -0.579812  1.523932  5.240961
C    -1.575824  2.564025  5.766986
C    -0.900646  3.768232  6.424947
N    -0.144165  4.568070  5.445347
H    -0.490624  -0.540592  4.595796
H    -2.069474  -0.028806  5.178508
H    0.148038  1.972074  4.554771
H    0.015388  1.157782  6.094197
H    -2.240691  2.088036  6.506150
H    -2.224933  2.935022  4.962459
H    -0.280952  3.417725  7.275505
H    -1.676180  4.422171  6.849700
H    0.189978  5.428547  5.879390
H    0.690427  4.062299  5.145169
N    -2.273582  2.717481  2.309899
C    -0.931233  3.259336  2.161080
H    -3.041338  3.374708  2.195643
H    -0.826355  4.170761  2.766428
H    -0.718935  3.491944  1.107066
H    -0.179725  2.551744  2.516502
