33
Energy: -18209.4972508 eV PBE+vdW (tier 2 basis)
C    2.119559  -1.368285  0.885175
C    1.448858  -1.079432  2.213276
O    2.098849  -1.065027  3.267209
H    2.950007  -0.665129  0.748726
H    1.447310  -1.304132  0.021151
H    2.549180  -2.377347  0.925350
N    0.110643  -0.836495  2.156442
C    -0.818126  -0.648697  3.284261
C    -0.654773  0.684496  4.054555
O    -1.650231  1.374777  4.301436
H    -0.309841  -0.825003  1.235760
H    -1.810182  -0.561114  2.823672
C    -0.837098  -1.853172  4.251535
C    -2.023316  -1.819599  5.243654
C    -1.624621  -2.012193  6.714350
C    -0.846483  -0.844428  7.330606
N    -1.672871  0.364616  7.426588
H    0.119331  -1.891730  4.789305
H    -0.877612  -2.765071  3.638366
H    -2.742691  -2.603316  4.966500
H    -2.574223  -0.872759  5.144048
H    -1.021622  -2.930311  6.812629
H    -2.535896  -2.161292  7.312942
H    0.101630  -0.695692  6.772905
H    -0.555402  -1.130018  8.352396
H    -1.214101  1.062900  8.010187
H    -1.808806  0.799284  6.511093
N    0.597723  0.975807  4.471227
C    0.894124  2.139187  5.282296
H    1.334670  0.293897  4.250174
H    1.841007  2.590492  4.961068
H    0.971881  1.878523  6.349634
H    0.083487  2.866336  5.164723
