33
Energy: -18209.2913015 eV PBE+vdW (tier 2 basis)
C    -0.644665  0.872557  -0.061370
C    -0.564571  0.203614  1.293984
O    0.466281  0.227957  1.964608
H    0.335785  0.777076  -0.539576
H    -0.844824  1.943452  0.089317
H    -1.420181  0.468216  -0.720225
N    -1.675229  -0.471896  1.772650
C    -3.081732  -0.310343  1.374242
C    -3.431737  -0.989533  0.024602
O    -4.429267  -0.664587  -0.613810
H    -1.511800  -0.809980  2.717437
H    -3.648707  -0.903140  2.113050
C    -3.589015  1.135437  1.452066
C    -3.658986  1.673475  2.887762
C    -3.761081  3.210800  2.953922
C    -2.428166  3.927447  3.202983
N    -1.389964  3.583936  2.212998
H    -4.582193  1.165266  0.985058
H    -2.946055  1.786662  0.846682
H    -2.773389  1.348249  3.460694
H    -4.522510  1.216382  3.395545
H    -4.447053  3.506247  3.762335
H    -4.204496  3.586160  2.018369
H    -2.104229  3.720974  4.241884
H    -2.601650  5.011613  3.143552
H    -0.686098  4.320424  2.179993
H    -0.886203  2.743826  2.501639
N    -2.595010  -2.000741  -0.335133
C    -2.780803  -2.783559  -1.539601
H    -1.780518  -2.152134  0.250467
H    -2.857366  -3.854668  -1.307230
H    -1.952420  -2.633851  -2.247014
H    -3.712916  -2.452674  -2.010200
