33
Energy: -18209.2182909 eV PBE+vdW (tier 2 basis)
C    0.922496  -1.443876  0.232329
C    0.405518  -1.196022  1.638919
O    0.807959  -1.850429  2.598610
H    1.990316  -1.188951  0.204474
H    0.404135  -0.868637  -0.544941
H    0.836643  -2.513636  0.009213
N    -0.489404  -0.162445  1.749613
C    -1.250441  0.174095  2.962654
C    -2.171092  1.374831  2.696860
O    -3.244799  1.487398  3.278112
H    -0.898103  0.161027  0.879045
H    -1.929667  -0.658428  3.203933
C    -0.409984  0.434556  4.240385
C    0.494754  1.677357  4.275310
C    1.767044  1.660213  3.404676
C    3.011666  1.024466  4.060475
N    2.937363  -0.363396  4.514564
H    0.163432  -0.475716  4.442211
H    -1.155985  0.527269  5.043639
H    0.796402  1.829838  5.325430
H    -0.107008  2.566234  4.028549
H    2.037086  2.699412  3.150548
H    1.569956  1.160617  2.444843
H    3.302751  1.637818  4.928692
H    3.847167  1.104338  3.345353
H    2.517593  -0.968858  3.805192
H    2.348862  -0.443855  5.342947
N    -1.707206  2.297242  1.794835
C    -2.409826  3.547690  1.563149
H    -0.728230  2.242901  1.532231
H    -2.227518  3.893921  0.539126
H    -2.098836  4.333262  2.269157
H    -3.480904  3.370785  1.703631
