33
Energy: -18209.2563517 eV PBE+vdW (tier 2 basis)
C    2.440420  0.285459  1.370304
C    1.401343  0.329698  2.471984
O    1.716046  0.450708  3.656717
H    3.107366  1.148051  1.482205
H    2.017817  0.284626  0.358072
H    3.042109  -0.623594  1.502556
N    0.105244  0.197898  2.064672
C    -1.042612  0.234560  2.965483
C    -0.893451  1.429713  3.948252
O    -0.690242  2.554074  3.501002
H    -0.078430  0.200310  1.070049
H    -1.882992  0.577508  2.342422
C    -1.451244  -1.171647  3.488300
C    -0.354707  -2.149242  3.934140
C    0.319191  -1.877084  5.282275
C    1.547206  -2.757362  5.534774
N    2.574846  -2.509494  4.514471
H    -1.988741  -1.652361  2.655934
H    -2.214654  -1.042901  4.273991
H    0.422033  -2.199912  3.158789
H    -0.804955  -3.154812  3.965178
H    -0.399028  -2.031204  6.106307
H    0.658639  -0.831565  5.323464
H    1.263686  -3.822067  5.482511
H    1.895582  -2.573363  6.570276
H    2.789270  -1.509872  4.473646
H    3.437376  -3.000261  4.746289
N    -1.135168  1.183592  5.265174
C    -0.969180  2.226757  6.260574
H    -1.097209  0.222704  5.580717
H    -1.579054  1.995666  7.141779
H    -1.297964  3.177496  5.828463
H    0.082870  2.338348  6.566598
