33
Energy: -18209.2730776 eV PBE+vdW (tier 2 basis)
C    -0.733033  -0.562037  0.000321
C    -0.350164  -0.407023  1.463085
O    0.784247  -0.633431  1.868860
H    -1.665210  -0.051568  -0.273118
H    -0.846294  -1.632736  -0.218532
H    0.085449  -0.183882  -0.621481
N    -1.371569  0.020770  2.282517
C    -1.341894  0.041067  3.750851
C    -0.096020  0.749732  4.343603
O    0.368786  0.409846  5.426790
H    -2.287084  0.107050  1.856331
H    -2.177117  0.703413  4.034993
C    -1.616927  -1.317504  4.416318
C    -0.648876  -2.458081  4.096542
C    -0.956594  -3.713712  4.915066
C    -0.008756  -4.871650  4.611890
N    -0.369175  -6.061920  5.396531
H    -2.643821  -1.618721  4.149746
H    -1.614062  -1.134202  5.500642
H    0.381003  -2.127329  4.289256
H    -0.696306  -2.705651  3.024305
H    -1.990725  -4.050926  4.736741
H    -0.893815  -3.468550  5.989767
H    1.034329  -4.531585  4.768352
H    -0.092113  -5.139747  3.546653
H    0.249306  -6.840062  5.166453
H    -0.235531  -5.877113  6.392281
N    0.330188  1.843541  3.650937
C    1.544531  2.545850  4.020949
H    0.000051  1.934870  2.697251
H    1.461482  3.605652  3.750912
H    2.430911  2.115977  3.528847
H    1.675502  2.457970  5.104252
