33
Energy: -18209.1997901 eV PBE+vdW (tier 2 basis)
C    -0.021263  -0.153259  0.888126
C    -0.158715  -0.582838  2.339047
O    0.811552  -0.904874  3.019914
H    1.040437  -0.187703  0.631058
H    -0.397447  0.864834  0.717739
H    -0.574330  -0.823010  0.214738
N    -1.425243  -0.593703  2.873818
C    -2.691772  -0.352043  2.186101
C    -3.584279  0.438948  3.164492
O    -4.382281  -0.124328  3.911624
H    -1.470973  -0.964345  3.820570
H    -2.466901  0.279142  1.317584
C    -3.363615  -1.646827  1.709804
C    -4.578484  -1.457865  0.786837
C    -4.306834  -0.560383  -0.437798
C    -4.796411  0.881656  -0.261775
N    -4.046224  1.806100  -1.125831
H    -3.658145  -2.230403  2.593387
H    -2.593274  -2.228528  1.179391
H    -5.423340  -1.053554  1.365696
H    -4.897507  -2.456402  0.456937
H    -4.779729  -0.989474  -1.334198
H    -3.225826  -0.535307  -0.655279
H    -4.643660  1.207493  0.777484
H    -5.891742  0.905370  -0.423861
H    -4.122661  1.517753  -2.103159
H    -4.447353  2.743524  -1.077189
N    -3.418462  1.795024  3.180962
C    -2.438074  2.582882  2.447311
H    -3.961034  2.258109  3.903381
H    -2.614921  3.640911  2.667522
H    -2.539327  2.451184  1.360177
H    -1.406140  2.340934  2.742462
