33
Energy: -18208.7839036 eV PBE+vdW (tier 2 basis)
C    0.524506  0.453606  1.393730
C    -0.170648  0.589248  2.726180
O    0.424781  1.066726  3.693541
H    1.196758  -0.412137  1.457728
H    1.139059  1.348873  1.248604
H    -0.133641  0.281078  0.543101
N    -1.467569  0.146951  2.929465
C    -2.599975  -0.306596  2.118267
C    -2.318505  -1.568927  1.279433
O    -1.249347  -1.797702  0.722906
H    -1.709409  0.313139  3.902518
H    -3.332551  -0.610260  2.880124
C    -3.340480  0.779132  1.285681
C    -2.612332  1.436905  0.102511
C    -1.861157  2.732882  0.449413
C    -2.773292  3.953513  0.612501
N    -3.480220  4.261675  -0.638713
H    -3.671859  1.551250  1.998188
H    -4.264157  0.307621  0.916415
H    -3.357034  1.689616  -0.665692
H    -1.932587  0.712872  -0.367324
H    -1.126673  2.948333  -0.344250
H    -1.276682  2.619543  1.372913
H    -2.166705  4.793853  1.000668
H    -3.538107  3.748890  1.378942
H    -4.151265  5.015963  -0.496835
H    -2.820014  4.590425  -1.345076
N    -3.371054  -2.438635  1.142307
C    -4.656236  -2.446421  1.821938
H    -3.138239  -3.238324  0.561993
H    -5.266409  -1.565286  1.576826
H    -4.551755  -2.508681  2.915992
H    -5.212140  -3.330859  1.493010
