33
Energy: -18209.5056656 eV PBE+vdW (tier 2 basis)
C    -0.822651  -2.424475  0.099408
C    -1.603365  -1.395085  0.895951
O    -2.767999  -1.098219  0.624077
H    0.216289  -2.542166  0.430979
H    -0.833935  -2.135451  -0.958472
H    -1.333558  -3.392523  0.179375
N    -0.931163  -0.836243  1.941228
C    -1.505632  0.203140  2.768827
C    -0.330222  0.962529  3.404740
O    0.805276  0.484338  3.440201
H    0.058884  -1.010151  2.099580
H    -2.075052  0.879654  2.109994
C    -2.495253  -0.326409  3.841409
C    -1.891869  -1.042241  5.056062
C    -1.165848  -2.363494  4.775892
C    -0.819792  -3.127184  6.062429
N    -0.099496  -4.393577  5.900528
H    -3.202739  -0.983426  3.315381
H    -3.091087  0.529787  4.197115
H    -2.718212  -1.239652  5.759441
H    -1.208057  -0.360504  5.589534
H    -0.236074  -2.175983  4.218439
H    -1.792572  -3.002445  4.130652
H    -1.745271  -3.338911  6.622488
H    -0.212687  -2.481739  6.717533
H    -0.632877  -5.031534  5.307648
H    0.789609  -4.236363  5.423467
N    -0.652173  2.166696  3.947086
C    0.302095  2.995167  4.660320
H    -1.607258  2.491616  3.854536
H    1.265389  2.475388  4.647647
H    -0.007518  3.150054  5.703280
H    0.418817  3.973404  4.174225
