33
Energy: -18209.1342118 eV PBE+vdW (tier 2 basis)
C    0.861648  -1.665197  1.239381
C    0.415554  -0.441371  2.020175
O    0.988069  0.640525  1.935161
H    0.294265  -2.575055  1.473251
H    1.925156  -1.843508  1.439339
H    0.763006  -1.452590  0.167308
N    -0.671160  -0.626978  2.834589
C    -1.275360  0.461015  3.586104
C    -0.515555  0.970369  4.827707
O    -0.657172  2.153720  5.141587
H    -1.122661  -1.533594  2.849922
H    -1.264557  1.343358  2.931373
C    -2.725889  0.102072  3.962134
C    -3.707046  0.167344  2.775227
C    -4.444232  1.502550  2.579302
C    -3.601403  2.770371  2.350819
N    -3.179767  3.416799  3.599572
H    -3.059481  0.777446  4.761459
H    -2.725207  -0.909218  4.403897
H    -4.470266  -0.614906  2.905430
H    -3.171432  -0.096148  1.847544
H    -5.094621  1.695129  3.447193
H    -5.110732  1.374779  1.711422
H    -4.236540  3.494661  1.820517
H    -2.767646  2.536423  1.655367
H    -2.352254  2.985381  4.022457
H    -2.920544  4.385478  3.417634
N    0.248516  0.137717  5.589749
C    0.491556  -1.291754  5.487577
H    0.688171  0.630183  6.361171
H    0.917530  -1.630324  6.439078
H    1.198888  -1.545992  4.685475
H    -0.437745  -1.853856  5.330431
