33
Energy: -18209.1874568 eV PBE+vdW (tier 2 basis)
C    0.102204  -0.469413  0.345117
C    0.074023  -0.266525  1.850141
O    1.098837  -0.296628  2.527386
H    -0.432188  -1.383223  0.054101
H    1.149332  -0.561164  0.045666
H    -0.351887  0.368792  -0.199820
N    -1.144148  -0.043562  2.447683
C    -2.487698  -0.032934  1.869412
C    -3.208582  1.211184  2.438505
O    -3.923795  1.136910  3.435408
H    -1.084148  0.049300  3.459869
H    -2.376670  0.069925  0.781473
C    -3.290523  -1.302345  2.182833
C    -2.702666  -2.575073  1.571681
C    -3.454152  -3.858808  1.955592
C    -3.419950  -4.207500  3.446954
N    -2.044724  -4.431818  3.913449
H    -4.320483  -1.153310  1.821995
H    -3.374238  -1.385291  3.275899
H    -1.644851  -2.679761  1.860684
H    -2.704087  -2.486959  0.472602
H    -3.018085  -4.700647  1.397075
H    -4.507551  -3.775138  1.641490
H    -3.973744  -5.146315  3.593090
H    -3.965746  -3.435323  4.024454
H    -1.527119  -3.553239  3.960392
H    -2.048543  -4.808006  4.861082
N    -2.989036  2.403662  1.807829
C    -2.062329  2.692197  0.726248
H    -3.420297  3.189318  2.285150
H    -2.193468  3.738086  0.429654
H    -2.267267  2.075224  -0.159825
H    -1.012499  2.548923  1.022920
