33
Energy: -18209.1073797 eV PBE+vdW (tier 2 basis)
C    0.556244  1.329712  0.727087
C    0.193236  0.343386  1.822276
O    1.056467  -0.205443  2.502439
H    1.640476  1.291161  0.594070
H    0.273853  2.351621  1.014512
H    0.064053  1.095575  -0.225504
N    -1.137561  0.091168  2.068044
C    -2.341753  0.499972  1.338353
C    -2.376735  -0.165933  -0.066065
O    -2.380146  -1.388883  -0.162855
H    -1.256808  -0.658694  2.741820
H    -3.159810  -0.013072  1.865227
C    -2.643529  2.007637  1.429439
C    -4.120551  2.352286  1.208465
C    -4.396136  3.857162  1.248386
C    -5.883075  4.214194  1.165639
N    -6.613188  3.710455  2.336860
H    -2.005923  2.589594  0.742240
H    -2.343225  2.332519  2.436997
H    -4.730205  1.858874  1.979901
H    -4.472133  1.948852  0.244050
H    -3.867760  4.360792  0.421836
H    -3.976868  4.284703  2.176196
H    -6.320723  3.737743  0.274164
H    -5.979581  5.307143  1.016455
H    -6.374344  4.255528  3.166456
H    -7.619213  3.808693  2.205500
N    -2.396535  0.669598  -1.144698
C    -2.436777  0.182434  -2.510373
H    -2.392123  1.668659  -0.982451
H    -2.449362  -0.911723  -2.467906
H    -1.551730  0.507537  -3.075300
H    -3.338990  0.532307  -3.031394
