33
Energy: -18209.5302281 eV PBE+vdW (tier 2 basis)
C    -0.650224  0.110855  -0.065186
C    -0.784291  -0.788904  1.145211
O    -0.450401  -1.979993  1.112475
H    0.405595  0.141768  -0.362352
H    -1.001715  1.135826  0.104756
H    -1.211603  -0.328658  -0.898729
N    -1.287876  -0.207883  2.268591
C    -1.426871  -0.909885  3.545957
C    -2.753287  -1.719964  3.586987
O    -3.703805  -1.396591  4.297174
H    -1.620539  0.748739  2.220966
H    -0.594995  -1.631343  3.583309
C    -1.323275  0.067582  4.713120
C    0.072554  0.676356  4.878021
C    0.172109  1.738335  5.982824
C    -0.179642  1.252992  7.392316
N    0.727199  0.184267  7.836699
H    -1.627536  -0.474166  5.619090
H    -2.083152  0.857858  4.592325
H    0.393739  1.133667  3.928913
H    0.802429  -0.127557  5.070310
H    -0.491905  2.583062  5.734863
H    1.199182  2.133126  5.999809
H    -1.250494  0.972159  7.433459
H    -0.057258  2.096306  8.087500
H    0.532064  -0.685380  7.339172
H    0.575773  -0.017966  8.824668
N    -2.732147  -2.803791  2.766706
C    -3.886072  -3.658483  2.572017
H    -1.912310  -2.905988  2.162490
H    -4.629959  -3.404764  3.334661
H    -3.606984  -4.715331  2.677391
H    -4.336304  -3.512250  1.578487
