33
Energy: -18209.0324701 eV PBE+vdW (tier 2 basis)
C    -0.125860  0.207463  2.396746
C    -1.012598  -0.301630  3.509735
O    -0.751783  -0.037226  4.687876
H    -0.592714  0.235903  1.409339
H    0.737747  -0.464886  2.316948
H    0.234757  1.200982  2.684775
N    -2.103462  -1.096812  3.238418
C    -2.858557  -1.357794  2.016858
C    -2.093851  -2.233718  1.002908
O    -0.870914  -2.273150  0.924580
H    -2.599203  -1.307984  4.099698
H    -3.713995  -1.959571  2.359038
C    -3.455867  -0.081677  1.367181
C    -4.622639  0.515995  2.187856
C    -4.463848  1.991781  2.571009
C    -3.354599  2.242150  3.604175
N    -3.571394  1.479977  4.839213
H    -3.789007  -0.318992  0.346876
H    -2.649396  0.653132  1.241863
H    -4.738657  -0.043670  3.127783
H    -5.561317  0.384569  1.630196
H    -5.419726  2.353207  2.984084
H    -4.265595  2.605566  1.676421
H    -3.267194  3.331108  3.773190
H    -2.387268  1.933363  3.183724
H    -4.098191  2.020891  5.522205
H    -2.680714  1.217728  5.263647
N    -2.877575  -2.969307  0.149295
C    -4.312298  -3.199930  0.205620
H    -2.331232  -3.536799  -0.490838
H    -4.621479  -3.716830  1.127834
H    -4.592116  -3.835111  -0.641517
H    -4.886893  -2.267293  0.119945
