33
Energy: -18209.476503 eV PBE+vdW (tier 2 basis)
C    0.884927  1.249964  0.224942
C    0.612380  0.960317  1.690319
O    1.120259  1.638608  2.590088
H    0.278002  0.640528  -0.455785
H    1.946740  1.061275  0.019961
H    0.697592  2.313242  0.032915
N    -0.214348  -0.091348  1.925300
C    -0.611856  -0.469165  3.273717
C    0.442205  -1.423152  3.885312
O    0.615468  -2.547353  3.411716
H    -0.678131  -0.557897  1.132184
H    -0.684565  0.456911  3.860588
C    -1.962346  -1.203423  3.255958
C    -3.070963  -0.479251  2.466822
C    -3.833196  -1.379791  1.479736
C    -2.968837  -2.148472  0.473505
N    -2.017670  -1.269134  -0.235141
H    -2.271098  -1.368970  4.297712
H    -1.771102  -2.203848  2.843343
H    -2.632870  0.363066  1.912712
H    -3.797372  -0.030699  3.159170
H    -4.561906  -0.760929  0.929335
H    -4.430392  -2.123521  2.031333
H    -3.640791  -2.695571  -0.212375
H    -2.370297  -2.910496  0.993548
H    -1.505090  -1.805697  -0.936018
H    -2.522146  -0.540397  -0.744457
N    1.141739  -0.986860  4.967994
C    1.131192  0.333336  5.586612
H    1.800366  -1.675533  5.318850
H    0.257520  0.479038  6.240954
H    1.157844  1.117297  4.818645
H    2.031142  0.428862  6.204448
