33
Energy: -18209.0493913 eV PBE+vdW (tier 2 basis)
C    0.823003  -0.097623  0.411111
C    0.528040  0.086128  1.890095
O    1.418877  0.255916  2.716793
H    1.544121  0.665445  0.097293
H    -0.064018  -0.045053  -0.232595
H    1.299941  -1.077127  0.271895
N    -0.801031  0.050774  2.221938
C    -1.341748  0.064465  3.584018
C    -0.545981  0.966543  4.565783
O    -0.166983  0.540849  5.651560
H    -1.459539  -0.151788  1.479006
H    -2.332726  0.545763  3.499442
C    -1.570077  -1.338061  4.174095
C    -0.339296  -2.264988  4.232237
C    -0.167179  -3.208815  3.032277
C    -1.211232  -4.336103  2.924732
N    -1.252326  -5.318090  4.013152
H    -2.379462  -1.814260  3.596556
H    -1.965496  -1.184234  5.186581
H    -0.405648  -2.870213  5.149778
H    0.565278  -1.658727  4.359771
H    0.833887  -3.668126  3.086641
H    -0.181311  -2.636282  2.090518
H    -1.039486  -4.888423  1.987861
H    -2.223290  -3.909546  2.834052
H    -0.332515  -5.743691  4.140953
H    -1.481706  -4.865510  4.898596
N    -0.419819  2.292922  4.249892
C    -0.739190  2.984053  3.016059
H    0.153759  2.788042  4.925702
H    -0.840724  4.054558  3.231631
H    -1.697451  2.639736  2.608582
H    0.033865  2.857443  2.241325
