33
Energy: -18208.9972322 eV PBE+vdW (tier 2 basis)
C    0.583740  -1.355546  0.776224
C    0.187011  -0.918953  2.167892
O    0.987726  -0.955162  3.105634
H    1.363939  -2.115860  0.883157
H    -0.255998  -1.758238  0.202338
H    1.027170  -0.504191  0.239367
N    -1.090713  -0.465133  2.411251
C    -2.181665  -0.024261  1.546276
C    -2.988482  -1.210985  0.969585
O    -2.465481  -2.267185  0.628140
H    -1.198409  -0.234458  3.394179
H    -2.847109  0.534761  2.220809
C    -1.795734  0.943931  0.400537
C    -1.363074  2.364438  0.802390
C    -0.059121  2.492453  1.618002
C    -0.274589  2.634435  3.139790
N    0.867876  2.347723  4.001764
H    -2.674443  1.029299  -0.258171
H    -1.019894  0.474297  -0.218772
H    -2.186725  2.852773  1.352819
H    -1.264395  2.934179  -0.133537
H    0.508080  3.368794  1.267956
H    0.592302  1.627193  1.430307
H    -1.097076  1.976162  3.459307
H    -0.624654  3.657446  3.355150
H    1.168619  1.377054  3.879547
H    1.662968  2.940218  3.760509
N    -4.334327  -1.007486  0.818331
C    -5.133774  0.133356  1.235187
H    -4.814089  -1.804576  0.412251
H    -6.171769  -0.046835  0.936553
H    -4.811085  1.068318  0.754587
H    -5.122709  0.277578  2.326334
