33
Energy: -18209.1344535 eV PBE+vdW (tier 2 basis)
C    -0.219679  0.473782  0.647768
C    -0.521008  -0.220247  1.960277
O    0.369000  -0.770194  2.605272
H    -0.052618  -0.296712  -0.117432
H    0.717756  1.026354  0.769358
H    -0.998612  1.150997  0.288142
N    -1.827096  -0.297665  2.408711
C    -3.039018  0.440205  2.028840
C    -3.369329  0.346730  0.516942
O    -3.904304  1.270815  -0.089020
H    -1.863084  -0.761422  3.313521
H    -3.855077  -0.140332  2.493349
C    -3.196018  1.865524  2.595651
C    -2.189727  2.956595  2.189927
C    -0.882934  3.027258  2.995666
C    -1.052770  3.567225  4.415450
N    0.248959  3.635113  5.091686
H    -3.225573  1.774760  3.692680
H    -4.200988  2.186839  2.289441
H    -2.701846  3.927188  2.289213
H    -1.968473  2.869981  1.117792
H    -0.166207  3.677118  2.471701
H    -0.401596  2.039816  3.059140
H    -1.802747  2.958814  4.960486
H    -1.459490  4.590055  4.366458
H    0.649420  2.699415  5.178973
H    0.143989  3.994626  6.040445
N    -3.098187  -0.867107  -0.039501
C    -3.332984  -1.156856  -1.439649
H    -2.595337  -1.537345  0.531901
H    -3.883242  -2.099814  -1.555663
H    -2.390254  -1.225234  -2.003342
H    -3.930764  -0.338415  -1.854334
