33
Energy: -18209.1991909 eV PBE+vdW (tier 2 basis)
C    0.466242  1.348303  1.045439
C    0.060625  0.084958  1.782346
O    0.836901  -0.850949  1.961333
H    0.394563  2.230449  1.696965
H    -0.166252  1.529505  0.164952
H    1.503509  1.227486  0.723081
N    -1.226383  0.023770  2.260498
C    -2.305346  0.989241  2.066830
C    -3.087061  1.127432  3.390804
O    -2.913617  2.078176  4.146222
H    -1.438714  -0.848930  2.736869
H    -1.850337  1.977883  1.931973
C    -3.165151  0.674107  0.830362
C    -4.255104  1.717703  0.565347
C    -5.031037  1.518540  -0.746942
C    -4.352617  2.060400  -2.009557
N    -3.089801  1.370431  -2.318449
H    -3.614822  -0.331468  0.923063
H    -2.495598  0.620429  -0.038435
H    -3.796614  2.720975  0.561012
H    -4.967977  1.722334  1.405074
H    -6.006273  2.022778  -0.665547
H    -5.263609  0.447738  -0.885749
H    -4.112876  3.123749  -1.851714
H    -5.085740  2.025225  -2.839278
H    -2.623929  1.821053  -3.106093
H    -3.275622  0.408933  -2.609580
N    -3.940354  0.094261  3.666858
C    -4.741017  0.042309  4.875829
H    -4.113128  -0.591788  2.941193
H    -4.648437  -0.937514  5.362311
H    -5.803486  0.239041  4.669342
H    -4.367680  0.818364  5.552018
