33
Energy: -18209.0876058 eV PBE+vdW (tier 2 basis)
C    -1.764686  -0.542321  -0.256150
C    -0.936619  -0.189836  0.969145
O    0.275773  0.006844  0.884954
H    -1.650078  0.258498  -0.997021
H    -2.832176  -0.691275  -0.052719
H    -1.356088  -1.458745  -0.699689
N    -1.645547  -0.131054  2.136995
C    -1.172285  0.176040  3.496275
C    -1.446482  1.668277  3.838208
O    -2.443735  1.928964  4.518533
H    -2.650468  -0.232680  2.057281
H    -1.901633  -0.318623  4.153137
C    0.197438  -0.432035  3.846839
C    0.468003  -0.515351  5.356777
C    0.771520  0.809680  6.063164
C    1.217602  0.643247  7.527589
N    2.485135  -0.049689  7.777039
H    1.020272  0.084837  3.342612
H    0.194366  -1.451698  3.433529
H    1.328341  -1.191572  5.488283
H    -0.382941  -1.007050  5.859285
H    -0.115832  1.460504  6.054665
H    1.560398  1.349058  5.509835
H    0.433361  0.109169  8.087733
H    1.290446  1.639693  7.989024
H    2.448510  -1.015176  7.450282
H    3.247896  0.401580  7.269827
N    -0.650920  2.669087  3.370293
C    0.605247  2.640801  2.636919
H    -0.974044  3.575982  3.696501
H    0.677509  1.745043  2.011032
H    1.474590  2.681850  3.312875
H    0.645590  3.514253  1.973962
