33
Energy: -18208.861321 eV PBE+vdW (tier 2 basis)
C    -0.152589  -0.180360  1.294991
C    -0.683181  -0.580783  2.658814
O    0.024328  -1.155155  3.482584
H    -0.643877  -0.759084  0.500828
H    -0.306892  0.885970  1.084701
H    0.918893  -0.395099  1.277786
N    -1.992859  -0.290020  2.958484
C    -3.038976  0.330626  2.144062
C    -3.295054  -0.512172  0.858621
O    -3.591120  -1.695277  1.008829
H    -2.279727  -0.699323  3.841292
H    -3.966840  0.122545  2.699529
C    -2.923646  1.863663  2.079517
C    -3.008921  2.511248  3.464633
C    -2.887790  4.035479  3.418598
C    -2.973485  4.687527  4.797617
N    -2.880418  6.149081  4.689163
H    -3.739909  2.253466  1.452401
H    -1.983656  2.171384  1.599841
H    -2.217643  2.095825  4.107529
H    -3.967150  2.232169  3.936368
H    -3.673309  4.467182  2.778330
H    -1.925765  4.309449  2.950629
H    -2.205530  4.236304  5.458017
H    -3.949800  4.450838  5.249048
H    -3.016172  6.584587  5.601425
H    -1.946954  6.422227  4.377645
N    -3.260027  0.018086  -0.405051
C    -2.795644  1.289689  -0.940814
H    -3.514667  -0.690958  -1.086730
H    -2.718314  1.182097  -2.028124
H    -1.801211  1.561775  -0.567006
H    -3.488362  2.117149  -0.735519
