33
Energy: -18209.3068665 eV PBE+vdW (tier 2 basis)
C    -0.222285  -0.177250  0.590704
C    -0.731380  -0.356592  2.006471
O    0.019980  -0.662656  2.928421
H    -0.956595  -0.426756  -0.183539
H    0.668909  -0.801034  0.472745
H    0.078878  0.870769  0.450344
N    -2.081480  -0.181834  2.250702
C    -3.136012  0.364870  1.388272
C    -3.608528  -0.611560  0.278578
O    -4.253841  -0.209041  -0.685985
H    -2.283991  -0.228862  3.245221
H    -4.011479  0.454453  2.053340
C    -2.862193  1.765666  0.816636
C    -2.532887  2.802865  1.891917
C    -2.230846  4.200376  1.337560
C    -0.945903  4.279950  0.510363
N    -0.680141  5.664960  0.106119
H    -3.757932  2.062674  0.254937
H    -2.056940  1.706572  0.072448
H    -1.672342  2.462446  2.491222
H    -3.380025  2.872510  2.594283
H    -2.142270  4.901812  2.183918
H    -3.070254  4.564980  0.725398
H    -1.055252  3.688929  -0.411454
H    -0.120986  3.812684  1.088709
H    -0.466682  6.239126  0.923096
H    0.135877  5.713131  -0.503544
N    -3.300817  -1.918759  0.495863
C    -3.699747  -2.979864  -0.406402
H    -2.745185  -2.131437  1.317375
H    -4.329048  -3.720739  0.106028
H    -2.824804  -3.492520  -0.830457
H    -4.275312  -2.525114  -1.219843
