33
Energy: -18209.478259 eV PBE+vdW (tier 2 basis)
C    -0.197440  0.591793  -0.228463
C    -0.847388  0.500007  1.137980
O    -1.672665  1.327006  1.529025
H    0.684272  -0.051512  -0.338615
H    0.080065  1.633689  -0.421374
H    -0.939812  0.298106  -0.984130
N    -0.492998  -0.594091  1.874799
C    -0.988082  -0.837132  3.215246
C    0.188994  -1.389395  4.034384
O    1.083689  -2.049077  3.503962
H    0.277612  -1.192233  1.587081
H    -1.320551  0.135838  3.610837
C    -2.178172  -1.828075  3.282161
C    -3.435207  -1.368726  2.521799
C    -3.465342  -1.762987  1.039407
C    -4.541813  -1.019691  0.253835
N    -4.508585  -1.401287  -1.165605
H    -2.423620  -1.965843  4.346725
H    -1.841052  -2.811003  2.915488
H    -3.523874  -0.274809  2.609276
H    -4.321783  -1.791062  3.020118
H    -3.627765  -2.852112  0.955371
H    -2.497475  -1.564555  0.561655
H    -4.333115  0.059376  0.313520
H    -5.527866  -1.180335  0.736703
H    -5.177434  -0.846176  -1.699470
H    -4.791235  -2.376351  -1.277556
N    0.136026  -1.128769  5.368964
C    1.114419  -1.634056  6.313926
H    -0.614832  -0.539822  5.708837
H    1.841063  -2.227433  5.749463
H    0.641788  -2.273214  7.072697
H    1.641176  -0.812071  6.817955
