33
Energy: -18209.1628435 eV PBE+vdW (tier 2 basis)
C    -1.514691  -1.002036  0.409616
C    -1.352738  -0.071008  1.597194
O    -0.747341  0.996353  1.516566
H    -1.745817  -0.406000  -0.479726
H    -2.288528  -1.767962  0.547300
H    -0.552887  -1.504650  0.235141
N    -1.903336  -0.517969  2.767594
C    -1.679362  0.115668  4.070696
C    -2.302373  1.534741  4.162676
O    -1.674598  2.479798  4.625753
H    -2.300520  -1.448945  2.765512
H    -2.231140  -0.513963  4.789780
C    -0.199003  0.165588  4.483499
C    0.539800  -1.162047  4.307960
C    2.065945  -1.048911  4.421510
C    2.712137  -0.095922  3.402309
N    2.295343  -0.388403  2.019365
H    -0.153989  0.502307  5.528411
H    0.275931  0.961103  3.897855
H    0.318063  -1.586658  3.317542
H    0.175840  -1.898989  5.043386
H    2.495192  -2.053173  4.282676
H    2.350831  -0.716757  5.433666
H    2.509874  0.951125  3.694463
H    3.802536  -0.223174  3.464516
H    3.006380  -0.058491  1.368350
H    1.446317  0.131733  1.785876
N    -3.602380  1.688726  3.758167
C    -4.562725  0.704282  3.295593
H    -3.915231  2.650993  3.835254
H    -5.571382  1.106824  3.447396
H    -4.496479  -0.226601  3.874974
H    -4.444325  0.458441  2.229718
