33
Energy: -18209.2502812 eV PBE+vdW (tier 2 basis)
C    -0.310842  0.081321  0.182869
C    -0.075791  0.289739  1.670087
O    1.041751  0.490303  2.132423
H    -1.358775  0.191810  -0.123344
H    0.024803  -0.930053  -0.084151
H    0.308468  0.791206  -0.375943
N    -1.215282  0.252341  2.443276
C    -1.256092  0.205622  3.910619
C    -0.390811  1.294950  4.597073
O    0.129529  1.093907  5.689633
H    -2.076226  0.007318  1.967926
H    -2.289208  0.494564  4.167933
C    -1.028742  -1.188869  4.516582
C    0.296299  -1.880275  4.181694
C    0.486884  -3.207735  4.927190
C    0.739697  -3.054981  6.427462
N    0.929228  -4.371890  7.053696
H    -1.866351  -1.834045  4.202532
H    -1.120958  -1.059530  5.603506
H    1.132156  -1.202843  4.406200
H    0.346044  -2.075699  3.100335
H    1.346172  -3.738041  4.483031
H    -0.385004  -3.866271  4.780174
H    -0.129792  -2.586469  6.912058
H    1.588725  -2.358868  6.575394
H    1.781583  -4.809103  6.698785
H    1.058889  -4.270706  8.060518
N    -0.385621  2.506407  3.972358
C    0.460776  3.590005  4.435588
H    -0.688691  2.520785  3.005520
H    0.005332  4.554508  4.180405
H    1.468747  3.538348  3.994988
H    0.556532  3.511894  5.523375
