33
Energy: -18208.9120149 eV PBE+vdW (tier 2 basis)
C    -0.064006  0.215199  0.069602
C    -0.018087  0.066437  1.577856
O    1.064056  -0.004339  2.162262
H    -0.512505  1.172155  -0.224819
H    -0.637305  -0.583694  -0.415357
H    0.968875  0.180955  -0.286642
N    -1.175806  0.029528  2.323760
C    -2.625999  -0.007038  2.082561
C    -3.255249  -1.292752  2.674775
O    -4.177696  -1.198165  3.484639
H    -0.935666  -0.037588  3.311074
H    -3.063045  0.777462  2.719068
C    -3.115658  0.275183  0.655269
C    -4.637492  0.439019  0.589102
C    -5.166620  0.624310  -0.839345
C    -4.580879  1.808147  -1.616617
N    -4.715613  3.062451  -0.865121
H    -2.803521  -0.517863  -0.040128
H    -2.645785  1.207350  0.314328
H    -4.926297  1.303257  1.204080
H    -5.133546  -0.434890  1.035655
H    -6.262664  0.736538  -0.791807
H    -4.987204  -0.290747  -1.427598
H    -5.053763  1.831040  -2.617954
H    -3.505795  1.644771  -1.791938
H    -4.307047  3.839010  -1.384355
H    -5.701488  3.291918  -0.729112
N    -2.792463  -2.520369  2.288325
C    -1.695773  -2.884030  1.404628
H    -3.265916  -3.273484  2.777612
H    -1.755198  -3.961634  1.216387
H    -0.710091  -2.662153  1.836790
H    -1.772104  -2.381153  0.432649
