33
Energy: -18209.1614484 eV PBE+vdW (tier 2 basis)
C    0.549339  -0.699223  0.642430
C    0.112018  -0.013232  1.922339
O    0.569535  1.070126  2.275621
H    0.329026  -1.774096  0.621985
H    1.624268  -0.543785  0.503707
H    0.029148  -0.221301  -0.199277
N    -0.829856  -0.695569  2.654417
C    -1.599841  -0.087939  3.751576
C    -2.049807  1.338122  3.336476
O    -2.698246  1.492092  2.304630
H    -1.266201  -1.485334  2.193529
H    -2.552598  -0.639159  3.759738
C    -0.967485  -0.321568  5.136746
C    0.405588  0.325000  5.444957
C    1.366253  -0.592957  6.222490
C    2.193874  -1.543388  5.351039
N    1.374966  -2.537593  4.637239
H    -0.871999  -1.411282  5.244394
H    -1.705081  -0.018381  5.896068
H    0.255119  1.238571  6.043905
H    0.888726  0.656574  4.514316
H    0.806001  -1.178392  6.969465
H    2.079413  0.030700  6.783558
H    2.882805  -2.098357  6.004995
H    2.824183  -0.932588  4.673886
H    1.978106  -3.250285  4.226695
H    0.880256  -2.099447  3.858084
N    -1.779263  2.346402  4.208097
C    -2.094204  3.723983  3.873948
H    -1.056189  2.182333  4.898271
H    -2.156431  4.318509  4.792702
H    -3.059632  3.749869  3.358094
H    -1.338741  4.165741  3.205637
