33
Energy: -18209.4003437 eV PBE+vdW (tier 2 basis)
C    0.568741  0.181813  0.059999
C    0.270815  -0.366196  1.443426
O    1.155267  -0.551510  2.280412
H    1.036248  1.168836  0.165280
H    -0.318139  0.272559  -0.579076
H    1.298557  -0.475256  -0.428844
N    -1.043329  -0.634937  1.694112
C    -1.493418  -1.183897  2.960888
C    -2.659916  -2.125749  2.635902
O    -3.513332  -1.782846  1.812841
H    -1.759892  -0.508273  0.985317
H    -0.631905  -1.705398  3.395826
C    -1.954288  -0.058014  3.919622
C    -2.295274  -0.495300  5.348253
C    -1.083177  -0.905029  6.190650
C    -1.462927  -1.368413  7.594705
N    -0.284833  -1.862846  8.318369
H    -2.825306  0.429873  3.457463
H    -1.142642  0.684543  3.943126
H    -3.032308  -1.315908  5.325024
H    -2.810504  0.340896  5.846927
H    -0.389297  -0.050034  6.261460
H    -0.511045  -1.709715  5.706032
H    -2.179073  -2.203597  7.520054
H    -1.998794  -0.547275  8.113245
H    -0.540948  -2.162520  9.259226
H    0.400118  -1.113747  8.431824
N    -2.741678  -3.324277  3.277418
C    -1.821693  -3.936157  4.223195
H    -3.576839  -3.846242  3.026944
H    -1.904978  -5.025976  4.139776
H    -2.032814  -3.653483  5.265141
H    -0.785013  -3.666894  3.994379
