33
Energy: -18209.2956761 eV PBE+vdW (tier 2 basis)
C    0.613398  -1.169208  2.419300
C    1.150163  0.080124  1.748000
O    2.202832  0.607849  2.116923
H    1.447429  -1.668150  2.920920
H    -0.125672  -0.878840  3.179263
H    0.132417  -1.867658  1.721909
N    0.425786  0.612779  0.721170
C    -0.926028  0.293749  0.305232
C    -1.104016  0.922970  -1.087731
O    -0.395553  1.860850  -1.454908
H    0.824592  1.432924  0.264073
H    -1.024976  -0.800180  0.220889
C    -2.034592  0.787275  1.279947
C    -2.330506  2.295474  1.293236
C    -1.268247  3.245208  1.873902
C    -1.060286  3.191094  3.390995
N    -0.395330  1.956312  3.837071
H    -1.754984  0.463506  2.290514
H    -2.964235  0.255798  1.023546
H    -3.261695  2.436917  1.867127
H    -2.564462  2.627671  0.268726
H    -1.579941  4.272726  1.628843
H    -0.302407  3.109105  1.365749
H    -2.042989  3.238234  3.888760
H    -0.515292  4.107480  3.691766
H    -0.319813  1.950659  4.854457
H    0.564134  1.923973  3.482652
N    -2.095649  0.436525  -1.887761
C    -3.034113  -0.642978  -1.638348
H    -2.192911  0.958209  -2.753787
H    -3.332424  -1.084317  -2.596561
H    -3.941818  -0.303602  -1.115844
H    -2.568823  -1.436599  -1.042158
