33
Energy: -18208.8450166 eV PBE+vdW (tier 2 basis)
C    -0.208090  -0.583332  -0.352018
C    0.221602  -0.101204  1.021111
O    1.396946  -0.134509  1.376999
H    0.691786  -0.877348  -0.898123
H    -0.728123  0.200171  -0.918948
H    -0.877706  -1.450621  -0.274421
N    -0.743367  0.378699  1.874296
C    -2.194935  0.477944  1.710424
C    -2.812809  -0.937329  1.501131
O    -2.595650  -1.781634  2.367065
H    -0.371556  0.569068  2.798758
H    -2.561337  0.702838  2.724275
C    -2.623407  1.667083  0.833969
C    -2.151678  3.007250  1.409866
C    -2.596084  4.228048  0.595638
C    -1.959356  4.327636  -0.791717
N    -2.406609  5.547560  -1.474164
H    -3.722170  1.678522  0.765132
H    -2.245493  1.552562  -0.190142
H    -1.053832  2.999502  1.494163
H    -2.535960  3.105708  2.438439
H    -2.337881  5.138562  1.161668
H    -3.691996  4.241378  0.483802
H    -2.275094  3.475645  -1.413531
H    -0.858034  4.246905  -0.685056
H    -2.017272  5.596550  -2.415555
H    -2.068277  6.374173  -0.978956
N    -3.617012  -1.255201  0.437165
C    -3.945148  -0.572274  -0.806173
H    -3.955636  -2.208647  0.529670
H    -4.427831  -1.301094  -1.466173
H    -3.054034  -0.199766  -1.325642
H    -4.644604  0.262448  -0.662274
