33
Energy: -18209.0985991 eV PBE+vdW (tier 2 basis)
C    0.031248  -0.250378  -0.070388
C    0.199596  0.371103  1.300471
O    1.300141  0.719757  1.725853
H    -0.844484  0.120801  -0.614210
H    -0.084671  -1.339789  0.020931
H    0.941056  -0.045441  -0.640866
N    -0.911070  0.507233  2.102954
C    -2.333052  0.278046  1.825640
C    -2.592075  -1.139766  1.257901
O    -3.112775  -1.321036  0.159305
H    -0.685993  0.965181  2.981373
H    -2.814090  0.296823  2.818960
C    -2.986976  1.378001  0.978752
C    -4.514053  1.415560  1.111359
C    -5.208375  2.493830  0.264340
C    -5.185255  3.920043  0.821861
N    -3.827585  4.483359  0.888863
H    -2.720073  1.228210  -0.077608
H    -2.567106  2.341778  1.293317
H    -4.784570  1.566252  2.171786
H    -4.916492  0.434365  0.821402
H    -6.266531  2.216082  0.139712
H    -4.783376  2.490933  -0.754766
H    -5.584835  3.907124  1.848791
H    -5.885800  4.535077  0.222464
H    -3.443861  4.585994  -0.052406
H    -3.851846  5.420548  1.291081
N    -2.224157  -2.195577  2.044942
C    -1.596969  -2.188526  3.356224
H    -2.395382  -3.094058  1.604667
H    -2.070733  -1.453955  4.021112
H    -0.521071  -1.967191  3.309982
H    -1.733682  -3.176310  3.810601
