33
Energy: -18209.5675338 eV PBE+vdW (tier 2 basis)
C    1.385053  -0.862220  1.736850
C    0.022601  -0.375650  2.185572
O    -0.838251  0.012085  1.383484
H    1.285203  -1.314145  0.744710
H    1.822613  -1.591393  2.429999
H    2.067396  -0.005465  1.646133
N    -0.186709  -0.369649  3.528986
C    -1.491771  -0.083086  4.124163
C    -1.654003  1.441758  4.371683
O    -1.619773  1.944199  5.493065
H    0.539011  -0.738365  4.132411
H    -2.232053  -0.363248  3.359349
C    -1.708947  -0.895011  5.403167
C    -1.357271  -2.382881  5.276248
C    -2.109402  -3.148240  4.179662
C    -1.399252  -4.436532  3.755991
N    -0.131745  -4.122254  3.073549
H    -2.762904  -0.770177  5.693220
H    -1.127578  -0.433762  6.215113
H    -1.541266  -2.866744  6.248008
H    -0.279151  -2.500437  5.087393
H    -2.226791  -2.519827  3.281196
H    -3.131604  -3.385656  4.512642
H    -2.088640  -5.046521  3.142214
H    -1.156426  -5.036558  4.647370
H    0.395738  -4.975253  2.888673
H    -0.325459  -3.700425  2.163389
N    -1.830622  2.136995  3.215687
C    -1.898422  3.583751  3.176547
H    -1.735303  1.607218  2.345649
H    -2.764972  3.916315  2.589369
H    -0.988723  4.020810  2.737557
H    -2.000578  3.946372  4.204953
