33
Energy: -18209.1154509 eV PBE+vdW (tier 2 basis)
C    -0.233747  -0.421291  -0.346473
C    -0.140818  0.218390  1.027503
O    0.545075  1.212875  1.243954
H    -0.935545  -1.263134  -0.399425
H    0.764838  -0.770428  -0.638420
H    -0.538149  0.343479  -1.071001
N    -0.888828  -0.387430  2.007454
C    -0.766632  0.006088  3.416484
C    -1.091052  -1.197341  4.315176
O    -0.257271  -1.619427  5.113142
H    -1.281925  -1.298612  1.802480
H    0.296151  0.207602  3.611575
C    -1.536291  1.312216  3.725453
C    -1.344495  1.856755  5.147858
C    -2.185770  1.177627  6.233740
C    -2.042495  1.845358  7.599965
N    -2.859304  1.149266  8.604195
H    -2.607344  1.192916  3.507982
H    -1.151493  2.046292  3.005077
H    -1.594250  2.929712  5.131951
H    -0.276645  1.802751  5.416313
H    -1.897843  0.120187  6.336486
H    -3.250891  1.189263  5.950667
H    -2.403753  2.884090  7.538463
H    -0.966616  1.901217  7.860777
H    -2.479807  0.216561  8.775838
H    -2.820753  1.640600  9.497393
N    -2.302767  -1.833771  4.175724
C    -3.542864  -1.352331  3.581118
H    -2.392486  -2.596227  4.842846
H    -4.125661  -0.729073  4.277401
H    -4.155408  -2.214601  3.290187
H    -3.344525  -0.764325  2.679591
