33
Energy: -18209.0823941 eV PBE+vdW (tier 2 basis)
C    -0.314709  0.872866  0.215820
C    -0.077150  0.721192  1.708742
O    1.011532  0.945552  2.227745
H    0.047323  1.858315  -0.099993
H    -1.364256  0.760855  -0.084149
H    0.284788  0.120092  -0.312159
N    -1.169214  0.327911  2.437805
C    -1.119732  0.017488  3.866196
C    -0.421190  1.114929  4.714612
O    0.406937  0.821968  5.569925
H    -2.026400  0.124801  1.939684
H    -2.172751  0.000068  4.199660
C    -0.492870  -1.352974  4.157925
C    -1.275647  -2.520337  3.553732
C    -0.595175  -3.893648  3.656316
C    -0.324175  -4.424754  5.080491
N    0.873611  -3.957880  5.784393
H    -0.429515  -1.441360  5.249765
H    0.542959  -1.340875  3.789541
H    -1.464003  -2.318928  2.485892
H    -2.269945  -2.579225  4.032007
H    0.357284  -3.876243  3.099175
H    -1.235621  -4.624917  3.135469
H    -0.257951  -5.522608  5.032885
H    -1.194523  -4.207778  5.721843
H    0.861688  -2.947374  5.916929
H    1.710783  -4.165435  5.238810
N    -0.832184  2.410791  4.554963
C    -1.810941  2.981648  3.649997
H    -0.290432  3.052822  5.124542
H    -2.143950  3.942471  4.060932
H    -2.696987  2.340282  3.564155
H    -1.410878  3.158327  2.639266
