33
Energy: -18209.2250193 eV PBE+vdW (tier 2 basis)
C    0.063728  -0.088659  0.442277
C    0.031139  -0.054512  1.963048
O    1.064363  -0.019133  2.627141
H    -0.402964  0.809165  0.011270
H    -0.455085  -0.965088  0.032889
H    1.112470  -0.117810  0.135716
N    -1.196335  -0.067227  2.574285
C    -2.514367  -0.009279  1.973760
C    -3.313787  1.093244  2.692518
O    -3.127329  1.328795  3.884642
H    -1.177055  0.087229  3.581970
H    -2.403345  0.231083  0.908482
C    -3.291760  -1.341195  2.115079
C    -2.662645  -2.504939  1.346824
C    -3.413428  -3.834353  1.496423
C    -3.374466  -4.428123  2.905661
N    -4.063742  -5.723862  2.932676
H    -4.329277  -1.190817  1.773354
H    -3.353485  -1.567619  3.190024
H    -1.619727  -2.635153  1.677059
H    -2.618545  -2.244525  0.276515
H    -2.970752  -4.564885  0.798814
H    -4.465437  -3.721143  1.189631
H    -3.901880  -3.765822  3.608283
H    -2.319799  -4.470193  3.246591
H    -3.547979  -6.411912  2.381860
H    -4.104531  -6.088533  3.884230
N    -4.265570  1.749920  1.968399
C    -4.556062  1.621308  0.549557
H    -4.785222  2.435874  2.506810
H    -5.382382  2.296651  0.305003
H    -4.870266  0.602763  0.279201
H    -3.698376  1.903762  -0.079105
