33
Energy: -18209.3578227 eV PBE+vdW (tier 2 basis)
C    -1.378939  0.788850  -0.417919
C    -0.957389  0.299436  0.956358
O    0.127985  -0.228271  1.165994
H    -0.729269  1.625393  -0.706436
H    -2.424282  1.118204  -0.472401
H    -1.216249  -0.015822  -1.144470
N    -1.886769  0.477887  1.957281
C    -1.576486  0.221191  3.359795
C    -1.548192  -1.274969  3.728207
O    -0.861960  -1.667136  4.673617
H    -2.708306  1.037563  1.755677
H    -0.549757  0.559079  3.561621
C    -2.569434  1.027020  4.232435
C    -2.651136  0.613545  5.712460
C    -3.786399  -0.388154  6.003071
C    -3.593707  -1.211828  7.279547
N    -2.784333  -2.408028  7.009421
H    -3.575623  0.937284  3.785813
H    -2.283466  2.085413  4.143105
H    -2.806915  1.511826  6.326987
H    -1.684431  0.192413  6.022414
H    -3.897665  -1.096361  5.166787
H    -4.736030  0.166533  6.061237
H    -4.575545  -1.547861  7.647844
H    -3.173808  -0.554085  8.069030
H    -1.928108  -2.168375  6.501578
H    -2.501427  -2.856888  7.880182
N    -2.360874  -2.086432  3.011833
C    -2.465860  -3.508094  3.294490
H    -2.789687  -1.702108  2.178375
H    -3.259254  -3.934778  2.671850
H    -2.715620  -3.660500  4.352846
H    -1.521752  -4.029953  3.081798
