33
Energy: -18209.2166544 eV PBE+vdW (tier 2 basis)
C    -0.285435  -0.472691  1.138514
C    -0.326584  0.567576  2.239892
O    0.699887  0.878222  2.855136
H    -0.653667  -0.075455  0.182539
H    -0.900236  -1.344513  1.397381
H    0.755423  -0.783468  1.016948
N    -1.520974  1.152795  2.572113
C    -2.782524  1.213041  1.837226
C    -3.239187  -0.186453  1.358985
O    -3.388074  -1.103185  2.160711
H    -1.382389  1.931593  3.227433
H    -3.543238  1.449678  2.600123
C    -2.814860  2.364958  0.807703
C    -2.779324  3.774049  1.456992
C    -1.508284  4.607183  1.238897
C    -0.218320  4.054332  1.854161
N    -0.352709  3.797537  3.295008
H    -3.746438  2.285109  0.226848
H    -1.979430  2.251710  0.096478
H    -2.953941  3.679737  2.539204
H    -3.627471  4.356793  1.070859
H    -1.692325  5.615460  1.646844
H    -1.337711  4.751526  0.159157
H    0.607490  4.748348  1.609774
H    0.046878  3.098527  1.381430
H    0.425683  3.218256  3.615795
H    -0.342431  4.666638  3.828621
N    -3.501790  -0.315757  0.026151
C    -3.929100  -1.571278  -0.560317
H    -3.299219  0.464214  -0.585967
H    -4.775711  -1.413012  -1.240755
H    -4.237313  -2.232071  0.256530
H    -3.112645  -2.058790  -1.114359
