33
Energy: -18209.3836196 eV PBE+vdW (tier 2 basis)
C    -0.050247  1.245090  0.752959
C    0.391436  -0.138276  1.186083
O    1.571455  -0.451051  1.313080
H    -0.741564  1.700747  1.474897
H    -0.572307  1.207210  -0.213882
H    0.839540  1.871474  0.653231
N    -0.607108  -1.055279  1.448355
C    -2.043789  -0.894403  1.250450
C    -2.726961  -0.017960  2.325565
O    -3.768879  0.585660  2.075636
H    -0.254852  -1.991802  1.631321
H    -2.242817  -0.381387  0.297084
C    -2.689068  -2.294034  1.196634
C    -4.177822  -2.312543  0.849204
C    -4.748076  -3.732882  0.800615
C    -6.226117  -3.786282  0.409529
N    -7.076105  -3.150276  1.425278
H    -2.530033  -2.792083  2.168490
H    -2.131623  -2.879816  0.446819
H    -4.330262  -1.818928  -0.125267
H    -4.727163  -1.708462  1.584329
H    -4.630257  -4.212987  1.785477
H    -4.174280  -4.336275  0.077546
H    -6.534431  -4.839489  0.336989
H    -6.343960  -3.352883  -0.605253
H    -6.957034  -2.136825  1.415176
H    -8.060301  -3.323150  1.222932
N    -2.111270  -0.012357  3.538197
C    -2.616459  0.730038  4.675543
H    -1.213632  -0.481529  3.599888
H    -1.912703  1.515909  4.984579
H    -2.802429  0.065520  5.530500
H    -3.560574  1.196503  4.374120
