33
Energy: -18209.1422 eV PBE+vdW (tier 2 basis)
C    0.000441  -1.564354  0.398843
C    0.013617  -0.855875  1.743167
O    1.059381  -0.538131  2.301908
H    -0.556902  -2.511157  0.436102
H    1.036165  -1.770666  0.117611
H    -0.458884  -0.932466  -0.375334
N    -1.204414  -0.603174  2.329138
C    -2.508629  -0.750110  1.710718
C    -2.803078  0.400953  0.719420
O    -2.340079  1.526784  0.876404
H    -1.134524  0.004415  3.140015
H    -2.499821  -1.701125  1.160035
C    -3.634932  -0.859259  2.770592
C    -4.135902  0.435515  3.424580
C    -3.117383  1.220974  4.258596
C    -3.762623  2.321441  5.106543
N    -4.658839  1.753725  6.125100
H    -3.277099  -1.560694  3.540831
H    -4.495546  -1.350129  2.291549
H    -4.979583  0.171126  4.078938
H    -4.545989  1.103681  2.649946
H    -2.370666  1.693445  3.602454
H    -2.572302  0.534426  4.932221
H    -4.369480  2.967794  4.453408
H    -2.963363  2.961377  5.525840
H    -4.114635  1.302526  6.861929
H    -5.200789  2.489449  6.577013
N    -3.635610  0.112135  -0.327892
C    -4.177561  -1.178782  -0.721149
H    -3.809975  0.908684  -0.932546
H    -4.845394  -1.602465  0.042523
H    -3.387837  -1.911995  -0.944967
H    -4.768304  -1.040834  -1.632737
