33
Energy: -18209.3909058 eV PBE+vdW (tier 2 basis)
C    -1.566568  1.813117  -0.674753
C    -1.479831  0.591229  0.219390
O    -0.505150  -0.162693  0.198881
H    -2.458937  2.426549  -0.500500
H    -1.558707  1.483701  -1.721544
H    -0.671875  2.427585  -0.517892
N    -2.545410  0.399976  1.053794
C    -2.662732  -0.767258  1.922887
C    -3.545047  -1.796934  1.187871
O    -4.748408  -1.583712  1.004895
H    -3.375894  0.969785  0.932822
H    -1.639800  -1.143470  2.042568
C    -3.228922  -0.360697  3.291032
C    -3.145907  -1.441004  4.383368
C    -4.090732  -2.651615  4.280612
C    -5.557509  -2.404757  4.650595
N    -6.193380  -1.376531  3.819137
H    -4.269219  -0.025422  3.180699
H    -2.635316  0.506468  3.618258
H    -3.327775  -0.947096  5.351270
H    -2.107471  -1.810949  4.430261
H    -3.718109  -3.430772  4.964341
H    -4.042302  -3.102618  3.277551
H    -5.605274  -2.065935  5.699587
H    -6.075660  -3.385133  4.617669
H    -7.194930  -1.337027  4.003706
H    -6.071495  -1.585386  2.824560
N    -2.944233  -2.921668  0.717732
C    -1.546113  -3.322246  0.832095
H    -3.583832  -3.547198  0.236678
H    -1.363192  -4.130685  0.115850
H    -1.305560  -3.699240  1.838021
H    -0.877361  -2.488358  0.583320
