33
Energy: -18209.6903984 eV PBE+vdW (tier 2 basis)
C    -3.536386  -0.449072  0.451949
C    -2.236578  -0.777836  1.157681
O    -1.292532  -1.318351  0.564509
H    -3.888143  -1.338891  -0.083543
H    -3.345218  0.330234  -0.297557
H    -4.316943  -0.097601  1.137421
N    -2.184521  -0.410998  2.470007
C    -1.015214  -0.755833  3.278582
C    -1.226893  -2.178066  3.842183
O    -1.758816  -2.412111  4.934232
H    -3.074004  -0.277956  2.986722
H    -0.184421  -0.812176  2.561098
C    -0.619614  0.307171  4.316869
C    -1.545578  0.674768  5.490797
C    -2.828836  1.469949  5.143728
C    -4.137714  0.708596  5.363957
N    -4.222631  -0.495278  4.516547
H    -0.384928  1.222327  3.749119
H    0.336769  -0.035272  4.742825
H    -0.935698  1.282959  6.174446
H    -1.797373  -0.235565  6.051448
H    -2.787640  1.821853  4.101189
H    -2.873908  2.376969  5.764579
H    -4.980625  1.364226  5.099966
H    -4.242859  0.473292  6.440236
H    -5.171569  -0.868198  4.522336
H    -3.615253  -1.235363  4.888457
N    -0.815183  -3.146713  2.980601
C    -1.071949  -4.555232  3.209828
H    -0.568814  -2.832981  2.040941
H    -1.915152  -4.918512  2.602543
H    -1.320261  -4.688226  4.267886
H    -0.182518  -5.151112  2.968417
