33
Energy: -18209.2796108 eV PBE+vdW (tier 2 basis)
C    -0.135402  0.693549  0.579233
C    -0.633439  -0.627255  1.125453
O    0.091516  -1.617422  1.185979
H    -0.917818  1.328857  0.149990
H    0.627752  0.481524  -0.175950
H    0.346871  1.249057  1.395829
N    -1.941524  -0.709115  1.564181
C    -2.934794  0.349592  1.776773
C    -3.504941  0.938514  0.456113
O    -4.072859  2.027480  0.436588
H    -2.130518  -1.607408  1.999666
H    -3.797678  -0.177215  2.218449
C    -2.556393  1.463679  2.767458
C    -2.230650  0.984247  4.190891
C    -0.776316  0.564639  4.432602
C    -0.507452  0.146167  5.876446
N    0.914077  -0.166174  6.065849
H    -3.419133  2.141317  2.785841
H    -1.724885  2.063530  2.370169
H    -2.909002  0.157191  4.465333
H    -2.470469  1.802478  4.888356
H    -0.102310  1.399236  4.181979
H    -0.495158  -0.268575  3.770573
H    -1.189975  -0.687860  6.141490
H    -0.758865  0.979810  6.551576
H    1.180187  -0.966381  5.489598
H    1.099046  -0.431487  7.033084
N    -3.379644  0.128708  -0.629987
C    -3.892266  0.484316  -1.937622
H    -2.863023  -0.735101  -0.505196
H    -4.609564  -0.265581  -2.298775
H    -3.080466  0.579480  -2.672701
H    -4.401896  1.449249  -1.843469
