33
Energy: -18209.1367324 eV PBE+vdW (tier 2 basis)
C    0.340174  -0.760578  0.089813
C    0.243249  -0.340577  1.547377
O    1.229409  -0.256087  2.272592
H    1.106490  -0.150186  -0.402379
H    -0.602366  -0.672428  -0.465258
H    0.677521  -1.804307  0.048268
N    -1.020506  -0.048047  1.987401
C    -1.349092  0.250254  3.382421
C    -0.414124  1.310841  4.021868
O    0.070929  1.141245  5.134734
H    -1.790769  -0.191283  1.346533
H    -2.353538  0.709083  3.353934
C    -1.419238  -1.003749  4.262307
C    -2.464607  -2.014872  3.789446
C    -2.557228  -3.263146  4.677836
C    -3.082689  -3.013121  6.095373
N    -4.437198  -2.441818  6.067412
H    -1.635428  -0.666463  5.283890
H    -0.419339  -1.460302  4.298075
H    -2.228885  -2.340608  2.763649
H    -3.456107  -1.534800  3.753257
H    -1.566208  -3.739118  4.754917
H    -3.210544  -4.004850  4.187261
H    -2.432140  -2.292781  6.612931
H    -3.011051  -3.959612  6.665680
H    -5.109077  -3.138883  5.742362
H    -4.731712  -2.172112  7.005424
N    -0.233611  2.493707  3.354754
C    -0.721351  2.924197  2.059011
H    0.424194  3.100929  3.832855
H    -0.704582  4.020576  2.028437
H    -1.760450  2.610003  1.900317
H    -0.113201  2.545633  1.222265
