33
Energy: -18209.4525117 eV PBE+vdW (tier 2 basis)
C    -0.375421  -0.786834  -0.158572
C    -0.202366  -0.513823  1.323038
O    0.925135  -0.452648  1.831688
H    0.204630  -0.047438  -0.723855
H    -1.417793  -0.763264  -0.498757
H    0.047287  -1.774734  -0.381830
N    -1.354510  -0.342918  2.026311
C    -1.497443  -0.171150  3.483144
C    -1.020423  1.209670  4.004610
O    -1.799439  1.936183  4.624546
H    -2.217583  -0.371875  1.498616
H    -2.579916  -0.143135  3.661232
C    -0.909825  -1.356548  4.272161
C    -1.164273  -1.245435  5.778742
C    -0.609972  -2.412542  6.610446
C    -1.430386  -3.705996  6.605535
N    -1.447251  -4.365554  5.289375
H    0.170937  -1.425299  4.083154
H    -1.361830  -2.280793  3.887555
H    -2.246817  -1.148227  5.967356
H    -0.716475  -0.310984  6.150364
H    -0.532556  -2.087517  7.659605
H    0.424707  -2.635593  6.294420
H    -2.473937  -3.466807  6.865805
H    -1.047999  -4.358944  7.415088
H    -2.017700  -5.210663  5.325551
H    -0.503962  -4.667901  5.038982
N    0.283739  1.498562  3.769936
C    0.890408  2.745833  4.187543
H    0.806968  0.837962  3.183328
H    1.794094  2.559859  4.784539
H    0.162923  3.291549  4.797978
H    1.165869  3.368080  3.323031
