33
Energy: -18209.4541487 eV PBE+vdW (tier 2 basis)
C    1.117339  1.080322  3.221131
C    0.397797  0.008921  4.014355
O    0.795482  -0.388823  5.106737
H    0.873028  1.066189  2.151067
H    2.197117  0.955969  3.352324
H    0.833045  2.059901  3.634410
N    -0.750247  -0.476561  3.426208
C    -1.684352  -1.366180  4.106758
C    -1.952491  -2.671045  3.319144
O    -2.925202  -3.378312  3.570854
H    -1.093271  0.014941  2.606619
H    -1.155747  -1.681736  5.021847
C    -2.993521  -0.666478  4.499347
C    -2.890701  0.232260  5.754947
C    -3.291447  1.698171  5.538770
C    -2.260659  2.534977  4.762198
N    -0.969294  2.768540  5.418909
H    -3.738436  -1.456382  4.653026
H    -3.350892  -0.082928  3.633869
H    -1.867620  0.191474  6.161028
H    -3.525776  -0.193208  6.544381
H    -3.458715  2.178169  6.517086
H    -4.259450  1.738749  5.010496
H    -2.693263  3.519313  4.529707
H    -2.060938  2.063550  3.785750
H    -0.564107  1.892848  5.755808
H    -1.096605  3.355798  6.244027
N    -1.016852  -2.981911  2.379654
C    -1.037748  -4.226369  1.637648
H    -0.225170  -2.354596  2.292669
H    -0.217641  -4.892322  1.943604
H    -0.959895  -4.041449  0.557773
H    -1.990768  -4.722792  1.849848
