33
Energy: -18209.3941959 eV PBE+vdW (tier 2 basis)
C    -0.137383  0.351412  -0.426545
C    -0.004759  0.230520  1.078667
O    1.072424  0.385024  1.655372
H    0.022589  1.400813  -0.708576
H    -1.114186  0.031075  -0.808774
H    0.653669  -0.240677  -0.900507
N    -1.176674  -0.000801  1.746349
C    -1.216311  -0.296360  3.165446
C    -1.934429  -1.645258  3.328358
O    -2.783293  -2.013495  2.514165
H    -1.983036  -0.344237  1.228338
H    -0.169620  -0.356665  3.497562
C    -1.968596  0.774630  3.998288
C    -1.151369  2.011725  4.399482
C    -0.634719  2.919454  3.273547
C    -1.707746  3.485365  2.328596
N    -2.762236  4.316979  2.921949
H    -2.335444  0.300674  4.922125
H    -2.873325  1.054834  3.436897
H    -0.289328  1.682327  5.001714
H    -1.776321  2.607430  5.085802
H    0.121426  2.385661  2.678982
H    -0.101829  3.764153  3.742439
H    -2.201071  2.664740  1.786528
H    -1.205811  4.089026  1.556874
H    -3.324369  3.777835  3.581129
H    -2.352652  5.085570  3.455737
N    -1.624089  -2.385759  4.428779
C    -0.601247  -2.108657  5.425787
H    -2.160690  -3.243209  4.511248
H    -0.551525  -2.959356  6.113115
H    -0.827337  -1.210305  6.019134
H    0.391603  -1.985921  4.971009
