33
Energy: -18209.182624 eV PBE+vdW (tier 2 basis)
C    0.390651  0.716263  1.054835
C    0.218203  -0.584261  1.812456
O    1.131150  -1.111629  2.444937
H    -0.174797  1.529334  1.531893
H    0.029623  0.642804  0.020125
H    1.452968  0.972478  1.056852
N    -1.024808  -1.172719  1.767098
C    -2.254672  -0.632142  1.205815
C    -2.779954  0.654734  1.886144
O    -3.178186  1.585140  1.185214
H    -1.080491  -2.033400  2.304997
H    -2.069447  -0.302754  0.172623
C    -3.324356  -1.738374  1.163304
C    -4.648951  -1.317320  0.524877
C    -5.649670  -2.471484  0.439245
C    -6.978734  -2.064757  -0.194661
N    -7.914189  -3.196726  -0.214326
H    -3.511801  -2.111124  2.184370
H    -2.893419  -2.582731  0.601164
H    -4.455259  -0.912485  -0.481380
H    -5.092090  -0.487444  1.096919
H    -5.852150  -2.880238  1.442012
H    -5.208964  -3.298379  -0.145167
H    -6.782484  -1.626848  -1.194312
H    -7.437258  -1.266114  0.409091
H    -8.823258  -2.903078  -0.571624
H    -7.578104  -3.923428  -0.848304
N    -2.812262  0.742226  3.249682
C    -2.395632  -0.204488  4.275334
H    -3.157711  1.644182  3.562755
H    -2.793824  0.142193  5.235452
H    -1.303077  -0.283522  4.363177
H    -2.807374  -1.206199  4.099029
