33
Energy: -18209.1868101 eV PBE+vdW (tier 2 basis)
C    -0.486354  0.336047  0.262745
C    -0.247720  -0.166694  1.672240
O    0.866634  -0.111592  2.184778
H    -0.110291  -0.420990  -0.439638
H    0.112560  1.241768  0.123241
H    -1.529998  0.542915  0.012428
N    -1.281828  -0.785460  2.356812
C    -2.737202  -0.723728  2.176148
C    -3.223242  -1.215974  0.791010
O    -4.252072  -0.788100  0.275419
H    -0.972321  -1.050410  3.289453
H    -3.119372  -1.513336  2.846457
C    -3.408558  0.574089  2.679325
C    -2.945923  1.931447  2.130324
C    -3.565960  2.370697  0.800523
C    -3.118724  3.769263  0.344543
N    -1.710486  3.943306  -0.029690
H    -3.258321  0.578723  3.769893
H    -4.489642  0.455975  2.515060
H    -1.845319  1.954574  2.075070
H    -3.203860  2.690610  2.887113
H    -4.663594  2.367629  0.904596
H    -3.355889  1.642053  0.003040
H    -3.340028  4.502028  1.138016
H    -3.726661  4.070836  -0.521789
H    -1.458209  3.297772  -0.779068
H    -1.092786  3.735062  0.755143
N    -2.475072  -2.224670  0.264038
C    -2.782948  -2.849526  -1.006319
H    -1.622109  -2.473454  0.753146
H    -2.833250  -3.941785  -0.904115
H    -2.032692  -2.600008  -1.771443
H    -3.758377  -2.474874  -1.334196
