33
Energy: -18209.0048226 eV PBE+vdW (tier 2 basis)
C    -0.339257  -0.682750  -0.176466
C    -0.101911  -0.662127  1.319463
O    1.003499  -0.929207  1.789702
H    0.624912  -0.525794  -0.668196
H    -0.724793  -1.673118  -0.454683
H    -1.060846  0.058843  -0.536298
N    -1.148424  -0.401860  2.175471
C    -2.502478  0.110906  1.983638
C    -3.203692  -0.529509  0.760519
O    -3.245803  -1.748439  0.631409
H    -0.851576  -0.494274  3.143224
H    -3.087718  -0.316524  2.815208
C    -2.576805  1.645819  2.155627
C    -1.779279  2.521056  1.159015
C    -0.813923  3.507318  1.830395
C    0.419997  2.832343  2.430441
N    1.263783  3.816118  3.118489
H    -2.213312  1.851234  3.173993
H    -3.636894  1.944624  2.175424
H    -2.474927  3.092057  0.524337
H    -1.199128  1.888874  0.471487
H    -1.332441  4.075997  2.618606
H    -0.483629  4.248724  1.084005
H    0.942469  2.266175  1.634238
H    0.114858  2.083862  3.177267
H    2.051062  3.350297  3.569754
H    1.666331  4.470534  2.445595
N    -3.809342  0.335304  -0.103371
C    -4.543639  -0.118817  -1.268965
H    -3.688569  1.329824  0.038865
H    -5.563132  0.289684  -1.275750
H    -4.593172  -1.211613  -1.222492
H    -4.037214  0.173606  -2.200164
