33
Energy: -18209.3671356 eV PBE+vdW (tier 2 basis)
C    1.417516  0.717093  1.075193
C    0.386585  0.346146  2.121898
O    0.429111  0.856224  3.249997
H    1.511417  1.808289  1.040166
H    1.193431  0.338271  0.070637
H    2.387101  0.311429  1.396749
N    -0.539591  -0.570509  1.725297
C    -1.560807  -1.322622  2.487988
C    -2.605788  -0.529142  3.315226
O    -3.735358  -1.013903  3.423408
H    -0.441395  -0.881716  0.766450
H    -2.193773  -1.765563  1.708173
C    -1.004777  -2.511978  3.310860
C    0.044712  -2.196782  4.390948
C    1.492278  -2.287463  3.888217
C    2.499314  -1.619090  4.818080
N    3.855780  -1.693927  4.254147
H    -0.593174  -3.252793  2.606025
H    -1.891153  -2.980811  3.761360
H    -0.086978  -2.900442  5.226700
H    -0.138841  -1.197077  4.810673
H    1.593301  -1.825795  2.896289
H    1.761096  -3.349596  3.749515
H    2.411970  -2.058543  5.832655
H    2.235348  -0.554893  4.908432
H    4.187794  -2.659890  4.255115
H    4.510507  -1.166719  4.832026
N    -2.221623  0.625282  3.896150
C    -3.137177  1.391565  4.719757
H    -1.227215  0.885893  3.828511
H    -2.704841  2.381509  4.900866
H    -3.326108  0.901665  5.687285
H    -4.103024  1.504203  4.211511
