33
Energy: -18209.5154546 eV PBE+vdW (tier 2 basis)
C    -0.220894  3.195384  0.225075
C    -1.162247  2.015994  0.066204
O    -1.439115  1.539669  -1.035215
H    0.754758  2.928049  -0.199663
H    -0.611436  4.038141  -0.358607
H    -0.082871  3.510950  1.266351
N    -1.667255  1.510526  1.229651
C    -2.670164  0.467451  1.242690
C    -3.464740  0.639128  2.548966
O    -3.105264  1.423780  3.429969
H    -1.568519  2.007993  2.113349
H    -3.349212  0.636376  0.389427
C    -2.059348  -0.946493  1.053671
C    -1.028776  -1.390906  2.097845
C    -1.588200  -1.811508  3.462508
C    -0.513355  -2.400101  4.388581
N    -0.952169  -2.810850  5.725195
H    -1.592477  -0.932209  0.059146
H    -2.876075  -1.685539  0.992482
H    -0.288489  -0.585846  2.233588
H    -0.468205  -2.238887  1.672075
H    -2.387198  -2.560825  3.319753
H    -2.051474  -0.954019  3.973582
H    0.297067  -1.664862  4.516618
H    -0.051035  -3.275549  3.904506
H    -1.691667  -3.511883  5.658429
H    -1.352874  -2.016829  6.226936
N    -4.578153  -0.132465  2.652583
C    -5.371107  -0.201024  3.865555
H    -4.772100  -0.792051  1.908679
H    -5.088817  -1.064088  4.488660
H    -6.436944  -0.272167  3.617936
H    -5.193734  0.713369  4.440485
