33
Energy: -18209.3010062 eV PBE+vdW (tier 2 basis)
C    -0.103876  0.313369  -0.600465
C    -0.433084  -0.203922  0.791035
O    0.182465  0.163102  1.791590
H    -0.758763  -0.093906  -1.381165
H    0.938427  0.063390  -0.836835
H    -0.181991  1.407698  -0.597190
N    -1.446882  -1.113853  0.838493
C    -1.942889  -1.643349  2.097790
C    -0.953841  -2.495205  2.927350
O    -1.060041  -2.488976  4.151948
H    -1.959304  -1.346304  -0.022756
H    -2.153325  -0.805887  2.781877
C    -3.236492  -2.455108  1.886807
C    -4.520693  -1.634907  1.660633
C    -4.588945  -0.649516  0.482253
C    -4.631506  -1.250296  -0.926359
N    -3.368693  -1.917303  -1.329206
H    -3.388586  -3.049528  2.798342
H    -3.076305  -3.187418  1.078907
H    -4.707392  -1.063544  2.583424
H    -5.362019  -2.343957  1.576452
H    -3.763975  0.075609  0.540886
H    -5.513680  -0.062315  0.600575
H    -4.806138  -0.432466  -1.639388
H    -5.499876  -1.928931  -1.011045
H    -3.265957  -1.886426  -2.343196
H    -3.395794  -2.907356  -1.083825
N    -0.038387  -3.306494  2.315139
C    0.282373  -3.507978  0.912615
H    0.552994  -3.774151  2.995092
H    0.853721  -4.440376  0.826793
H    0.888950  -2.691921  0.491926
H    -0.620843  -3.617573  0.301453
