33
Energy: -18209.0208514 eV PBE+vdW (tier 2 basis)
C    0.420210  0.093898  0.832070
C    -0.008266  0.195268  2.278519
O    0.795817  0.440037  3.175360
H    1.501154  0.252201  0.796034
H    0.176777  -0.896755  0.430160
H    -0.071361  0.855185  0.211739
N    -1.344399  0.050191  2.607366
C    -2.513386  -0.422398  1.874065
C    -2.460731  -1.944855  1.593895
O    -1.420196  -2.544897  1.349410
H    -1.454893  0.077507  3.616912
H    -3.338223  -0.261076  2.583456
C    -2.876185  0.392608  0.590011
C    -2.652457  -0.276380  -0.770776
C    -2.933103  0.680709  -1.930702
C    -2.742259  0.034463  -3.301505
N    -3.066561  0.983639  -4.374173
H    -2.320449  1.339775  0.641453
H    -3.938079  0.673599  0.660632
H    -3.308173  -1.157795  -0.860557
H    -1.625992  -0.659077  -0.849195
H    -2.264835  1.556279  -1.848739
H    -3.959989  1.075020  -1.868654
H    -3.430050  -0.820578  -3.397153
H    -1.716210  -0.381171  -3.364019
H    -2.393735  1.751949  -4.382039
H    -2.994902  0.531446  -5.285652
N    -3.686606  -2.549590  1.619489
C    -3.880152  -3.947128  1.280329
H    -4.499732  -1.982835  1.828518
H    -4.416793  -4.475185  2.079653
H    -2.888213  -4.394974  1.159310
H    -4.438481  -4.061508  0.339717
