33
Energy: -18209.4442585 eV PBE+vdW (tier 2 basis)
C    -0.417925  3.351400  2.836394
C    -0.661464  2.071358  3.613412
O    -0.861110  2.069878  4.827388
H    -1.275223  4.020355  2.981325
H    -0.265517  3.192675  1.761933
H    0.462893  3.854086  3.254800
N    -0.665924  0.926937  2.861666
C    -0.722343  -0.391827  3.460144
C    0.382027  -1.239873  2.810672
O    0.738459  -1.042200  1.648280
H    -0.319191  0.941984  1.905029
H    -0.539522  -0.257374  4.538105
C    -2.092293  -1.082483  3.257806
C    -3.246759  -0.342320  3.938574
C    -4.653173  -0.875893  3.630991
C    -4.947894  -2.328300  4.060033
N    -4.547567  -3.414297  3.155890
H    -2.006233  -2.108101  3.651240
H    -2.275629  -1.171467  2.174563
H    -3.205337  0.716668  3.644263
H    -3.084465  -0.350024  5.028839
H    -4.865255  -0.776203  2.552269
H    -5.373276  -0.214544  4.140077
H    -6.030884  -2.436868  4.220815
H    -4.482174  -2.520048  5.040982
H    -5.022819  -3.316650  2.257691
H    -3.549424  -3.376849  2.953288
N    0.883587  -2.231534  3.595471
C    1.874464  -3.185066  3.131404
H    0.565828  -2.283959  4.556021
H    1.498874  -4.214959  3.205362
H    2.805971  -3.102822  3.708218
H    2.086297  -2.955678  2.082054
