33
Energy: -18209.3703029 eV PBE+vdW (tier 2 basis)
C    -0.509711  -1.113585  1.134073
C    0.274121  0.078511  1.644814
O    1.490556  0.055712  1.807743
H    -1.208976  -1.482154  1.898341
H    0.199520  -1.907831  0.888629
H    -1.104357  -0.864250  0.244597
N    -0.446588  1.224072  1.917619
C    -1.894256  1.399264  1.878462
C    -2.464866  1.598835  0.456772
O    -3.650560  1.374862  0.219251
H    0.110541  1.956969  2.350275
H    -2.387652  0.494077  2.260914
C    -2.267381  2.590836  2.787060
C    -3.766907  2.815729  3.026739
C    -4.521037  1.637179  3.656551
C    -3.978883  1.181106  5.010655
N    -4.784967  0.074452  5.539312
H    -1.831498  3.506586  2.354697
H    -1.756566  2.428596  3.749457
H    -4.255475  3.071832  2.077070
H    -3.863225  3.701339  3.675630
H    -4.540599  0.781233  2.966317
H    -5.574449  1.938073  3.782558
H    -3.916834  2.058316  5.688485
H    -2.949647  0.804201  4.899790
H    -4.423016  -0.238224  6.440124
H    -5.744890  0.382065  5.702936
N    -1.575953  2.063829  -0.462276
C    -1.935040  2.326631  -1.841268
H    -0.607494  2.136952  -0.168547
H    -1.726428  3.370676  -2.112762
H    -3.009029  2.137971  -1.945695
H    -1.388481  1.666507  -2.529617
