33
Energy: -18209.3647939 eV PBE+vdW (tier 2 basis)
C    -0.203446  -1.266609  -0.297398
C    -0.571962  -0.548538  0.986377
O    -0.065234  -0.847033  2.068700
H    -0.698640  -0.862081  -1.188555
H    -0.463866  -2.327552  -0.193942
H    0.883285  -1.207941  -0.433339
N    -1.486104  0.460617  0.850165
C    -2.020589  1.188441  1.997558
C    -3.403903  0.581774  2.310634
O    -4.346689  0.750771  1.533776
H    -1.984512  0.556135  -0.028453
H    -1.307996  1.006688  2.810562
C    -2.097314  2.694637  1.708380
C    -2.228440  3.586775  2.953200
C    -3.561609  3.545966  3.718056
C    -4.794921  3.952867  2.905814
N    -4.678333  5.334660  2.405601
H    -2.922368  2.876355  1.001570
H    -1.166203  2.961344  1.187192
H    -2.034582  4.626970  2.648161
H    -1.413583  3.336953  3.652202
H    -3.475504  4.226308  4.579255
H    -3.737706  2.540563  4.131509
H    -5.668418  3.920697  3.573258
H    -4.982143  3.206874  2.112924
H    -4.032769  5.374887  1.615792
H    -5.578186  5.648367  2.042176
N    -3.524519  -0.176990  3.433173
C    -2.515320  -0.466396  4.445180
H    -4.460066  -0.548297  3.568772
H    -2.862977  -1.316889  5.041714
H    -2.355019  0.383451  5.127144
H    -1.560751  -0.745533  3.981478
