33
Energy: -18209.4081345 eV PBE+vdW (tier 2 basis)
C    0.489949  2.095402  1.078038
C    -0.448971  1.171375  1.831086
O    -1.448063  1.582735  2.410608
H    1.409743  1.607813  0.731047
H    0.751310  2.940253  1.725776
H    -0.043090  2.503500  0.209345
N    -0.088696  -0.159824  1.827617
C    -0.974508  -1.209483  2.316872
C    -0.410367  -1.992076  3.522813
O    -0.932427  -3.042091  3.891027
H    0.660299  -0.439436  1.201832
H    -1.852624  -0.672206  2.707553
C    -1.391994  -2.167194  1.189771
C    -2.299280  -1.544731  0.115612
C    -3.810213  -1.631364  0.388693
C    -4.331167  -0.886878  1.630068
N    -5.789881  -0.854109  1.781307
H    -1.877356  -3.034351  1.658116
H    -0.471621  -2.557405  0.722520
H    -2.103860  -2.054004  -0.839995
H    -2.015783  -0.491706  -0.050824
H    -4.101728  -2.693429  0.463535
H    -4.340743  -1.233570  -0.493099
H    -3.968060  0.153047  1.621715
H    -3.926256  -1.343654  2.545695
H    -6.162352  -1.803127  1.842025
H    -6.222361  -0.428541  0.959666
N    0.657029  -1.418574  4.142659
C    1.235995  -1.954325  5.358131
H    0.967598  -0.521729  3.786382
H    0.774294  -2.930389  5.542387
H    1.037395  -1.301649  6.220692
H    2.321786  -2.083278  5.253330
