33
Energy: -18209.1831709 eV PBE+vdW (tier 2 basis)
C    -0.816927  2.254079  1.070040
C    -0.768671  1.105536  2.057128
O    0.064260  1.038509  2.959960
H    0.042868  2.901530  1.258905
H    -1.740638  2.839219  1.183098
H    -0.788283  1.899280  0.030642
N    -1.709536  0.115402  1.904567
C    -2.856845  0.101349  1.009934
C    -3.955616  1.149210  1.306806
O    -4.513977  1.711504  0.365245
H    -1.634517  -0.617657  2.604507
H    -2.527546  0.372215  -0.004136
C    -3.473011  -1.306139  0.936630
C    -2.545906  -2.345184  0.298025
C    -3.110326  -3.771614  0.315682
C    -4.392972  -3.977115  -0.498526
N    -4.194458  -3.600172  -1.903181
H    -4.399972  -1.219957  0.353313
H    -3.770055  -1.631509  1.949599
H    -1.573335  -2.345424  0.813072
H    -2.350442  -2.048085  -0.742856
H    -3.304980  -4.087267  1.354143
H    -2.337192  -4.459966  -0.064918
H    -5.197159  -3.340994  -0.098265
H    -4.729852  -5.022694  -0.356946
H    -5.075386  -3.630041  -2.414916
H    -3.565476  -4.258521  -2.365146
N    -4.304539  1.432823  2.597989
C    -3.856643  0.851723  3.856279
H    -5.031837  2.139530  2.645341
H    -3.867016  -0.245928  3.827587
H    -4.559940  1.159680  4.638192
H    -2.851707  1.187383  4.146775
