33
Energy: -18209.4587353 eV PBE+vdW (tier 2 basis)
C    1.029657  -0.532254  0.352840
C    0.478253  -0.059582  1.683586
O    1.197666  0.533577  2.498049
H    1.471574  0.324439  -0.170171
H    0.284207  -1.005639  -0.297494
H    1.837537  -1.249397  0.546039
N    -0.837398  -0.332486  1.904585
C    -1.608909  -0.070080  3.131785
C    -1.917018  1.431832  3.374827
O    -3.084842  1.810531  3.474724
H    -1.346164  -0.769347  1.146474
H    -2.601031  -0.499826  2.944188
C    -1.003159  -0.764840  4.365830
C    -1.870678  -0.610327  5.619195
C    -1.341971  -1.370907  6.841720
C    -0.035784  -0.821703  7.416012
N    0.327954  -1.543320  8.644481
H    0.007482  -0.374803  4.540486
H    -0.889635  -1.834011  4.122360
H    -2.891999  -0.957472  5.396629
H    -1.971353  0.457602  5.871107
H    -1.204316  -2.435500  6.580632
H    -2.096729  -1.348872  7.641794
H    -0.181699  0.236964  7.683559
H    0.755982  -0.843674  6.642419
H    0.538763  -2.519313  8.428847
H    1.178708  -1.151167  9.048599
N    -0.829859  2.231113  3.509879
C    -0.938794  3.657714  3.739006
H    0.086221  1.803484  3.333421
H    -0.592949  4.232901  2.867276
H    -0.343975  3.957441  4.612718
H    -1.992201  3.894648  3.922326
