33
Energy: -18209.3767506 eV PBE+vdW (tier 2 basis)
C    0.548817  -0.892459  0.520602
C    -0.610547  -0.181013  1.193308
O    -1.500066  0.372371  0.556365
H    0.169533  -1.808570  0.048190
H    1.360757  -1.162501  1.207931
H    0.945764  -0.253632  -0.276269
N    -0.582718  -0.196940  2.571170
C    -1.718710  0.240403  3.374298
C    -1.330538  1.287439  4.443929
O    -2.058662  1.513493  5.407335
H    0.107965  -0.792137  3.015110
H    -2.368892  0.771731  2.659607
C    -2.527979  -0.910046  3.993565
C    -1.738483  -1.872530  4.902002
C    -1.177219  -3.117328  4.201234
C    -0.402490  -4.046755  5.146392
N    0.136417  -5.279330  4.564988
H    -3.008321  -1.469645  3.177108
H    -3.328622  -0.433888  4.572833
H    -2.400988  -2.208902  5.713826
H    -0.926490  -1.325606  5.411936
H    -0.519434  -2.839178  3.359481
H    -2.010087  -3.679830  3.745584
H    -1.053570  -4.332137  5.988086
H    0.438656  -3.494091  5.595770
H    -0.615851  -5.847487  4.172776
H    0.767686  -5.065745  3.791359
N    -0.161333  1.947106  4.210512
C    0.291663  3.048903  5.035575
H    0.330968  1.721852  3.353266
H    0.209788  4.010275  4.507388
H    1.334816  2.903048  5.346515
H    -0.347828  3.082129  5.924230
