33
Energy: -18209.2495917 eV PBE+vdW (tier 2 basis)
C    -0.120393  0.314509  -0.133415
C    0.117455  0.104595  1.349053
O    1.238752  0.188957  1.841402
H    0.060060  -0.635476  -0.656270
H    0.614622  1.040528  -0.493525
H    -1.129946  0.649308  -0.392183
N    -0.956156  -0.265504  2.139799
C    -2.391050  -0.164079  1.851069
C    -2.831709  -1.090300  0.687450
O    -3.744238  -0.784352  -0.075861
H    -0.694309  -0.315858  3.121078
H    -2.877418  -0.595593  2.740781
C    -2.914365  1.278319  1.684555
C    -4.372186  1.480376  2.122375
C    -4.598030  1.378945  3.633492
C    -6.056084  1.595834  4.034560
N    -6.227431  1.443495  5.485530
H    -2.813240  1.581535  0.634026
H    -2.259241  1.935944  2.276149
H    -5.010349  0.758826  1.590948
H    -4.694014  2.476286  1.778917
H    -3.965413  2.123014  4.149476
H    -4.288353  0.395418  4.022305
H    -6.681197  0.833198  3.544673
H    -6.395087  2.576512  3.643463
H    -5.748127  2.197808  5.979819
H    -7.212798  1.516329  5.738808
N    -2.162345  -2.274342  0.631794
C    -2.430389  -3.281454  -0.374817
H    -1.370446  -2.384660  1.256232
H    -2.613875  -4.260038  0.088677
H    -1.594399  -3.377220  -1.083509
H    -3.324509  -2.971769  -0.926105
