33
Energy: -18209.2023866 eV PBE+vdW (tier 2 basis)
C    -0.642221  0.212123  -0.071450
C    -0.339710  0.105503  1.413664
O    0.773354  -0.189219  1.836883
H    0.120765  0.843146  -0.541946
H    -1.636125  0.618016  -0.298130
H    -0.559835  -0.787762  -0.516907
N    -1.394240  0.379336  2.245179
C    -1.367719  0.195050  3.697615
C    -0.047695  0.703720  4.340836
O    0.626505  -0.010277  5.078551
H    -2.297979  0.553354  1.822115
H    -2.170456  0.842985  4.092895
C    -1.653576  -1.253927  4.115572
C    -2.163573  -1.378219  5.556379
C    -2.121681  -2.805920  6.117103
C    -0.710595  -3.398056  6.230853
N    0.165439  -2.540416  7.036225
H    -0.728639  -1.828193  3.974118
H    -2.399502  -1.668515  3.419821
H    -3.198527  -1.001038  5.607301
H    -1.569835  -0.731130  6.217789
H    -2.736028  -3.475636  5.491670
H    -2.574998  -2.796996  7.120019
H    -0.313515  -3.604260  5.216131
H    -0.788182  -4.374930  6.731241
H    1.021163  -3.040782  7.273578
H    0.453069  -1.722276  6.492085
N    0.281572  2.016866  4.155332
C    -0.330657  3.009980  3.294080
H    1.179979  2.246600  4.568832
H    -1.424820  2.946060  3.333903
H    -0.015585  2.917248  2.242804
H    -0.047621  4.006164  3.654659
