33
Energy: -18209.4750998 eV PBE+vdW (tier 2 basis)
C    2.422930  -0.423961  0.957422
C    1.535210  -0.263431  2.175668
O    2.019238  -0.201607  3.313998
H    3.161091  0.387202  0.949357
H    1.879372  -0.425504  0.004942
H    2.975305  -1.367520  1.051778
N    0.199745  -0.188563  1.924648
C    -0.896587  -0.143155  2.909525
C    -0.999540  1.200855  3.674102
O    -2.070147  1.815452  3.709775
H    -0.082242  -0.205301  0.952664
H    -1.817126  -0.160584  2.312613
C    -0.909462  -1.392714  3.821572
C    -2.181081  -1.522835  4.673711
C    -2.163045  -0.737823  5.994982
C    -3.557000  -0.457508  6.561211
N    -4.374848  0.271875  5.585223
H    -0.009137  -1.406566  4.452117
H    -0.828676  -2.259640  3.148137
H    -2.343621  -2.587895  4.899145
H    -3.054024  -1.200718  4.086415
H    -1.654395  0.228120  5.860319
H    -1.571336  -1.282745  6.747054
H    -3.433608  0.070573  7.527741
H    -4.066109  -1.409925  6.788265
H    -5.234913  0.613757  6.010612
H    -3.866280  1.079860  5.217710
N    0.122860  1.608184  4.307239
C    0.154457  2.825911  5.092909
H    0.957743  1.016535  4.218351
H    1.197464  3.116153  5.258354
H    -0.335358  2.693655  6.070554
H    -0.369725  3.632066  4.564668
