33
Energy: -18209.4687932 eV PBE+vdW (tier 2 basis)
C    0.073489  -0.045047  -0.163166
C    -0.443244  -0.163437  1.259196
O    -0.716839  -1.251857  1.765568
H    -0.675645  -0.466445  -0.845230
H    0.981977  -0.652169  -0.260211
H    0.296718  0.985091  -0.466568
N    -0.559970  1.019345  1.933975
C    -1.183406  1.113686  3.240369
C    -2.168002  2.292207  3.189507
O    -1.995043  3.243207  2.426226
H    -0.496166  1.903441  1.433955
H    -1.717301  0.163519  3.404005
C    -0.158978  1.331081  4.377114
C    0.812037  0.157966  4.539515
C    1.811153  0.293791  5.698844
C    2.990723  1.245336  5.475048
N    2.577580  2.656841  5.428535
H    -0.712602  1.479427  5.319796
H    0.396025  2.261286  4.193277
H    1.370441  0.013753  3.601423
H    0.230062  -0.766582  4.678026
H    2.234525  -0.701277  5.906992
H    1.279574  0.586081  6.622540
H    3.459651  1.008390  4.506753
H    3.754442  1.039001  6.251155
H    3.377655  3.255312  5.222898
H    2.227364  2.950035  6.342153
N    -3.203870  2.213962  4.069423
C    -4.190115  3.265972  4.226777
H    -3.287695  1.375095  4.630959
H    -3.932647  4.065295  3.524194
H    -4.182149  3.671377  5.248411
H    -5.200640  2.901298  3.996085
