33
Energy: -18209.4093148 eV PBE+vdW (tier 2 basis)
C    -0.562746  2.118926  2.235029
C    0.126083  0.865534  1.729796
O    1.337125  0.811242  1.533755
H    -1.169703  1.926091  3.130104
H    -1.230634  2.536530  1.467845
H    0.208329  2.857182  2.468829
N    -0.669403  -0.239091  1.509063
C    -2.121921  -0.337795  1.587219
C    -2.656179  -0.716611  2.989244
O    -3.867803  -0.744701  3.212387
H    -0.166606  -1.017997  1.090542
H    -2.550403  0.658189  1.402525
C    -2.682278  -1.255451  0.479742
C    -2.191640  -2.714015  0.452213
C    -2.666149  -3.650589  1.577842
C    -4.109732  -4.155769  1.472293
N    -5.094777  -3.070251  1.433280
H    -2.422208  -0.781247  -0.478980
H    -3.775718  -1.248624  0.557835
H    -1.088304  -2.744348  0.415345
H    -2.512018  -3.141493  -0.511305
H    -2.515420  -3.183147  2.562622
H    -2.017045  -4.540279  1.579505
H    -4.269622  -4.874585  2.302065
H    -4.213331  -4.734539  0.538964
H    -4.992108  -2.450787  2.241390
H    -6.042140  -3.445272  1.452743
N    -1.709145  -0.983601  3.924417
C    -2.030763  -1.371939  5.282379
H    -0.741897  -0.945954  3.619372
H    -1.504103  -0.736503  6.006565
H    -1.763777  -2.421789  5.473234
H    -3.111374  -1.252885  5.416310
