33
Energy: -18209.4464326 eV PBE+vdW (tier 2 basis)
C    -0.020716  -0.011310  0.113960
C    -0.258980  -0.849738  1.356894
O    0.442004  -1.814488  1.640894
H    0.920232  0.540418  0.240243
H    -0.823525  0.706225  -0.098356
H    0.105149  -0.678507  -0.746386
N    -1.327599  -0.454698  2.132598
C    -1.572485  -0.990999  3.466830
C    -2.862672  -1.836167  3.571347
O    -3.319061  -2.158792  4.665915
H    -1.773244  0.427419  1.901099
H    -0.744517  -1.696281  3.649801
C    -1.552879  0.107262  4.536666
C    -0.181542  0.760093  4.715984
C    -0.171933  1.906243  5.735917
C    -0.455863  1.489062  7.183635
N    0.536204  0.516320  7.657681
H    -1.891608  -0.362293  5.468817
H    -2.312687  0.870244  4.284897
H    0.177546  1.148969  3.749614
H    0.541176  -0.006946  5.031189
H    -0.908667  2.674317  5.446475
H    0.811054  2.405781  5.700882
H    -1.443549  1.008335  7.246787
H    -0.517870  2.404564  7.804350
H    0.269936  0.139854  8.566498
H    1.446402  0.962251  7.779674
N    -3.414229  -2.205055  2.383048
C    -4.556493  -3.091280  2.292918
H    -2.922734  -1.924607  1.542054
H    -5.348150  -2.652400  1.670384
H    -4.939628  -3.241217  3.308164
H    -4.276073  -4.068578  1.873528
