33
Energy: -18209.135321 eV PBE+vdW (tier 2 basis)
C    0.633331  -0.418514  -0.051390
C    -0.076684  0.216390  1.125188
O    0.490662  1.005552  1.879383
H    1.708111  -0.390475  0.148854
H    0.437763  0.183449  -0.950491
H    0.317190  -1.445003  -0.268923
N    -1.404640  -0.082624  1.333545
C    -2.312344  -0.981957  0.615098
C    -1.810382  -2.448158  0.611739
O    -1.622809  -3.071560  -0.431268
H    -1.792148  0.451060  2.105431
H    -3.231929  -0.981469  1.222286
C    -2.682678  -0.520921  -0.803491
C    -3.138727  0.937145  -0.895604
C    -4.391749  1.276081  -0.081793
C    -4.950653  2.673035  -0.371491
N    -5.431968  2.774954  -1.755729
H    -3.475009  -1.190743  -1.170563
H    -1.829476  -0.692963  -1.472183
H    -3.339683  1.173033  -1.949895
H    -2.317823  1.603293  -0.583706
H    -4.186079  1.214057  0.999821
H    -5.179408  0.527536  -0.283000
H    -4.146340  3.414717  -0.245824
H    -5.721733  2.914601  0.385881
H    -6.295856  2.243720  -1.872657
H    -5.650819  3.741937  -1.992182
N    -1.589435  -3.030805  1.828617
C    -1.768302  -2.479294  3.161299
H    -1.228818  -3.976489  1.751400
H    -1.808366  -3.308739  3.876359
H    -2.717900  -1.933062  3.244081
H    -0.951711  -1.803381  3.453249
