33
Energy: -18209.329975 eV PBE+vdW (tier 2 basis)
C    0.011917  -1.070580  -0.127539
C    -0.111638  -0.201790  1.114594
O    0.866073  0.116923  1.790294
H    -0.945727  -1.244374  -0.634144
H    0.450734  -2.036006  0.155657
H    0.708494  -0.589845  -0.825493
N    -1.383873  0.171430  1.433075
C    -1.661942  1.085261  2.531150
C    -1.243082  0.631289  3.945577
O    -0.896806  1.486576  4.757651
H    -2.151185  -0.068330  0.790138
H    -1.072953  2.005882  2.392992
C    -3.158842  1.438688  2.544385
C    -3.638635  2.126897  1.248756
C    -4.961583  1.587155  0.684643
C    -4.986708  0.084023  0.384760
N    -3.814398  -0.341935  -0.405201
H    -3.340230  2.083122  3.413611
H    -3.731771  0.515824  2.727296
H    -2.860928  2.035286  0.476926
H    -3.748337  3.205858  1.425953
H    -5.200560  2.139504  -0.239536
H    -5.787632  1.800482  1.381563
H    -5.947726  -0.158217  -0.103526
H    -4.966138  -0.489427  1.324134
H    -3.769929  0.184039  -1.280724
H    -3.908952  -1.323347  -0.669493
N    -1.352350  -0.679790  4.322531
C    -1.709112  -1.866594  3.564896
H    -1.014900  -0.820946  5.269610
H    -2.596881  -1.698914  2.944243
H    -1.950112  -2.664315  4.278107
H    -0.893336  -2.219137  2.915504
