33
Energy: -18209.5773654 eV PBE+vdW (tier 2 basis)
C    -6.032301  3.019279  2.179057
C    -4.518527  3.013966  2.062783
O    -3.912891  3.819396  1.353111
H    -6.462231  2.907982  1.175980
H    -6.353224  3.994563  2.566136
H    -6.426746  2.229167  2.829647
N    -3.880517  2.064089  2.802686
C    -2.444525  1.875460  2.759613
C    -2.203069  0.396704  3.109052
O    -3.026803  -0.238590  3.775585
H    -4.386917  1.350539  3.323275
H    -2.104174  2.084591  1.733059
C    -1.718908  2.868742  3.705653
C    -0.199313  2.963840  3.496944
C    0.668254  2.084201  4.410671
C    2.037662  1.783805  3.793937
N    1.909209  0.855657  2.647025
H    -1.963544  2.616840  4.749361
H    -2.176302  3.844818  3.498535
H    0.115119  4.009896  3.628866
H    0.030608  2.725291  2.445068
H    0.163904  1.131234  4.634298
H    0.808483  2.581844  5.382611
H    2.724909  1.398299  4.566447
H    2.480117  2.720909  3.423717
H    2.653534  1.013705  1.969398
H    2.019229  -0.107262  2.966347
N    -1.058959  -0.153632  2.630618
C    -0.666392  -1.500571  3.000148
H    -0.325792  0.446392  2.247774
H    -0.153955  -1.534232  3.976642
H    0.001863  -1.906970  2.232235
H    -1.560798  -2.127952  3.071721
