33
Energy: -18209.2316125 eV PBE+vdW (tier 2 basis)
C    -0.046258  0.249153  0.495680
C    -0.307779  0.027859  1.973018
O    0.608852  0.068253  2.788990
H    0.667146  1.074797  0.402072
H    -0.929450  0.457782  -0.113381
H    0.441101  -0.652171  0.098710
N    -1.581422  -0.313432  2.397684
C    -2.891393  -0.154589  1.753368
C    -2.997987  -0.865283  0.380794
O    -3.687017  -0.415600  -0.530874
H    -1.602186  -0.400470  3.411334
H    -3.575919  -0.741046  2.390098
C    -3.459320  1.276590  1.744799
C    -2.654304  2.359241  1.026515
C    -3.340905  3.727084  1.101174
C    -2.595260  4.835272  0.356327
N    -1.297690  5.131001  0.981071
H    -3.601419  1.574917  2.796206
H    -4.461870  1.213721  1.296835
H    -2.521112  2.082313  -0.030770
H    -1.652739  2.432775  1.478758
H    -3.455222  4.028250  2.154954
H    -4.354675  3.643525  0.676927
H    -3.195431  5.755816  0.401002
H    -2.521025  4.559469  -0.715713
H    -0.633299  4.374719  0.814635
H    -0.885991  5.966401  0.566063
N    -2.339157  -2.055816  0.316811
C    -2.315174  -2.875606  -0.877573
H    -1.747366  -2.299577  1.103699
H    -2.598540  -3.911244  -0.647523
H    -1.320138  -2.876816  -1.347388
H    -3.037497  -2.454764  -1.584931
