33
Energy: -18209.0777476 eV PBE+vdW (tier 2 basis)
C    -0.779255  -0.234154  -0.327203
C    -0.227771  0.014427  1.061810
O    0.977221  0.169742  1.253555
H    -0.100921  0.242422  -1.041023
H    -0.770176  -1.315812  -0.524558
H    -1.800111  0.124556  -0.486820
N    -1.085171  0.002774  2.141284
C    -2.546842  -0.012048  2.241619
C    -3.230504  -1.007312  1.277139
O    -4.121225  -0.660149  0.504745
H    -0.582898  0.185235  3.006436
H    -2.751431  -0.426280  3.245138
C    -3.193956  1.386484  2.220010
C    -2.903175  2.272559  1.007893
C    -3.521329  3.667267  1.154028
C    -3.176286  4.620107  0.008729
N    -3.790324  4.191864  -1.255654
H    -2.856299  1.908039  3.131259
H    -4.280634  1.248701  2.321780
H    -3.298139  1.780046  0.108194
H    -1.813750  2.381359  0.877077
H    -3.172592  4.120020  2.097312
H    -4.617396  3.582537  1.223536
H    -2.072940  4.728721  -0.044774
H    -3.577447  5.616960  0.244309
H    -3.626871  4.887300  -1.983321
H    -3.366422  3.325423  -1.588607
N    -2.838554  -2.314970  1.355916
C    -1.855999  -2.937084  2.228032
H    -3.328227  -2.908438  0.693619
H    -2.075792  -4.009151  2.288109
H    -1.913110  -2.531494  3.246174
H    -0.824770  -2.810351  1.867431
