33
Energy: -18209.5155991 eV PBE+vdW (tier 2 basis)
C    -2.987527  -0.715161  -0.564433
C    -2.480228  -0.280215  0.797855
O    -2.538802  0.889888  1.174765
H    -4.049024  -0.450345  -0.646373
H    -2.871136  -1.788770  -0.756099
H    -2.449602  -0.150806  -1.336263
N    -1.976858  -1.284683  1.578379
C    -1.309937  -1.026287  2.839595
C    -0.017909  -1.858068  2.850580
O    0.066259  -2.918286  2.229216
H    -1.778464  -2.198221  1.176023
H    -1.086211  0.052238  2.864185
C    -2.180081  -1.391350  4.064206
C    -3.471991  -0.579049  4.162784
C    -4.303895  -0.939488  5.395253
C    -5.598377  -0.135213  5.499087
N    -6.373348  -0.542170  6.679324
H    -1.577687  -1.241839  4.975475
H    -2.409679  -2.468135  4.017732
H    -4.072660  -0.740534  3.254417
H    -3.228646  0.495396  4.170510
H    -3.702927  -0.773377  6.307191
H    -4.557005  -2.011474  5.388278
H    -6.218558  -0.333625  4.611001
H    -5.354309  0.946052  5.473986
H    -7.264131  -0.046119  6.710023
H    -5.874815  -0.288580  7.533872
N    0.984594  -1.354624  3.620516
C    2.249981  -2.036617  3.818952
H    0.839033  -0.453854  4.060532
H    2.412382  -2.274538  4.879491
H    3.089714  -1.427454  3.457326
H    2.214843  -2.968689  3.245613
