33
Energy: -18209.2655242 eV PBE+vdW (tier 2 basis)
C    0.112704  0.651814  0.408038
C    -0.180109  0.603122  1.893586
O    0.587734  1.088937  2.719349
H    -0.284142  1.590760  -0.002799
H    -0.318508  -0.177662  -0.163341
H    1.199508  0.665241  0.280369
N    -1.338417  -0.022274  2.320272
C    -2.487691  -0.510416  1.551765
C    -2.206683  -1.813362  0.755774
O    -2.942228  -2.165442  -0.163684
H    -1.471085  0.091181  3.321129
H    -3.215449  -0.824115  2.319427
C    -3.192631  0.535211  0.672561
C    -3.717078  1.734972  1.463714
C    -4.273708  2.889167  0.616777
C    -5.485605  2.568316  -0.269112
N    -5.104605  1.986300  -1.565840
H    -4.010349  -0.002423  0.175001
H    -2.519454  0.871654  -0.128739
H    -2.906251  2.137960  2.091630
H    -4.498374  1.390384  2.163987
H    -3.480537  3.296911  -0.030254
H    -4.558657  3.698031  1.307332
H    -6.007819  3.510098  -0.491545
H    -6.200649  1.946437  0.308632
H    -5.911906  1.959220  -2.188460
H    -4.792190  1.020734  -1.463877
N    -1.142688  -2.535826  1.196765
C    -0.751639  -3.800073  0.606499
H    -0.591182  -2.133266  1.946905
H    0.253732  -3.740342  0.166197
H    -1.472951  -4.035350  -0.183401
H    -0.762982  -4.606040  1.353196
