33
Energy: -18209.0152164 eV PBE+vdW (tier 2 basis)
C    -0.182846  -0.500535  1.755853
C    -0.608324  -0.333433  3.197454
O    0.145167  0.145602  4.044406
H    0.839736  -0.121445  1.678264
H    -0.821369  0.053352  1.050807
H    -0.196156  -1.555905  1.453184
N    -1.857502  -0.770723  3.602196
C    -3.059979  -1.199930  2.883407
C    -2.765077  -2.098640  1.665617
O    -3.123802  -1.816155  0.524055
H    -1.996617  -0.568045  4.589415
H    -3.578716  -1.875143  3.588920
C    -4.055690  -0.051819  2.605403
C    -3.545865  1.144429  1.779907
C    -4.110703  1.221520  0.353896
C    -3.211395  1.990958  -0.613516
N    -1.942113  1.270780  -0.801922
H    -4.382834  0.297178  3.596790
H    -4.947679  -0.490832  2.132867
H    -2.451094  1.117492  1.721151
H    -3.784387  2.077486  2.311448
H    -5.109199  1.685949  0.366169
H    -4.240705  0.201186  -0.034957
H    -2.974104  2.986155  -0.202853
H    -3.764708  2.161881  -1.557229
H    -2.125027  0.348872  -1.202369
H    -1.333971  1.767178  -1.452360
N    -2.133708  -3.285109  1.923238
C    -1.616959  -3.803311  3.179092
H    -1.966896  -3.828431  1.081915
H    -2.319972  -3.622808  4.002147
H    -0.648418  -3.361497  3.455548
H    -1.493200  -4.887880  3.081583
