33
Energy: -18209.4262158 eV PBE+vdW (tier 2 basis)
C    -0.845700  0.519825  0.090446
C    -0.540436  0.398865  1.570308
O    0.625209  0.410566  1.986478
H    -0.358346  1.421905  -0.298391
H    -1.916444  0.559195  -0.143351
H    -0.401808  -0.340164  -0.427271
N    -1.623450  0.281920  2.387033
C    -1.629049  0.020275  3.835928
C    -1.169112  1.201474  4.727649
O    -1.859425  1.535310  5.692334
H    -2.532017  0.320877  1.943303
H    -2.688618  -0.094267  4.097983
C    -0.895136  -1.278170  4.230977
C    -1.502089  -2.533969  3.598849
C    -0.726414  -3.838735  3.834822
C    -0.625892  -4.321083  5.288718
N    0.500207  -3.711233  6.013234
H    -0.959817  -1.329377  5.328604
H    0.169168  -1.196724  3.970484
H    -1.578523  -2.379363  2.510678
H    -2.537377  -2.657253  3.961828
H    0.295455  -3.747496  3.433806
H    -1.222980  -4.627463  3.248325
H    -0.440047  -5.404948  5.281420
H    -1.608607  -4.178029  5.784309
H    0.618217  -4.161304  6.920977
H    0.327028  -2.724788  6.205259
N    0.019692  1.759850  4.395315
C    0.608380  2.844276  5.154844
H    0.514708  1.361758  3.588826
H    0.822332  3.705429  4.506615
H    1.545118  2.529703  5.637762
H    -0.104459  3.145241  5.929890
