33
Energy: -18209.4781543 eV PBE+vdW (tier 2 basis)
C    0.078497  2.223351  1.435974
C    -0.757909  1.146582  2.098559
O    -1.832614  1.397517  2.639225
H    -0.472728  2.610487  0.569119
H    1.065151  1.877520  1.103240
H    0.205394  3.055505  2.138442
N    -0.222362  -0.119366  2.064155
C    -0.960406  -1.305170  2.485253
C    -0.260107  -2.096726  3.613084
O    -0.602510  -3.244990  3.883321
H    0.583278  -0.267034  1.464018
H    -1.885201  -0.916663  2.938020
C    -1.295262  -2.216324  1.294585
C    -2.327091  -1.640953  0.308063
C    -3.782900  -2.052309  0.576199
C    -4.437142  -1.543249  1.876589
N    -4.600687  -0.099948  2.035325
H    -1.638969  -3.175870  1.704056
H    -0.351541  -2.438568  0.768219
H    -2.066629  -1.980220  -0.705402
H    -2.250371  -0.541458  0.273033
H    -3.844918  -3.154468  0.569278
H    -4.401417  -1.710843  -0.271424
H    -3.885971  -1.917764  2.753225
H    -5.433923  -2.008585  1.946979
H    -5.028551  0.314967  1.207381
H    -3.714327  0.382260  2.198308
N    0.712487  -1.419370  4.283843
C    1.386816  -1.966900  5.444163
H    0.871243  -0.454451  4.017038
H    1.104233  -3.022054  5.524347
H    1.085272  -1.450499  6.367169
H    2.477167  -1.892407  5.335616
