33
Energy: -18209.289349 eV PBE+vdW (tier 2 basis)
C    -1.023456  -0.018114  -1.040763
C    -0.575487  0.443443  0.337614
O    0.529141  0.954065  0.516111
H    -1.942205  0.491695  -1.364132
H    -1.213366  -1.099622  -1.068435
H    -0.221952  0.220266  -1.744548
N    -1.441200  0.261686  1.381728
C    -2.778590  -0.301311  1.381097
C    -3.683705  0.654243  2.182995
O    -3.277084  1.203515  3.204087
H    -1.136433  0.655846  2.270599
H    -3.128509  -0.359161  0.340413
C    -2.874551  -1.709963  2.016497
C    -2.125317  -2.836779  1.291052
C    -0.618639  -2.924844  1.561987
C    0.025103  -4.184847  0.976957
N    -0.520684  -5.402522  1.595885
H    -3.944987  -1.967032  2.065293
H    -2.532527  -1.637365  3.061142
H    -2.302842  -2.760543  0.203879
H    -2.569478  -3.796136  1.593281
H    -0.448450  -2.909671  2.652923
H    -0.083998  -2.049243  1.171132
H    1.124283  -4.094892  1.068060
H    -0.194298  -4.237239  -0.101712
H    -0.181316  -6.233992  1.113249
H    -0.199472  -5.479302  2.562237
N    -4.950019  0.798462  1.699558
C    -5.964025  1.591165  2.370985
H    -5.193476  0.317326  0.842372
H    -5.497357  2.039287  3.254357
H    -6.811269  0.968641  2.691121
H    -6.335905  2.392881  1.718644
