33
Energy: -18209.5831663 eV PBE+vdW (tier 2 basis)
C    -0.726062  -0.251457  -0.407590
C    -0.661044  -0.341779  1.102507
O    -0.321868  -1.381859  1.679689
H    -1.423559  -1.012640  -0.778441
H    0.264196  -0.488915  -0.815802
H    -1.037942  0.732465  -0.778423
N    -0.989890  0.791687  1.783516
C    -0.946090  0.879715  3.244279
C    -2.263147  0.308302  3.841987
O    -3.174593  1.030849  4.243552
H    -1.344506  1.591285  1.270955
H    -0.114653  0.231374  3.560450
C    -0.692146  2.316776  3.689673
C    -0.378207  2.437515  5.182903
C    -0.146171  3.882053  5.629460
C    0.120055  4.038457  7.137059
N    -0.969426  3.684476  8.051412
H    -1.583448  2.921865  3.458927
H    0.146807  2.717390  3.098543
H    0.514480  1.833862  5.421458
H    -1.215624  2.005685  5.751448
H    -1.023026  4.494473  5.356623
H    0.709344  4.307062  5.076211
H    0.397328  5.083700  7.342491
H    0.997056  3.432665  7.417712
H    -1.224197  2.701630  7.951441
H    -1.809336  4.221418  7.829577
N    -2.290541  -1.050428  3.853626
C    -3.466704  -1.800742  4.248378
H    -1.539114  -1.521047  3.343627
H    -4.124570  -1.133201  4.814668
H    -3.182036  -2.651990  4.879904
H    -4.021365  -2.179648  3.376180
