33
Energy: -18209.5431658 eV PBE+vdW (tier 2 basis)
C    -1.403436  3.431138  3.196065
C    -1.556164  1.986952  3.629676
O    -2.496349  1.613283  4.340667
H    -1.359793  4.064734  4.090528
H    -2.295457  3.726491  2.629528
H    -0.512904  3.612591  2.582479
N    -0.599409  1.130884  3.183606
C    -0.597177  -0.267812  3.553695
C    0.819704  -0.794256  3.287091
O    1.599482  -0.195079  2.543808
H    0.203220  1.436824  2.636679
H    -0.827933  -0.333997  4.630195
C    -1.678679  -1.080155  2.792390
C    -2.229970  -2.272100  3.585407
C    -3.672140  -2.654976  3.225039
C    -4.693752  -1.525173  3.443357
N    -4.575238  -0.926247  4.779372
H    -1.289426  -1.393784  1.812090
H    -2.492296  -0.372704  2.591101
H    -2.220595  -2.022143  4.659384
H    -1.583468  -3.155088  3.460704
H    -3.961410  -3.515003  3.848006
H    -3.730333  -2.986052  2.174875
H    -5.700195  -1.956933  3.344389
H    -4.604072  -0.780788  2.628105
H    -3.885003  -0.169411  4.774818
H    -5.457752  -0.493139  5.046349
N    1.120242  -1.968346  3.902260
C    2.376596  -2.666769  3.703723
H    0.420445  -2.382772  4.506682
H    2.908837  -2.799952  4.655390
H    2.992254  -2.057896  3.034051
H    2.216172  -3.652322  3.244489
