33
Energy: -18209.1200588 eV PBE+vdW (tier 2 basis)
C    -0.110892  1.239918  0.216343
C    -0.126415  0.280887  1.394539
O    0.603098  -0.703974  1.454021
H    -0.890191  2.011428  0.257855
H    -0.224180  0.663060  -0.709271
H    0.869976  1.730785  0.176893
N    -1.017730  0.585557  2.388165
C    -1.115989  -0.173697  3.631255
C    -1.328161  -1.694248  3.419513
O    -0.699834  -2.499345  4.102605
H    -1.586119  1.419287  2.297734
H    -0.147814  -0.127874  4.153039
C    -2.214446  0.460351  4.519280
C    -1.996492  0.372711  6.040057
C    -1.911821  -1.030723  6.656483
C    -3.147692  -1.915680  6.431611
N    -3.008312  -3.315664  6.843840
H    -3.197103  0.044808  4.250558
H    -2.262058  1.532729  4.266618
H    -2.818537  0.932906  6.515905
H    -1.075375  0.923710  6.289015
H    -1.745669  -0.920689  7.740876
H    -1.033801  -1.558317  6.257525
H    -3.415164  -1.927593  5.364284
H    -4.017871  -1.486747  6.955879
H    -2.236138  -3.738453  6.323959
H    -2.749157  -3.368857  7.830610
N    -2.280168  -2.130566  2.538732
C    -3.099052  -1.407194  1.582077
H    -2.288289  -3.144080  2.476195
H    -3.936664  -2.052914  1.292400
H    -2.545965  -1.129274  0.671430
H    -3.525505  -0.497986  2.020431
