33
Energy: -18209.611766 eV PBE+vdW (tier 2 basis)
C    -2.256027  -0.701791  0.516419
C    -1.524837  -0.192933  1.745116
O    -0.296148  -0.090807  1.777442
H    -1.915075  -1.722232  0.300464
H    -1.983804  -0.076970  -0.343192
H    -3.346777  -0.703029  0.633638
N    -2.334261  0.142190  2.790255
C    -1.794207  0.610845  4.042325
C    -2.032359  -0.413361  5.171476
O    -2.998500  -1.178420  5.218990
H    -3.354929  -0.000667  2.738872
H    -0.706488  0.666559  3.877289
C    -2.290893  2.043111  4.402393
C    -3.763309  2.365851  4.111671
C    -4.826554  1.639909  4.968802
C    -5.850579  0.843926  4.154627
N    -5.208522  -0.245933  3.400017
H    -1.673287  2.740676  3.817138
H    -2.061373  2.241150  5.461844
H    -3.956733  2.166501  3.047029
H    -3.882410  3.452587  4.230596
H    -5.378578  2.371501  5.576598
H    -4.349061  0.957628  5.686779
H    -6.341879  1.513788  3.430510
H    -6.641041  0.481747  4.838864
H    -5.901377  -0.767151  2.863623
H    -4.758412  -0.897463  4.052337
N    -1.076867  -0.380054  6.142724
C    -1.112412  -1.224243  7.321267
H    -0.267496  0.209847  5.990462
H    -0.284753  -1.947643  7.321190
H    -2.059107  -1.774037  7.304548
H    -1.059560  -0.623219  8.239507
