33
Energy: -18209.5875143 eV PBE+vdW (tier 2 basis)
C    -2.332585  0.252985  -0.332856
C    -1.811117  -0.111844  1.040774
O    -1.679878  -1.289165  1.397321
H    -2.397535  1.333669  -0.508156
H    -3.326148  -0.192801  -0.464856
H    -1.671970  -0.191520  -1.087664
N    -1.488508  0.931963  1.854788
C    -0.926895  0.749906  3.194447
C    -2.072382  0.486575  4.214148
O    -2.487478  1.355615  4.984208
H    -1.685813  1.877894  1.548138
H    -0.300578  -0.154072  3.141004
C    -0.089836  1.956901  3.601938
C    0.772530  1.690410  4.845479
C    1.295225  2.964078  5.532360
C    0.367342  3.531696  6.626960
N    -0.982791  3.953790  6.257711
H    -0.767786  2.801638  3.790086
H    0.560634  2.237540  2.758854
H    1.616645  1.047911  4.551290
H    0.191071  1.109478  5.579467
H    1.496066  3.742425  4.775649
H    2.267146  2.749419  6.006001
H    0.874521  4.388544  7.099262
H    0.262541  2.771439  7.418361
H    -0.957302  4.668292  5.529865
H    -1.538174  3.171592  5.901917
N    -2.560168  -0.776804  4.149858
C    -3.705846  -1.211688  4.925442
H    -2.234135  -1.346060  3.364230
H    -3.533767  -2.219913  5.322741
H    -4.626196  -1.223283  4.321672
H    -3.844833  -0.512610  5.756561
