33
Energy: -18209.1228067 eV PBE+vdW (tier 2 basis)
C    -0.083742  0.579758  -0.391324
C    0.227446  -0.366568  0.750387
O    1.134327  -1.195059  0.699076
H    0.143397  1.620188  -0.118747
H    -1.145230  0.548560  -0.672493
H    0.531098  0.292614  -1.247862
N    -0.560842  -0.268107  1.873683
C    -1.565185  0.740763  2.178173
C    -1.025194  2.181699  2.334347
O    -1.642789  3.113693  1.816493
H    -0.298121  -0.920983  2.607277
H    -2.250701  0.829474  1.325886
C    -2.365833  0.290522  3.418026
C    -3.496450  1.223096  3.884628
C    -4.853353  1.047522  3.187550
C    -4.909070  1.418923  1.704325
N    -6.299456  1.363743  1.229009
H    -1.655190  0.151888  4.248966
H    -2.775332  -0.708462  3.196240
H    -3.172189  2.272147  3.805192
H    -3.651090  1.037827  4.957765
H    -5.584146  1.678719  3.721263
H    -5.210279  0.012051  3.307799
H    -4.342661  0.684279  1.110949
H    -4.413030  2.396153  1.552707
H    -6.852421  2.093318  1.682403
H    -6.339901  1.556705  0.228076
N    0.114663  2.414468  3.050322
C    1.010755  1.498337  3.742783
H    0.364039  3.398730  3.053637
H    1.677373  2.094214  4.376068
H    1.628130  0.905166  3.054096
H    0.464802  0.813674  4.404238
