33
Energy: -18209.523986 eV PBE+vdW (tier 2 basis)
C    2.232293  0.843016  2.916441
C    0.881514  0.347778  2.434330
O    0.538744  0.426728  1.254357
H    3.019371  0.284351  2.394378
H    2.379891  0.738044  3.998130
H    2.340094  1.898224  2.637226
N    0.090739  -0.212173  3.398679
C    -1.280255  -0.612862  3.150228
C    -2.120216  -0.116958  4.337484
O    -1.628034  0.017242  5.458600
H    0.328984  -0.113820  4.383227
H    -1.591598  -0.122511  2.213940
C    -1.437187  -2.143809  2.997512
C    -0.691037  -2.714926  1.791606
C    -0.822318  -4.235732  1.674638
C    -0.168361  -4.811785  0.416929
N    1.285090  -4.593057  0.413409
H    -2.511145  -2.380017  2.916844
H    -1.082761  -2.620789  3.925549
H    0.371125  -2.441186  1.871997
H    -1.061489  -2.233615  0.871226
H    -1.889344  -4.515002  1.668161
H    -0.370866  -4.714610  2.558313
H    -0.681033  -4.395103  -0.474627
H    -0.336973  -5.898526  0.395735
H    1.499383  -3.609892  0.242740
H    1.718662  -5.113603  -0.348635
N    -3.431558  0.114370  4.058049
C    -4.398887  0.508401  5.065283
H    -3.737041  0.016774  3.097124
H    -4.834566  1.490307  4.834646
H    -3.870855  0.570719  6.022345
H    -5.208368  -0.229978  5.150136
