33
Energy: -18209.1271267 eV PBE+vdW (tier 2 basis)
C    0.076710  -0.344187  -0.103838
C    0.132062  -0.113984  1.398789
O    1.206032  0.038722  1.979876
H    0.654377  0.444472  -0.600288
H    -0.937400  -0.364666  -0.522053
H    0.569125  -1.299447  -0.327380
N    -1.091288  -0.098682  2.014137
C    -1.442574  -0.003603  3.438963
C    -2.056641  1.357783  3.852409
O    -3.142693  1.357254  4.435355
H    -1.887888  -0.224081  1.401104
H    -2.303255  -0.676312  3.567037
C    -0.367262  -0.466628  4.435911
C    -0.034370  -1.958127  4.318558
C    1.109324  -2.403488  5.238198
C    2.489173  -1.917043  4.792154
N    3.521607  -2.367518  5.736022
H    -0.777816  -0.266106  5.437682
H    0.539637  0.137414  4.330187
H    0.229571  -2.200817  3.277615
H    -0.939417  -2.540940  4.553313
H    1.123189  -3.505815  5.277823
H    0.928715  -2.064735  6.270913
H    2.515835  -0.817812  4.775864
H    2.659972  -2.239925  3.746260
H    3.602264  -3.385517  5.712275
H    4.434421  -2.001780  5.465022
N    -1.397216  2.524294  3.604347
C    -0.130258  2.776555  2.939496
H    -1.929791  3.330996  3.917427
H    0.365403  3.626069  3.425756
H    -0.264815  3.018090  1.872905
H    0.538304  1.912639  3.005200
