33
Energy: -18209.4871907 eV PBE+vdW (tier 2 basis)
C    0.165707  -0.526381  -0.064159
C    0.200738  -0.392269  1.446541
O    1.235858  -0.564731  2.092392
H    -0.825147  -0.349249  -0.499472
H    0.503894  -1.534165  -0.335157
H    0.879124  0.185273  -0.497979
N    -0.987007  -0.048355  2.027366
C    -1.171096  -0.014803  3.464889
C    -2.491352  -0.729623  3.776156
O    -3.408882  -0.753867  2.952803
H    -1.851637  -0.083677  1.491534
H    -0.316684  -0.547671  3.904859
C    -1.229411  1.430631  4.019426
C    0.074276  2.218409  3.858242
C    1.241929  1.677200  4.685278
C    2.524230  2.485464  4.502790
N    3.616184  1.905827  5.297482
H    -1.508993  1.392839  5.084758
H    -2.052099  1.948813  3.503441
H    -0.123547  3.265468  4.140302
H    0.355640  2.239419  2.793553
H    1.448787  0.637859  4.384756
H    0.981212  1.662200  5.756302
H    2.365649  3.517188  4.855603
H    2.748482  2.550710  3.419269
H    3.854380  0.982297  4.931186
H    4.459661  2.473000  5.209709
N    -2.618163  -1.287043  5.012322
C    -1.582043  -1.450202  6.022042
H    -3.520083  -1.724170  5.172373
H    -2.028220  -1.935951  6.895899
H    -1.169819  -0.486431  6.351201
H    -0.753281  -2.081326  5.669153
