33
Energy: -18209.2144748 eV PBE+vdW (tier 2 basis)
C    -1.666198  -0.373556  -0.529298
C    -0.631412  -0.404134  0.585677
O    0.469203  -0.926203  0.427271
H    -1.869912  0.656969  -0.855548
H    -2.620695  -0.824868  -0.228890
H    -1.256183  -0.931282  -1.375181
N    -0.970581  0.170408  1.784548
C    -2.156973  0.930230  2.123705
C    -1.706660  2.255558  2.765500
O    -0.683650  2.309427  3.444915
H    -0.206558  0.245564  2.455581
H    -2.722211  1.124466  1.203216
C    -3.072488  0.192002  3.131914
C    -3.672697  -1.103853  2.582577
C    -4.449070  -1.931304  3.614566
C    -5.714290  -1.263791  4.153842
N    -6.459387  -2.197160  5.009137
H    -3.869326  0.881607  3.451128
H    -2.473014  -0.021200  4.031560
H    -2.858833  -1.725220  2.180293
H    -4.335422  -0.870196  1.730966
H    -3.779829  -2.176510  4.457753
H    -4.740236  -2.893113  3.166700
H    -6.367500  -0.996281  3.307103
H    -5.451783  -0.314825  4.661971
H    -5.905230  -2.439939  5.832126
H    -7.313209  -1.761049  5.357611
N    -2.515888  3.341073  2.594208
C    -3.712518  3.443130  1.774638
H    -2.185783  4.173983  3.071414
H    -4.112733  4.457295  1.874679
H    -4.498393  2.744341  2.096322
H    -3.504118  3.271260  0.708007
