33
Energy: -18209.6892073 eV PBE+vdW (tier 2 basis)
C    -0.489390  -2.609588  -0.041653
C    -0.445010  -1.751772  1.208097
O    0.265758  -0.734021  1.262178
H    -0.982991  -3.575731  0.116340
H    0.534150  -2.778605  -0.394793
H    -1.021963  -2.060380  -0.830300
N    -1.228400  -2.163547  2.231829
C    -1.424436  -1.374531  3.448490
C    -0.263203  -1.619551  4.458461
O    -0.428722  -2.202797  5.529563
H    -1.848694  -2.979881  2.105445
H    -1.381106  -0.311388  3.155491
C    -2.773982  -1.684886  4.093155
C    -4.015957  -1.148461  3.364805
C    -4.452924  -1.816837  2.047557
C    -4.666135  -3.338213  2.124930
N    -3.443412  -4.092689  1.758228
H    -2.748120  -1.248476  5.100322
H    -2.849255  -2.769368  4.265263
H    -3.883899  -0.069633  3.180637
H    -4.862095  -1.225195  4.067465
H    -3.736706  -1.597942  1.240611
H    -5.399512  -1.348085  1.739011
H    -5.523112  -3.625350  1.492450
H    -4.934441  -3.621068  3.153488
H    -3.487926  -5.043520  2.125996
H    -3.394077  -4.186617  0.742304
N    0.922219  -1.114511  4.029369
C    2.158592  -1.301173  4.760098
H    0.937355  -0.732352  3.076987
H    2.697457  -0.349112  4.858267
H    2.819812  -2.026948  4.261944
H    1.912398  -1.680125  5.757869
