33
Energy: -18209.1032838 eV PBE+vdW (tier 2 basis)
C    -0.753693  -0.744286  0.200479
C    -0.557899  0.304072  1.283433
O    0.260110  1.211772  1.176669
H    -1.602075  -1.417739  0.376276
H    0.162829  -1.343631  0.125067
H    -0.891106  -0.235529  -0.760931
N    -1.372295  0.170650  2.377474
C    -1.267197  0.987583  3.587634
C    -1.095582  2.500532  3.283048
O    -0.194588  3.158054  3.792057
H    -1.984629  -0.635083  2.417442
H    -2.243878  0.889664  4.091347
C    -0.162623  0.488721  4.535455
C    -0.344849  0.913577  5.998554
C    -1.477152  0.183902  6.730995
C    -1.687693  0.657150  8.170515
N    -2.232788  2.021737  8.209925
H    0.797545  0.857824  4.153197
H    -0.142758  -0.611167  4.472226
H    -0.494423  2.002538  6.025451
H    0.599685  0.725829  6.533864
H    -1.260052  -0.897251  6.743715
H    -2.433566  0.310347  6.197400
H    -0.735858  0.540094  8.728852
H    -2.420978  -0.001015  8.659803
H    -2.453811  2.288086  9.169149
H    -1.540857  2.695244  7.879486
N    -2.056406  3.103196  2.516577
C    -3.177404  2.519645  1.806154
H    -1.840372  4.077649  2.331935
H    -3.915122  3.307471  1.611578
H    -3.673553  1.751663  2.412466
H    -2.888642  2.068552  0.843528
