33
Energy: -18209.5522703 eV PBE+vdW (tier 2 basis)
C    1.292696  1.485796  1.898315
C    0.001365  0.710180  2.054261
O    -0.993100  0.953570  1.359183
H    1.090234  2.550592  2.067531
H    1.641944  1.380067  0.863634
H    2.088967  1.159188  2.578265
N    0.003731  -0.270160  2.998772
C    -1.144053  -1.145061  3.241194
C    -2.134372  -0.469408  4.228619
O    -2.245295  -0.816890  5.402571
H    0.816500  -0.377702  3.595178
H    -1.656114  -1.234571  2.271870
C    -0.694556  -2.518389  3.736900
C    0.243828  -3.272930  2.787947
C    -0.336264  -3.543588  1.396214
C    0.529542  -4.472871  0.541019
N    0.616087  -5.815584  1.133000
H    -1.602366  -3.113397  3.916020
H    -0.229413  -2.403370  4.728013
H    0.509148  -4.234190  3.249786
H    1.193265  -2.722569  2.673690
H    -0.474696  -2.600724  0.843856
H    -1.343879  -3.985915  1.496104
H    1.553172  -4.068474  0.490838
H    0.139761  -4.468739  -0.495364
H    1.290721  -6.389288  0.627971
H    -0.283354  -6.293202  1.058291
N    -2.843802  0.537117  3.648869
C    -3.748135  1.385949  4.398407
H    -2.571762  0.798836  2.698597
H    -3.916736  0.922220  5.376124
H    -4.708581  1.485369  3.875461
H    -3.327485  2.391138  4.553863
