33
Energy: -18209.0798935 eV PBE+vdW (tier 2 basis)
C    -1.295103  0.772795  -1.044622
C    -0.539818  0.167088  0.119874
O    0.447623  -0.546701  -0.045228
H    -2.174205  0.154386  -1.276579
H    -0.630643  0.764192  -1.912823
H    -1.655724  1.790687  -0.860049
N    -1.005844  0.393587  1.396902
C    -2.114942  1.219544  1.877379
C    -3.448525  0.933042  1.143001
O    -4.100504  1.828153  0.610326
H    -0.427359  -0.062143  2.095904
H    -2.274764  0.893037  2.920208
C    -1.813442  2.724137  1.909630
C    -0.655994  3.083066  2.843954
C    -0.200715  4.549363  2.791779
C    -1.256572  5.604996  3.151133
N    -2.071134  6.006066  1.993609
H    -2.740013  3.226504  2.220603
H    -1.604026  3.077649  0.889629
H    0.212968  2.450641  2.601950
H    -0.939160  2.830761  3.881412
H    0.186426  4.787160  1.788314
H    0.646829  4.657682  3.486016
H    -0.737729  6.511282  3.495601
H    -1.851066  5.241547  4.015651
H    -2.705912  5.261268  1.705916
H    -2.657669  6.804665  2.235209
N    -3.886424  -0.361849  1.129946
C    -3.301576  -1.542235  1.745784
H    -4.758039  -0.474751  0.622030
H    -4.083221  -2.304324  1.842239
H    -2.931241  -1.324320  2.756309
H    -2.473145  -1.961985  1.157675
