33
Energy: -18209.1772524 eV PBE+vdW (tier 2 basis)
C    0.261126  -2.074754  0.253913
C    -0.846179  -2.246899  1.278895
O    -1.526042  -3.265959  1.338296
H    0.753603  -1.094398  0.289188
H    -0.160674  -2.225936  -0.747097
H    1.013365  -2.857583  0.412949
N    -1.028476  -1.174619  2.119952
C    -1.953590  -1.215186  3.241686
C    -3.237276  -0.371706  3.102224
O    -4.291611  -0.810157  3.556012
H    -0.334946  -0.437589  2.084881
H    -2.335721  -2.243731  3.259290
C    -1.255596  -0.900142  4.580896
C    -0.120063  -1.863203  4.943941
C    -0.554155  -3.324081  5.098051
C    0.545101  -4.226576  5.662945
N    0.910513  -3.831417  7.032242
H    -2.029724  -0.922097  5.362601
H    -0.870146  0.133908  4.562045
H    0.334369  -1.528761  5.887453
H    0.678573  -1.804933  4.185062
H    -0.876759  -3.737822  4.130765
H    -1.437119  -3.377854  5.759569
H    1.448948  -4.130942  5.040084
H    0.216565  -5.280042  5.578388
H    0.145581  -4.045355  7.674266
H    1.715788  -4.366045  7.356899
N    -3.196199  0.869864  2.523344
C    -2.074199  1.639961  2.017201
H    -4.111390  1.308590  2.502645
H    -2.390466  2.684789  1.920483
H    -1.732327  1.295846  1.029612
H    -1.223277  1.630325  2.713256
