33
Energy: -18209.0959456 eV PBE+vdW (tier 2 basis)
C    -0.179311  -0.163885  -0.281018
C    0.010683  -0.088588  1.223455
O    1.115666  -0.196663  1.749128
H    -0.601751  0.766066  -0.687715
H    -0.850432  -0.985877  -0.565171
H    0.801579  -0.330954  -0.732920
N    -1.109120  0.123203  1.990851
C    -2.502345  0.173087  1.564442
C    -3.264035  1.242938  2.386182
O    -4.294825  0.991780  3.010085
H    -0.920449  0.086744  2.989686
H    -2.505034  0.554826  0.531084
C    -3.218965  -1.200008  1.547433
C    -2.766528  -2.221966  2.603638
C    -3.022093  -1.888281  4.084628
C    -4.398564  -2.312521  4.635459
N    -5.597769  -1.769650  3.993180
H    -3.041906  -1.647625  0.557517
H    -4.296406  -1.007402  1.618946
H    -3.258411  -3.180004  2.365967
H    -1.691788  -2.408342  2.458119
H    -2.256914  -2.394980  4.695577
H    -2.890854  -0.811235  4.270416
H    -4.431860  -2.040933  5.703304
H    -4.472664  -3.411663  4.603401
H    -5.472849  -0.772356  3.805695
H    -5.751186  -2.214444  3.088581
N    -2.750679  2.508480  2.376987
C    -1.635818  3.053962  1.617227
H    -3.297930  3.152958  2.938834
H    -1.746907  4.143339  1.580403
H    -1.639292  2.689426  0.581366
H    -0.661493  2.814706  2.064155
