33
Energy: -18208.9658841 eV PBE+vdW (tier 2 basis)
C    0.648174  0.358148  0.313684
C    0.215769  -0.643311  1.374421
O    0.939696  -1.582798  1.696789
H    1.618008  0.779040  0.605934
H    -0.061735  1.177583  0.145250
H    0.798206  -0.179355  -0.631098
N    -1.012027  -0.391052  1.924189
C    -1.814667  -1.167157  2.882276
C    -1.911682  -0.553171  4.300097
O    -2.987326  -0.640423  4.896170
H    -1.483184  0.433295  1.570867
H    -2.846457  -1.022632  2.532764
C    -1.613834  -2.706287  2.872358
C    -0.559249  -3.374010  3.771713
C    -0.821219  -3.386956  5.285528
C    -2.123063  -4.059605  5.718544
N    -2.259415  -4.002188  7.183274
H    -1.414496  -2.986841  1.829067
H    -2.600482  -3.125806  3.113616
H    0.423849  -2.933684  3.565159
H    -0.484610  -4.419450  3.428573
H    -0.807447  -2.364598  5.691645
H    0.013115  -3.908285  5.778954
H    -2.100310  -5.121216  5.423819
H    -2.977268  -3.596119  5.191677
H    -2.424373  -3.033620  7.465338
H    -3.087644  -4.520860  7.477571
N    -0.856287  0.109254  4.854821
C    0.548970  0.131824  4.476377
H    -1.096142  0.492555  5.764670
H    1.158655  0.112977  5.388105
H    0.808784  1.036165  3.905071
H    0.819486  -0.744386  3.879375
