33
Energy: -18209.4534077 eV PBE+vdW (tier 2 basis)
C    -0.660769  0.174663  -0.180817
C    -0.409400  0.427552  1.293015
O    0.716163  0.660780  1.734450
H    0.058871  -0.569395  -0.540761
H    -0.474139  1.106461  -0.731560
H    -1.680021  -0.165183  -0.401571
N    -1.528727  0.434734  2.077944
C    -1.470782  0.530926  3.524449
C    -2.261515  -0.661708  4.087518
O    -3.258222  -1.095714  3.508363
H    -2.400096  0.054524  1.716011
H    -0.406007  0.465051  3.797867
C    -2.070304  1.842680  4.087166
C    -1.194339  3.099428  3.962851
C    -0.925635  3.657736  2.555576
C    -2.168129  3.946134  1.711703
N    -3.036814  4.953088  2.342645
H    -2.273008  1.680914  5.157784
H    -3.055899  1.991657  3.618243
H    -0.223160  2.899917  4.443237
H    -1.664043  3.887636  4.573541
H    -0.268170  2.973542  2.002183
H    -0.366782  4.598840  2.673643
H    -2.687289  2.995338  1.480507
H    -1.839418  4.358528  0.746326
H    -3.785475  5.223109  1.704799
H    -3.496606  4.567237  3.168304
N    -1.802202  -1.152013  5.270564
C    -2.462934  -2.221719  5.995196
H    -0.946072  -0.761180  5.645445
H    -2.779668  -1.889393  6.993617
H    -1.804351  -3.094582  6.102080
H    -3.346884  -2.512898  5.418422
