33
Energy: -18209.069154 eV PBE+vdW (tier 2 basis)
C    -0.233567  -0.075662  -0.095531
C    -0.345094  0.393229  1.344987
O    0.228222  1.398517  1.755011
H    -0.211861  0.800741  -0.751481
H    -1.045341  -0.745661  -0.406226
H    0.718407  -0.610378  -0.218909
N    -1.132008  -0.395798  2.142779
C    -1.298027  -0.270814  3.594016
C    -1.293073  1.188303  4.116691
O    -0.566804  1.521274  5.047195
H    -1.520356  -1.231646  1.721393
H    -2.316955  -0.644057  3.803314
C    -0.318908  -1.158867  4.378206
C    1.184283  -0.834558  4.216665
C    2.041109  -2.040671  3.807858
C    1.866364  -2.454367  2.339495
N    2.642906  -3.611063  1.878287
H    -0.514997  -2.197202  4.062351
H    -0.603550  -1.105531  5.437586
H    1.555599  -0.420267  5.161436
H    1.321465  -0.029397  3.481652
H    1.816114  -2.904252  4.459064
H    3.104538  -1.803022  3.975468
H    2.129412  -1.598186  1.697904
H    0.805796  -2.669265  2.131824
H    2.415586  -4.433634  2.439670
H    3.640246  -3.441774  2.020315
N    -2.234058  2.048118  3.617003
C    -3.131197  1.880944  2.490050
H    -2.120116  2.987229  3.985816
H    -3.956159  2.596408  2.591263
H    -3.568743  0.875354  2.481609
H    -2.637411  2.054010  1.520641
