33
Energy: -18209.3613938 eV PBE+vdW (tier 2 basis)
C    1.003194  0.613194  0.453629
C    0.621250  0.277072  1.884272
O    1.441701  0.230819  2.793153
H    0.147231  0.843625  -0.193072
H    1.544618  -0.241722  0.026548
H    1.691801  1.465382  0.462098
N    -0.721177  0.044818  2.095361
C    -1.241617  -0.514947  3.347918
C    -1.026340  0.437577  4.554820
O    -0.918085  0.008270  5.701521
H    -1.314709  -0.030787  1.277395
H    -2.334944  -0.557045  3.206668
C    -0.737356  -1.936512  3.658309
C    -1.749689  -2.765764  4.459295
C    -1.156142  -4.027140  5.097061
C    -0.081255  -3.757804  6.173279
N    -0.442971  -2.861792  7.270391
H    0.214685  -1.854347  4.195878
H    -0.520093  -2.440211  2.704066
H    -2.589289  -3.047767  3.802313
H    -2.177800  -2.139607  5.255489
H    -0.720310  -4.678533  4.318941
H    -1.975717  -4.605849  5.555160
H    0.823395  -3.343872  5.702653
H    0.225620  -4.725446  6.601214
H    -0.609569  -1.914428  6.922644
H    -1.302843  -3.171687  7.725149
N    -1.065804  1.762935  4.254904
C    -0.807333  2.785036  5.250817
H    -1.009788  2.008944  3.273205
H    -1.429767  3.667283  5.056695
H    0.251313  3.086295  5.260892
H    -1.057014  2.374494  6.234551
