33
Energy: -18209.2554405 eV PBE+vdW (tier 2 basis)
C    0.564206  0.064754  0.128327
C    0.359557  -0.093823  1.622160
O    1.292067  -0.321034  2.391148
H    1.237197  0.913742  -0.044903
H    -0.365116  0.227051  -0.431672
H    1.064491  -0.831649  -0.257980
N    -0.937756  0.012845  2.050464
C    -1.300870  0.003824  3.461666
C    -2.404010  -1.042954  3.735043
O    -3.503765  -0.745914  4.206774
H    -1.652218  0.253806  1.373403
H    -0.388351  -0.348267  3.968293
C    -1.630266  1.406847  4.024606
C    -2.278064  2.413083  3.057966
C    -3.670002  2.078702  2.489838
C    -4.866382  2.540330  3.347713
N    -4.964374  2.038099  4.719034
H    -0.680342  1.843637  4.365807
H    -2.255588  1.262126  4.913776
H    -1.577620  2.582663  2.225148
H    -2.331931  3.382775  3.580464
H    -3.770397  0.995904  2.315841
H    -3.775203  2.559315  1.502389
H    -5.790035  2.260721  2.814575
H    -4.868073  3.641531  3.393984
H    -4.278875  2.497989  5.317566
H    -4.741384  1.040129  4.741028
N    -2.103909  -2.343197  3.450936
C    -0.869593  -2.924299  2.948179
H    -2.881626  -2.970405  3.633202
H    0.004075  -2.344576  3.266300
H    -0.854764  -2.983297  1.848863
H    -0.766096  -3.938538  3.352023
