33
Energy: -18209.3063361 eV PBE+vdW (tier 2 basis)
C    0.266042  1.258279  1.181762
C    0.044300  -0.014694  1.972672
O    0.981736  -0.668680  2.421844
H    1.247122  1.189781  0.702187
H    0.289360  2.110391  1.875530
H    -0.504125  1.455885  0.427776
N    -1.253801  -0.447681  2.172284
C    -2.525279  0.241751  1.928268
C    -2.917472  0.327656  0.430779
O    -3.758042  1.133684  0.040296
H    -1.281911  -1.248403  2.797550
H    -3.284616  -0.432244  2.356192
C    -2.683373  1.608193  2.622626
C    -2.324191  1.607717  4.111907
C    -3.193923  0.695970  4.983632
C    -2.814535  0.713398  6.466518
N    -3.041075  2.033505  7.071276
H    -3.726915  1.918643  2.478584
H    -2.080811  2.361449  2.097109
H    -2.418561  2.644778  4.468857
H    -1.263813  1.332655  4.243729
H    -3.118579  -0.347776  4.635350
H    -4.251007  0.990185  4.884222
H    -1.772481  0.348405  6.573428
H    -3.453109  -0.004499  7.001321
H    -2.976799  1.973045  8.086909
H    -2.320731  2.694849  6.780838
N    -2.306713  -0.583969  -0.374320
C    -2.580930  -0.686087  -1.793277
H    -1.608929  -1.183157  0.053273
H    -2.960718  -1.683908  -2.053531
H    -1.679509  -0.484772  -2.389264
H    -3.344192  0.060393  -2.038198
