33
Energy: -18209.2328173 eV PBE+vdW (tier 2 basis)
C    -0.978749  0.268066  -0.204115
C    -0.828567  0.443098  1.297535
O    -0.073235  1.285068  1.778071
H    -1.572153  1.108509  -0.591917
H    -1.472852  -0.666706  -0.497975
H    0.012303  0.317951  -0.667548
N    -1.651783  -0.355645  2.049857
C    -1.646961  -0.451100  3.516429
C    -2.731243  -1.433592  3.986688
O    -2.578597  -2.102667  5.002966
H    -2.066506  -1.143896  1.564380
H    -0.697039  -0.898092  3.849247
C    -1.792267  0.887704  4.287644
C    -3.078879  1.708115  4.092497
C    -3.180650  2.497196  2.777415
C    -2.217864  3.692456  2.698826
N    -1.924651  4.043177  1.300027
H    -0.910660  1.496344  4.055135
H    -1.708270  0.603092  5.346597
H    -3.144386  2.417622  4.933837
H    -3.960968  1.058082  4.205899
H    -4.211191  2.857982  2.639530
H    -2.985061  1.837333  1.921608
H    -1.303267  3.465291  3.275932
H    -2.684105  4.563883  3.182599
H    -1.539662  4.986527  1.249385
H    -1.185507  3.422631  0.961540
N    -3.860900  -1.494015  3.212591
C    -5.017663  -2.273817  3.617606
H    -3.991871  -0.765197  2.518510
H    -5.549151  -2.643246  2.732629
H    -5.714482  -1.687511  4.236352
H    -4.666049  -3.122208  4.213407
