33
Energy: -18209.3263122 eV PBE+vdW (tier 2 basis)
C    -1.436086  0.137154  -0.685559
C    -1.389542  0.075549  0.828494
O    -0.903705  0.987575  1.500902
H    -2.050836  0.996203  -0.983772
H    -1.842537  -0.768788  -1.150788
H    -0.421289  0.314330  -1.061665
N    -1.957324  -1.037842  1.380596
C    -1.858778  -1.359040  2.792118
C    -1.242521  -2.763685  2.887293
O    -1.327067  -3.558373  1.948491
H    -2.113766  -1.851493  0.787491
H    -1.189262  -0.607124  3.232365
C    -3.239987  -1.346562  3.524497
C    -3.511755  -0.143606  4.437177
C    -3.432736  1.240904  3.760284
C    -2.238089  2.074445  4.234640
N    -2.074188  3.265308  3.400254
H    -3.344846  -2.268975  4.116598
H    -4.012358  -1.405256  2.743775
H    -2.810172  -0.171408  5.287962
H    -4.507560  -0.290299  4.880812
H    -4.351776  1.815812  3.940380
H    -3.362929  1.127819  2.668929
H    -1.337166  1.426914  4.250347
H    -2.412465  2.396800  5.274102
H    -1.392948  3.899713  3.816884
H    -1.683679  2.972468  2.501183
N    -0.630580  -3.103298  4.056279
C    -0.503236  -2.309942  5.266857
H    -0.321820  -4.070376  4.083798
H    0.354918  -2.675471  5.841988
H    -1.398436  -2.364490  5.905955
H    -0.316568  -1.256524  5.027042
