33
Energy: -18209.3143433 eV PBE+vdW (tier 2 basis)
C    0.286186  -0.246639  0.564859
C    -0.023814  0.111664  2.010045
O    0.867346  0.333829  2.826234
H    -0.147407  0.483458  -0.133969
H    -0.103853  -1.237154  0.294017
H    1.372589  -0.247979  0.445531
N    -1.344208  0.185721  2.369532
C    -2.519649  0.005948  1.544281
C    -3.644988  0.850747  2.181390
O    -3.585178  1.231459  3.348165
H    -1.534882  0.526981  3.312214
H    -2.325136  0.398998  0.533018
C    -2.964150  -1.475174  1.407685
C    -3.357967  -2.137164  2.730290
C    -3.672556  -3.632511  2.607522
C    -4.929009  -3.952368  1.796449
N    -5.174160  -5.398955  1.778500
H    -2.133641  -2.035122  0.950286
H    -3.795132  -1.522409  0.685921
H    -4.224453  -1.613282  3.166068
H    -2.534444  -2.004544  3.447074
H    -3.798552  -4.046622  3.621702
H    -2.818832  -4.169663  2.164794
H    -4.794205  -3.634134  0.751073
H    -5.773916  -3.355992  2.200344
H    -5.993139  -5.620506  1.212571
H    -5.373076  -5.736560  2.721552
N    -4.705792  1.097186  1.364057
C    -5.893869  1.804829  1.805303
H    -4.665143  0.762994  0.408759
H    -6.062697  2.708553  1.204134
H    -5.734871  2.096868  2.848324
H    -6.784839  1.164172  1.745149
