33
Energy: -18209.4137824 eV PBE+vdW (tier 2 basis)
C    -0.700146  -1.578255  -0.106003
C    -0.939983  -1.329116  1.371250
O    -1.100149  -2.247937  2.176052
H    -1.529759  -2.176920  -0.501578
H    0.215157  -2.172794  -0.218578
H    -0.603696  -0.659760  -0.697603
N    -0.958584  -0.018345  1.748088
C    -1.223637  0.383354  3.113935
C    -1.816520  1.791943  3.061487
O    -1.587318  2.542581  2.104466
H    -0.903214  0.738224  1.071185
H    -1.944548  -0.335196  3.531923
C    0.047137  0.351066  4.004887
C    1.228605  1.199765  3.485436
C    1.820879  2.163322  4.524399
C    0.913262  3.335605  4.911895
N    0.687169  4.243744  3.782394
H    0.336745  -0.704364  4.089597
H    -0.234488  0.668406  5.020131
H    0.927842  1.775429  2.597603
H    2.023725  0.529246  3.132668
H    2.757470  2.583134  4.127857
H    2.082897  1.602223  5.437056
H    1.414504  3.910151  5.704786
H    -0.023198  2.946182  5.365866
H    0.269605  5.116299  4.102515
H    0.039691  3.843072  3.100700
N    -2.566058  2.213761  4.115209
C    -2.909929  1.503161  5.334381
H    -2.841457  3.188817  4.040647
H    -3.013703  0.429821  5.141978
H    -3.875118  1.870205  5.702471
H    -2.158604  1.642356  6.127555
