33
Energy: -18209.4898775 eV PBE+vdW (tier 2 basis)
C    -1.708880  2.814247  5.137033
C    -0.961966  1.496398  5.223518
O    -0.443523  1.100696  6.269044
H    -1.069922  3.609886  5.537971
H    -2.599968  2.755105  5.775433
H    -2.021463  3.076640  4.118915
N    -0.923587  0.771310  4.069893
C    -0.216487  -0.487581  3.971028
C    0.127719  -0.692213  2.487732
O    -0.446470  -0.063754  1.596379
H    -1.262153  1.146448  3.187087
H    0.710490  -0.395196  4.560875
C    -1.005164  -1.693545  4.550224
C    -2.167819  -2.237767  3.711179
C    -3.349287  -1.286110  3.495461
C    -4.549703  -1.983675  2.859023
N    -5.651069  -1.034553  2.649666
H    -1.355022  -1.386856  5.546369
H    -0.286068  -2.510208  4.724548
H    -2.535306  -3.145634  4.218272
H    -1.791809  -2.578964  2.731853
H    -3.044357  -0.451612  2.845661
H    -3.662216  -0.838146  4.451142
H    -4.914653  -2.771703  3.536931
H    -4.218704  -2.495405  1.931948
H    -6.469023  -1.512562  2.271530
H    -5.382764  -0.333510  1.957074
N    1.075744  -1.636488  2.245345
C    1.477373  -2.030550  0.907970
H    1.510473  -2.090747  3.039652
H    1.264015  -3.093026  0.725010
H    2.548705  -1.849271  0.746069
H    0.903869  -1.424654  0.199167
