33
Energy: -18209.1832826 eV PBE+vdW (tier 2 basis)
C    0.959384  2.895626  0.597459
C    0.571487  2.088784  1.824482
O    1.009616  2.361146  2.938683
H    0.295226  3.769451  0.540052
H    0.875253  2.335166  -0.342618
H    1.985513  3.256563  0.718260
N    -0.276098  1.037357  1.558391
C    -1.112227  0.322864  2.517510
C    -2.408495  1.134198  2.777128
O    -2.469634  2.339213  2.556469
H    -0.636200  1.023555  0.610774
H    -1.387367  -0.621452  2.017371
C    -0.407644  -0.034807  3.840455
C    0.858804  -0.872601  3.653093
C    1.583781  -1.194176  4.965833
C    2.109013  0.029301  5.748274
N    3.004613  0.945526  5.046227
H    -1.122155  -0.594575  4.462959
H    -0.181217  0.895830  4.371240
H    1.548873  -0.341287  2.981986
H    0.602416  -1.815371  3.141485
H    2.435639  -1.857221  4.739486
H    0.918346  -1.772992  5.631000
H    2.626175  -0.342731  6.647630
H    1.263408  0.626893  6.121085
H    2.505616  1.462675  4.318999
H    3.769628  0.440835  4.597237
N    -3.496023  0.447951  3.250253
C    -3.631885  -0.957930  3.586821
H    -4.282714  1.057938  3.452453
H    -4.677181  -1.259265  3.447630
H    -3.345544  -1.178720  4.627348
H    -3.021471  -1.582705  2.924251
