33
Energy: -18209.4113512 eV PBE+vdW (tier 2 basis)
C    -1.520358  0.120878  -1.031958
C    -0.976308  0.079809  0.383103
O    0.174903  -0.260102  0.640117
H    -1.960646  1.096852  -1.277680
H    -2.302298  -0.639352  -1.173741
H    -0.696316  -0.091724  -1.717493
N    -1.836257  0.461673  1.391252
C    -3.249146  0.799609  1.290962
C    -3.546609  2.299870  1.064892
O    -4.697765  2.673014  0.846468
H    -1.444495  0.333449  2.321607
H    -3.667739  0.303927  0.403441
C    -4.016554  0.301806  2.526497
C    -4.069951  -1.226739  2.669544
C    -4.692947  -1.985924  1.490181
C    -6.133256  -1.591550  1.163913
N    -6.687867  -2.486802  0.137571
H    -5.026971  0.725744  2.467025
H    -3.554396  0.740511  3.427196
H    -4.637439  -1.457676  3.585107
H    -3.056219  -1.621286  2.840515
H    -4.674121  -3.063963  1.707989
H    -4.068084  -1.859085  0.588054
H    -6.179795  -0.521168  0.885464
H    -6.748870  -1.705036  2.070767
H    -7.659517  -2.242882  -0.056022
H    -6.185463  -2.363769  -0.743485
N    -2.470021  3.126384  1.124057
C    -2.566331  4.558890  0.927103
H    -1.566826  2.694520  1.289019
H    -2.220974  5.105795  1.815334
H    -3.620153  4.798432  0.748159
H    -1.973417  4.882089  0.060120
