33
Energy: -18209.4444273 eV PBE+vdW (tier 2 basis)
C    0.420128  0.468044  0.005730
C    -0.372064  0.546600  1.297705
O    -1.199185  1.434161  1.508889
H    -0.281277  0.376086  -0.832924
H    1.127064  -0.369864  -0.026711
H    0.968665  1.408434  -0.128675
N    -0.114223  -0.443411  2.200952
C    -0.704973  -0.458307  3.521367
C    0.261301  -1.242940  4.427985
O    1.217398  -1.877505  3.973580
H    0.672493  -1.079299  2.083407
H    -0.749518  0.582635  3.885477
C    -2.167232  -0.984981  3.526500
C    -2.416650  -2.349898  2.873878
C    -1.779088  -3.564292  3.583538
C    -0.697006  -4.262481  2.752127
N    0.110596  -5.154280  3.592928
H    -2.759903  -0.221195  3.004009
H    -2.533314  -0.996556  4.566930
H    -2.066000  -2.305745  1.830498
H    -3.505867  -2.482187  2.809451
H    -2.545029  -4.303859  3.856239
H    -1.331477  -3.254568  4.540227
H    -0.094821  -3.494124  2.231755
H    -1.176490  -4.869106  1.968388
H    0.683418  -5.766601  3.012046
H    0.765789  -4.587980  4.136421
N    -0.002385  -1.174177  5.758263
C    0.741898  -1.950298  6.734397
H    -0.837923  -0.687688  6.059623
H    0.369018  -2.984106  6.807718
H    0.662841  -1.472090  7.716612
H    1.794526  -1.986682  6.434282
