33
Energy: -18209.1982895 eV PBE+vdW (tier 2 basis)
C    0.526556  0.073855  1.293263
C    0.641651  0.290452  2.791885
O    1.675688  0.699527  3.314607
H    -0.230503  0.732934  0.844627
H    0.253283  -0.961360  1.048027
H    1.498150  0.303130  0.848470
N    -0.470332  0.029551  3.554845
C    -1.740500  -0.560069  3.137758
C    -2.900918  0.126036  3.898818
O    -3.683151  -0.501380  4.615004
H    -0.301010  0.127433  4.552849
H    -1.880444  -0.306177  2.075312
C    -1.793808  -2.088892  3.271389
C    -1.325705  -2.644670  4.627054
C    -1.784021  -4.092322  4.880312
C    -3.165957  -4.220247  5.531934
N    -4.245822  -3.659193  4.708472
H    -1.165052  -2.519860  2.476212
H    -2.820537  -2.416114  3.062287
H    -0.227813  -2.592581  4.672873
H    -1.699805  -2.009338  5.445950
H    -1.775583  -4.656809  3.933588
H    -1.061364  -4.587904  5.546975
H    -3.111664  -3.768449  6.544391
H    -3.378426  -5.289784  5.680329
H    -5.149889  -3.951756  5.077799
H    -4.232509  -2.636441  4.754539
N    -3.032716  1.475501  3.741818
C    -2.278789  2.381161  2.889514
H    -3.799602  1.861374  4.283542
H    -2.858050  3.303215  2.769315
H    -2.128702  1.955907  1.888105
H    -1.295401  2.635009  3.308434
