33
Energy: -18209.4008303 eV PBE+vdW (tier 2 basis)
C    0.947681  1.884195  0.965762
C    0.571673  1.636053  2.414630
O    1.356553  1.930641  3.325853
H    1.201264  2.944367  0.844964
H    0.165613  1.617337  0.244788
H    1.851428  1.304782  0.738460
N    -0.661739  1.093109  2.606798
C    -1.339385  0.621981  3.834401
C    -1.531985  1.624817  5.000486
O    -2.562531  1.537168  5.672050
H    -1.195780  0.936936  1.760832
H    -2.374317  0.453333  3.510792
C    -0.825110  -0.742340  4.348183
C    0.588593  -0.788481  4.931179
C    0.933035  -2.169867  5.497152
C    2.385441  -2.299918  5.959149
N    2.682387  -1.394111  7.077839
H    -0.905350  -1.462242  3.517010
H    -1.548145  -1.068753  5.112004
H    0.675698  -0.033003  5.726603
H    1.325454  -0.512272  4.161974
H    0.746821  -2.937788  4.727480
H    0.268277  -2.398380  6.345402
H    3.052165  -2.155859  5.083683
H    2.553784  -3.326860  6.315473
H    3.603753  -1.598667  7.463718
H    2.717858  -0.426273  6.756162
N    -0.546392  2.515922  5.238552
C    -0.625212  3.444456  6.350145
H    0.316948  2.430552  4.685221
H    0.108014  4.244037  6.197960
H    -0.420645  2.950978  7.313005
H    -1.630934  3.878282  6.406634
