33
Energy: -18209.1103832 eV PBE+vdW (tier 2 basis)
C    1.221567  0.772988  -0.305939
C    0.726425  0.909014  1.123166
O    1.451499  1.289958  2.036779
H    0.434691  0.519053  -1.027323
H    1.995680  -0.004580  -0.335853
H    1.692595  1.716170  -0.606814
N    -0.593813  0.583948  1.319057
C    -1.165900  0.490300  2.667037
C    -2.354068  -0.487293  2.662956
O    -2.325010  -1.505493  3.348221
H    -1.078635  0.111656  0.564803
H    -0.421099  0.004334  3.312702
C    -1.486716  1.870997  3.277573
C    -2.186121  1.773781  4.636470
C    -2.484219  3.131957  5.281629
C    -3.520243  3.969378  4.529609
N    -3.808994  5.208981  5.258606
H    -2.087066  2.457314  2.569763
H    -0.529862  2.401030  3.385356
H    -1.559846  1.179680  5.319408
H    -3.128888  1.208861  4.535678
H    -1.559618  3.720606  5.385637
H    -2.854184  2.959904  6.306195
H    -4.415479  3.338982  4.339478
H    -3.126353  4.257382  3.542970
H    -4.464062  5.792341  4.738609
H    -4.251789  4.999972  6.154617
N    -3.432983  -0.230324  1.847747
C    -3.833692  1.007872  1.193149
H    -4.156877  -0.934450  1.965900
H    -4.320170  1.714317  1.885117
H    -4.541613  0.766611  0.391273
H    -2.974646  1.511690  0.737540
