33
Energy: -18209.3187978 eV PBE+vdW (tier 2 basis)
C    0.136156  0.595456  2.084193
C    -0.881618  -0.513354  2.259045
O    -0.543684  -1.661582  2.533641
H    1.065452  0.144690  1.722393
H    0.342753  1.045650  3.065312
H    -0.179554  1.393752  1.403521
N    -2.220841  -0.214193  2.086326
C    -2.886558  1.087831  1.962433
C    -2.663448  1.776585  0.589602
O    -2.857015  2.980686  0.444058
H    -2.809054  -1.007158  2.326461
H    -3.962368  0.843544  1.962484
C    -2.652280  2.063826  3.126604
C    -3.025645  1.482107  4.489803
C    -2.805067  2.469328  5.637895
C    -3.148917  1.885382  7.006868
N    -2.952625  2.884576  8.064904
H    -3.245388  2.962798  2.912214
H    -1.604669  2.398259  3.133017
H    -2.441491  0.566712  4.679892
H    -4.084379  1.168353  4.476094
H    -3.403369  3.380243  5.481961
H    -1.749384  2.793488  5.639355
H    -2.567592  0.952713  7.156849
H    -4.211410  1.594858  7.019713
H    -3.236514  2.508737  8.969601
H    -1.962569  3.120388  8.149860
N    -2.305513  0.936600  -0.419181
C    -2.094490  1.388155  -1.779643
H    -2.143200  -0.034473  -0.175221
H    -2.758556  0.861684  -2.478968
H    -1.053275  1.231598  -2.095598
H    -2.318923  2.459690  -1.812555
