33
Energy: -18209.399202 eV PBE+vdW (tier 2 basis)
C    0.766429  0.414299  0.564518
C    0.475756  0.632581  2.032152
O    1.410013  0.764582  2.839820
H    1.486933  1.167876  0.226611
H    -0.121332  0.443509  -0.078801
H    1.246085  -0.571442  0.476029
N    -0.841300  0.647523  2.372525
C    -1.521795  0.615410  3.687375
C    -1.148912  1.668561  4.763821
O    -2.037095  2.008160  5.550475
H    -1.475482  0.533185  1.590678
H    -2.554123  0.907583  3.454869
C    -1.599762  -0.799520  4.314087
C    -0.274734  -1.574901  4.447765
C    -0.060193  -2.601409  3.321366
C    1.353799  -3.181659  3.242298
N    2.261233  -2.277573  2.520309
H    -2.308181  -1.398452  3.719112
H    -2.075877  -0.657904  5.294204
H    -0.268834  -2.111249  5.408256
H    0.567550  -0.871094  4.495733
H    -0.296074  -2.154941  2.342469
H    -0.779839  -3.423696  3.462866
H    1.322895  -4.128344  2.682047
H    1.695722  -3.435442  4.267042
H    3.210626  -2.649891  2.521036
H    2.305997  -1.359040  2.967529
N    0.114654  2.133770  4.808517
C    0.525362  3.089411  5.819483
H    0.802677  1.710258  4.169138
H    1.514289  3.478791  5.554740
H    0.577122  2.630877  6.818780
H    -0.189506  3.920271  5.873369
