33
Energy: -18209.3907838 eV PBE+vdW (tier 2 basis)
C    -1.150615  -0.458394  -0.317150
C    -0.738798  -0.595933  1.137446
O    0.397056  -0.921665  1.467692
H    -0.799898  0.517199  -0.681682
H    -2.235018  -0.519738  -0.474764
H    -0.652197  -1.236295  -0.904556
N    -1.731941  -0.321921  2.046358
C    -1.475269  -0.091446  3.469429
C    -0.263073  0.868863  3.641082
O    -0.171519  1.865502  2.924019
H    -2.569801  0.104615  1.670978
H    -2.321606  0.526368  3.810071
C    -1.508193  -1.368184  4.327825
C    -0.513863  -2.486680  3.972491
C    -0.257448  -3.472873  5.124832
C    0.946463  -3.113052  5.998660
N    0.819737  -1.773414  6.610442
H    -2.531625  -1.773852  4.278473
H    -1.371011  -1.054883  5.373536
H    0.439072  -2.055321  3.638084
H    -0.899101  -3.029987  3.098742
H    -0.068906  -4.479285  4.721715
H    -1.159078  -3.572561  5.755152
H    1.845636  -3.089924  5.364364
H    1.104108  -3.910173  6.748884
H    0.061749  -1.774170  7.296325
H    1.668119  -1.550115  7.132788
N    0.592089  0.607799  4.658060
C    1.728409  1.477154  4.895231
H    0.544330  -0.258599  5.206427
H    2.446085  1.441349  4.061904
H    2.229969  1.152739  5.814255
H    1.404630  2.520018  5.009781
