33
Energy: -18208.8699514 eV PBE+vdW (tier 2 basis)
C    0.171948  -0.733603  0.130114
C    0.103279  -0.314767  1.585255
O    1.040131  -0.500687  2.363265
H    0.866935  -0.061960  -0.391375
H    -0.796719  -0.705198  -0.383913
H    0.583462  -1.747357  0.072052
N    -1.059893  0.286936  1.968540
C    -1.251478  0.915161  3.278075
C    -0.011690  1.803656  3.597171
O    0.189751  2.757385  2.845720
H    -1.738311  0.500491  1.248655
H    -1.996932  1.703471  3.099411
C    -1.877166  -0.023432  4.337577
C    -1.409519  -1.494583  4.358133
C    -2.245864  -2.452986  3.486577
C    -3.458958  -3.078397  4.179310
N    -4.476913  -2.085434  4.565031
H    -2.962418  -0.009958  4.160583
H    -1.736530  0.449836  5.320487
H    -1.423324  -1.861465  5.398259
H    -0.362275  -1.548940  4.039991
H    -1.601151  -3.280557  3.151912
H    -2.581363  -1.933447  2.576657
H    -3.101986  -3.689615  5.033411
H    -3.938950  -3.776329  3.477355
H    -5.336148  -2.559235  4.844087
H    -4.172095  -1.559273  5.385109
N    0.734862  1.655548  4.735363
C    1.055068  0.444326  5.482503
H    1.448094  2.379508  4.759789
H    1.916943  0.666519  6.120996
H    1.320597  -0.380038  4.808745
H    0.233371  0.130538  6.138620
