33
Energy: -18209.4254314 eV PBE+vdW (tier 2 basis)
C    -3.895203  1.611165  -0.065580
C    -2.497942  1.887274  0.456012
O    -1.838561  2.859075  0.099770
H    -4.620686  1.471918  0.747522
H    -4.198628  2.459056  -0.684657
H    -3.910873  0.700541  -0.682049
N    -1.990473  0.995939  1.378866
C    -2.573469  -0.258692  1.830523
C    -3.425933  -0.163173  3.113694
O    -4.026889  -1.158576  3.522033
H    -1.019898  1.180477  1.623130
H    -3.281785  -0.608939  1.066510
C    -1.490879  -1.336654  2.002170
C    -0.937076  -1.892899  0.685209
C    -1.948498  -2.591689  -0.238291
C    -2.737170  -3.774882  0.374114
N    -3.979048  -3.502309  1.096457
H    -1.917680  -2.142218  2.613144
H    -0.667587  -0.912671  2.602199
H    -0.140614  -2.611187  0.937194
H    -0.441556  -1.085781  0.121468
H    -1.386463  -2.962582  -1.110788
H    -2.669125  -1.863768  -0.649724
H    -2.988545  -4.472282  -0.439719
H    -2.073219  -4.340249  1.049001
H    -3.859921  -2.921192  1.927755
H    -4.660775  -3.037603  0.497711
N    -3.463505  1.052985  3.711469
C    -4.231866  1.320045  4.911424
H    -2.936531  1.797687  3.266742
H    -5.001460  2.082650  4.728480
H    -3.582402  1.661424  5.729052
H    -4.719149  0.385291  5.208804
