33
Energy: -18209.497958 eV PBE+vdW (tier 2 basis)
C    1.551030  -0.755552  2.251450
C    0.567265  0.399685  2.247901
O    0.921703  1.565200  2.428919
H    2.300002  -0.583860  1.468286
H    1.081906  -1.733471  2.088892
H    2.079502  -0.764108  3.212696
N    -0.733910  0.059016  2.014594
C    -1.807155  1.025903  2.097070
C    -3.078807  0.242123  2.471082
O    -3.098980  -0.990337  2.503468
H    -1.040822  -0.912238  2.031605
H    -1.574625  1.721384  2.922280
C    -1.936796  1.892036  0.815415
C    -2.080896  1.136800  -0.513423
C    -3.381120  0.355970  -0.754792
C    -4.647496  1.207839  -0.823953
N    -5.815280  0.353986  -1.079023
H    -1.022398  2.500101  0.776054
H    -2.763956  2.607057  0.950837
H    -1.233362  0.440928  -0.604892
H    -1.948959  1.870286  -1.325357
H    -3.509057  -0.417501  0.018510
H    -3.293098  -0.191365  -1.705368
H    -4.563570  1.920514  -1.660203
H    -4.742572  1.817411  0.096316
H    -5.925536  -0.327019  -0.325840
H    -6.672773  0.905477  -1.106560
N    -4.161103  1.011306  2.761804
C    -5.475818  0.459152  3.025441
H    -4.062273  2.017126  2.693735
H    -5.369077  -0.627054  3.110064
H    -6.176266  0.686162  2.207393
H    -5.886205  0.852789  3.964532
