33
Energy: -18209.2406619 eV PBE+vdW (tier 2 basis)
C    -0.225767  -0.540205  0.521046
C    0.373343  0.459424  1.495734
O    1.583158  0.519851  1.706114
H    -0.784179  -0.046885  -0.285218
H    -0.925001  -1.220195  1.027053
H    0.595589  -1.120202  0.092645
N    -0.495756  1.302935  2.141546
C    -1.957017  1.315178  2.084975
C    -2.381529  2.797459  2.076167
O    -2.673431  3.399955  3.109048
H    -0.049380  1.893757  2.840077
H    -2.270983  0.843569  1.144278
C    -2.590507  0.553668  3.254852
C    -4.123630  0.455724  3.252099
C    -4.798009  -0.522566  2.271518
C    -5.018037  -0.071024  0.820597
N    -3.832189  -0.270359  -0.035077
H    -2.278617  1.048185  4.186062
H    -2.151518  -0.456996  3.269271
H    -4.554931  1.460842  3.123050
H    -4.418438  0.147584  4.266471
H    -5.794467  -0.750800  2.679338
H    -4.259622  -1.487395  2.270617
H    -5.262708  1.002852  0.805496
H    -5.905262  -0.601183  0.427452
H    -3.578871  -1.260538  -0.041309
H    -4.062391  -0.037919  -1.002461
N    -2.389668  3.423982  0.860866
C    -1.893064  2.906155  -0.404400
H    -2.559682  4.423042  0.930370
H    -0.795331  2.820467  -0.422771
H    -2.201445  3.587757  -1.204867
H    -2.326339  1.920732  -0.616954
