33
Energy: -18209.4684194 eV PBE+vdW (tier 2 basis)
C    0.118134  -0.690521  -0.307520
C    -0.067224  -0.377218  1.163931
O    0.907327  -0.192810  1.905068
H    0.716090  0.107024  -0.765068
H    -0.820863  -0.799984  -0.863362
H    0.692852  -1.621188  -0.395382
N    -1.357656  -0.312599  1.593396
C    -1.829919  -0.117106  2.975886
C    -1.612944  1.317257  3.519497
O    -2.569224  1.956010  3.965290
H    -2.078131  -0.426982  0.891733
H    -2.922914  -0.195977  2.918097
C    -1.323029  -1.232673  3.916402
C    -1.915910  -1.204566  5.334583
C    -1.239072  -0.244908  6.321100
C    -1.791807  -0.377640  7.747358
N    -1.217476  0.517931  8.756296
H    -0.225636  -1.206749  3.964630
H    -1.589171  -2.184023  3.430527
H    -1.846262  -2.225550  5.743539
H    -2.993335  -0.974862  5.282197
H    -1.367364  0.797484  5.995861
H    -0.152930  -0.440972  6.334142
H    -1.654518  -1.412488  8.101661
H    -2.879764  -0.205158  7.732733
H    -0.205470  0.390406  8.808414
H    -1.369055  1.491762  8.488456
N    -0.336313  1.765698  3.500552
C    0.029640  3.065182  4.026065
H    0.374820  1.144161  3.099023
H    0.872119  3.471105  3.454010
H    0.319894  3.009030  5.087617
H    -0.828899  3.741363  3.945351
