33
Energy: -18209.1043226 eV PBE+vdW (tier 2 basis)
C    -0.253471  0.617851  -0.110599
C    -0.092741  0.400301  1.383747
O    0.982157  0.548189  1.957144
H    -1.287969  0.528150  -0.465257
H    0.369325  -0.114478  -0.640063
H    0.126340  1.614768  -0.364004
N    -1.238215  0.037705  2.049110
C    -1.208864  -0.379385  3.455900
C    -2.411318  -1.291543  3.754837
O    -2.237276  -2.447996  4.128076
H    -2.037306  -0.239721  1.490915
H    -0.336211  -1.032966  3.595159
C    -1.063945  0.810485  4.428559
C    -1.154917  0.394122  5.899917
C    -0.925330  1.540437  6.892124
C    -2.025105  2.602670  6.897552
N    -1.784295  3.586950  7.961525
H    -1.813832  1.576026  4.190806
H    -0.083157  1.264420  4.228042
H    -0.415873  -0.398748  6.092327
H    -2.137441  -0.065627  6.103256
H    0.044221  2.022007  6.675561
H    -0.845388  1.134379  7.911383
H    -2.991030  2.114981  7.109174
H    -2.114441  3.056520  5.890563
H    -0.913320  4.090099  7.783601
H    -2.523432  4.289986  7.974318
N    -3.685270  -0.809582  3.557781
C    -4.151021  0.563297  3.415629
H    -4.383269  -1.499370  3.823894
H    -4.218882  1.089516  4.381489
H    -5.147867  0.549699  2.959010
H    -3.491396  1.138879  2.757760
