33
Energy: -18209.1452165 eV PBE+vdW (tier 2 basis)
C    -0.690458  0.127488  -0.346766
C    -0.625486  -0.380769  1.083284
O    -0.366630  -1.548444  1.357467
H    -1.014677  1.172283  -0.435093
H    -1.375347  -0.510919  -0.917768
H    0.303637  0.026756  -0.800623
N    -0.881821  0.553709  2.051422
C    -0.792842  0.253865  3.471757
C    -1.857954  -0.700337  4.058698
O    -1.544160  -1.392463  5.024685
H    -1.082494  1.505423  1.769109
H    0.140104  -0.303797  3.642161
C    -0.761033  1.549433  4.298128
C    0.512004  2.379652  4.101013
C    0.556947  3.670903  4.930711
C    0.497072  3.474377  6.449343
N    1.627630  2.671476  6.934038
H    -0.861080  1.252946  5.351261
H    -1.654294  2.157884  4.068048
H    0.630685  2.646049  3.038888
H    1.387178  1.754291  4.340154
H    -0.278219  4.327194  4.633680
H    1.486432  4.208007  4.689245
H    -0.492907  3.065845  6.734881
H    0.567061  4.463053  6.925680
H    1.507624  1.687732  6.689416
H    1.673020  2.703430  7.952082
N    -3.132068  -0.729853  3.565002
C    -3.766729  0.027730  2.500066
H    -3.701100  -1.419920  4.045259
H    -4.852261  -0.081031  2.608844
H    -3.486425  -0.327747  1.497713
H    -3.539938  1.099019  2.569434
