33
Energy: -18209.4967113 eV PBE+vdW (tier 2 basis)
C    -0.028013  2.850987  2.046153
C    -0.491021  1.723407  2.946275
O    -0.594395  1.868337  4.168995
H    0.970588  3.173056  2.366470
H    -0.704800  3.704285  2.178268
H    0.004989  2.583470  0.982888
N    -0.793414  0.549561  2.321342
C    -1.269245  -0.633173  3.041910
C    -0.060782  -1.396924  3.646076
O    0.436413  -2.385835  3.107283
H    -0.579173  0.449386  1.335219
H    -1.896002  -0.252635  3.861064
C    -2.099796  -1.512586  2.108792
C    -2.762958  -2.727808  2.778682
C    -3.619741  -2.479552  4.030439
C    -4.897842  -1.652841  3.847843
N    -4.641199  -0.205968  3.740333
H    -1.445334  -1.887347  1.305845
H    -2.855383  -0.871983  1.627070
H    -1.969347  -3.442151  3.039406
H    -3.383519  -3.230071  2.018611
H    -3.019067  -2.014931  4.828169
H    -3.917644  -3.468061  4.414938
H    -5.524247  -1.795489  4.740270
H    -5.475967  -2.062822  2.994853
H    -5.491363  0.319555  3.940379
H    -4.364750  0.052644  2.793694
N    0.381635  -0.845408  4.807678
C    1.579838  -1.308794  5.478967
H    -0.003744  0.072338  5.042071
H    1.811022  -2.313975  5.111032
H    1.418958  -1.346971  6.563970
H    2.442301  -0.655703  5.274013
