33
Energy: -18209.0126635 eV PBE+vdW (tier 2 basis)
C    0.376716  0.664862  0.288769
C    -0.026768  0.821658  1.745601
O    0.486241  1.657557  2.483772
H    -0.404471  0.216364  -0.338379
H    1.266758  0.020824  0.238772
H    0.650367  1.645909  -0.111658
N    -0.987627  -0.057011  2.165923
C    -1.442863  -0.250524  3.544651
C    -1.439979  1.041964  4.400426
O    -0.888356  1.083203  5.494946
H    -1.312247  -0.741367  1.492482
H    -2.512564  -0.515629  3.456811
C    -0.778444  -1.442661  4.262433
C    0.723725  -1.407502  4.597791
C    1.748296  -1.460684  3.454634
C    1.568441  -2.594412  2.448240
N    2.746456  -2.691353  1.573975
H    -1.012465  -2.342664  3.669409
H    -1.322252  -1.561808  5.211010
H    0.904821  -2.274306  5.254770
H    0.920194  -0.517301  5.207142
H    2.746301  -1.575401  3.905309
H    1.776394  -0.496030  2.926661
H    0.621389  -2.454166  1.889205
H    1.472016  -3.552805  2.985134
H    2.927225  -1.793667  1.121513
H    2.593973  -3.370276  0.828103
N    -2.220558  2.082920  3.971190
C    -2.892226  2.269068  2.699965
H    -2.119081  2.898675  4.567262
H    -3.680149  3.021110  2.827537
H    -2.212475  2.608865  1.902306
H    -3.375666  1.340944  2.371472
