33
Energy: -18209.2848288 eV PBE+vdW (tier 2 basis)
C    0.060905  0.027299  0.635732
C    -0.570320  -0.012826  2.014045
O    -0.801938  1.009706  2.657420
H    -0.599332  0.590023  -0.036023
H    0.246784  -0.963859  0.203625
H    1.008637  0.576030  0.696467
N    -0.846008  -1.264947  2.496458
C    -1.539591  -1.489098  3.759994
C    -0.732407  -2.452628  4.659091
O    -1.174825  -3.546035  5.011412
H    -0.667100  -2.064482  1.900577
H    -1.554242  -0.498947  4.241474
C    -2.995849  -1.945518  3.573389
C    -3.211328  -3.126747  2.618627
C    -4.672402  -3.587394  2.526483
C    -5.186832  -4.307255  3.773430
N    -6.560839  -4.785937  3.557458
H    -3.566756  -1.076827  3.209179
H    -3.385846  -2.191606  4.570234
H    -2.582411  -3.972411  2.935077
H    -2.881784  -2.838578  1.607209
H    -4.792171  -4.270335  1.672163
H    -5.319659  -2.717353  2.314396
H    -5.083267  -3.651312  4.658903
H    -4.552270  -5.186180  3.964901
H    -6.885479  -5.309647  4.370613
H    -7.197292  -3.993187  3.457018
N    0.503141  -2.032208  5.064812
C    1.195690  -0.786018  4.783017
H    0.988791  -2.729442  5.621139
H    1.831431  -0.529646  5.639169
H    0.488824  0.037261  4.630930
H    1.830501  -0.854738  3.885525
