33
Energy: -18209.1311364 eV PBE+vdW (tier 2 basis)
C    0.294522  -1.473916  -0.088079
C    -0.051865  -0.206203  0.675035
O    0.118059  0.906417  0.176325
H    -0.321680  -1.513704  -0.995183
H    0.146862  -2.398196  0.483644
H    1.342233  -1.414104  -0.406625
N    -0.538081  -0.413163  1.936351
C    -1.026932  0.594705  2.887814
C    -2.538473  0.873791  2.637934
O    -3.350852  0.136987  3.204833
H    -0.742210  -1.372316  2.190022
H    -1.079210  0.056543  3.844560
C    -0.073053  1.776663  3.103853
C    -0.528964  2.671442  4.262379
C    0.406077  3.858330  4.532881
C    0.363031  4.958446  3.459470
N    1.218219  6.126073  3.689463
H    0.064056  2.349655  2.183157
H    0.915158  1.350448  3.340439
H    -0.613741  2.060887  5.175723
H    -1.546000  3.052166  4.067908
H    1.443621  3.496926  4.638647
H    0.140241  4.311004  5.502294
H    -0.674201  5.318920  3.358492
H    0.634991  4.543166  2.477382
H    1.012204  6.545285  4.597748
H    2.200045  5.847525  3.718647
N    -2.969655  1.865933  1.810688
C    -2.250405  2.857654  1.021025
H    -3.984854  1.900992  1.782709
H    -1.345208  2.425039  0.581555
H    -1.987898  3.749519  1.611346
H    -2.903856  3.176017  0.200509
