33
Energy: -18209.1179841 eV PBE+vdW (tier 2 basis)
C    0.724342  -2.247251  0.352679
C    0.439243  -0.797357  0.683152
O    1.126774  0.119581  0.236786
H    -0.176826  -2.839676  0.160177
H    1.250901  -2.726666  1.190265
H    1.378645  -2.265233  -0.522993
N    -0.599251  -0.507342  1.541012
C    -1.603820  -1.370174  2.170332
C    -0.966522  -2.567176  2.916375
O    -1.208910  -3.733407  2.612599
H    -0.698202  0.493000  1.687400
H    -2.054813  -0.735732  2.949898
C    -2.723209  -1.812047  1.215096
C    -3.998134  -2.325609  1.904849
C    -4.663785  -1.357476  2.893334
C    -5.098272  -0.022563  2.289653
N    -5.706013  0.833082  3.316451
H    -2.341637  -2.602874  0.555705
H    -2.953979  -0.948952  0.573636
H    -3.766554  -3.265420  2.424216
H    -4.721076  -2.585925  1.115298
H    -4.008683  -1.154100  3.755874
H    -5.550390  -1.857395  3.317871
H    -5.755943  -0.221277  1.418618
H    -4.223072  0.517440  1.895350
H    -6.560158  0.402918  3.674898
H    -5.981202  1.731569  2.919628
N    -0.121745  -2.266141  3.947511
C    0.282355  -0.962511  4.448284
H    0.284787  -3.089644  4.379923
H    0.714620  -1.093945  5.446375
H    -0.579508  -0.289430  4.551763
H    1.027429  -0.474588  3.803646
