33
Energy: -18209.5107677 eV PBE+vdW (tier 2 basis)
C    -2.190262  3.288628  4.100360
C    -1.660819  1.942169  4.558865
O    -1.721147  1.578592  5.734451
H    -1.692003  4.077536  4.677101
H    -3.261797  3.343052  4.330239
H    -2.044681  3.477586  3.029816
N    -1.127849  1.159805  3.577102
C    -0.498044  -0.112923  3.857901
C    0.485889  -0.380382  2.704929
O    0.469660  0.289450  1.670737
H    -0.963811  1.513905  2.636332
H    0.059750  -0.017441  4.804547
C    -1.524808  -1.258771  4.031761
C    -2.330461  -1.577243  2.770569
C    -3.385097  -2.673494  2.965475
C    -4.538113  -2.284843  3.892250
N    -5.518682  -3.374582  3.975749
H    -2.181771  -0.956563  4.858577
H    -0.997544  -2.164197  4.376069
H    -1.644379  -1.884779  1.965651
H    -2.819555  -0.656694  2.413388
H    -2.918223  -3.594243  3.350659
H    -3.804103  -2.935924  1.979483
H    -4.964102  -1.320860  3.545592
H    -4.161020  -2.107919  4.910361
H    -5.977273  -3.509054  3.073227
H    -6.255286  -3.143895  4.642316
N    1.342132  -1.416065  2.911260
C    2.306978  -1.855345  1.920615
H    1.297395  -1.903651  3.798127
H    3.333997  -1.768789  2.301345
H    2.197882  -1.208985  1.043861
H    2.124147  -2.897082  1.622284
