33
Energy: -18209.3300686 eV PBE+vdW (tier 2 basis)
C    0.430978  -0.072168  0.255652
C    0.197310  -0.098657  1.754972
O    1.079966  -0.411298  2.551153
H    -0.438897  0.261112  -0.324161
H    0.710410  -1.081476  -0.071627
H    1.279240  0.589219  0.041668
N    -1.063983  0.250177  2.159322
C    -1.458089  0.209324  3.567144
C    -2.929939  -0.234071  3.657191
O    -3.245589  -1.388657  3.925015
H    -1.762283  0.477801  1.461872
H    -0.881951  -0.608880  4.015990
C    -1.122868  1.520709  4.299363
C    -1.415948  1.504807  5.804910
C    -0.696529  0.398788  6.595430
C    0.825182  0.359812  6.419696
N    1.435388  1.653818  6.761588
H    -1.652968  2.365522  3.825386
H    -0.055596  1.721809  4.131382
H    -2.500322  1.408295  5.977613
H    -1.120697  2.482300  6.210641
H    -1.100443  -0.590382  6.329308
H    -0.933170  0.533231  7.664381
H    1.078576  0.142129  5.371397
H    1.219149  -0.488442  7.012085
H    1.382230  1.818937  7.767950
H    2.425826  1.653913  6.520105
N    -3.844995  0.742487  3.363933
C    -5.276013  0.509649  3.432674
H    -3.513690  1.699313  3.314770
H    -5.785767  1.007509  2.598235
H    -5.705957  0.870419  4.379464
H    -5.442536  -0.570631  3.369106
