33
Energy: -18209.5238361 eV PBE+vdW (tier 2 basis)
C    0.622368  0.534301  0.064417
C    0.206257  0.179580  1.477565
O    0.985257  0.267669  2.433303
H    1.488911  -0.078887  -0.212099
H    0.945081  1.582822  0.044583
H    -0.172951  0.389395  -0.676477
N    -1.079355  -0.234728  1.631929
C    -1.593773  -0.637240  2.922197
C    -2.902610  -1.395391  2.662274
O    -3.473942  -1.347496  1.571783
H    -1.721334  -0.357228  0.850696
H    -0.860163  -1.321416  3.382077
C    -1.791438  0.564220  3.891881
C    -1.274459  0.290054  5.306326
C    -1.068896  1.549668  6.156115
C    -0.040747  2.553537  5.584835
N    1.284941  2.047267  5.240260
H    -2.848785  0.869787  3.909679
H    -1.233989  1.403205  3.459607
H    -0.310767  -0.237858  5.221011
H    -1.955214  -0.392859  5.843201
H    -0.738799  1.240403  7.161650
H    -2.029163  2.075006  6.298551
H    0.076881  3.366849  6.318844
H    -0.448683  3.033854  4.682503
H    1.257880  1.427533  4.427173
H    1.697676  1.525369  6.013577
N    -3.379827  -2.087586  3.731064
C    -4.644447  -2.799042  3.712920
H    -2.836937  -2.076903  4.586736
H    -4.502033  -3.862022  3.950156
H    -5.058974  -2.712187  2.703525
H    -5.356877  -2.366130  4.429283
