33
Energy: -18209.5129092 eV PBE+vdW (tier 2 basis)
C    -3.320042  0.455811  -0.333561
C    -2.101639  0.167243  0.524483
O    -0.974317  0.557676  0.217814
H    -3.447799  1.543013  -0.410133
H    -4.246296  0.015058  0.054980
H    -3.136135  0.076165  -1.346070
N    -2.347167  -0.535857  1.667495
C    -1.280748  -0.984100  2.539382
C    -1.819258  -2.213128  3.291060
O    -3.017667  -2.512389  3.274953
H    -3.244174  -0.990104  1.830775
H    -0.432628  -1.283992  1.901937
C    -0.757714  0.120543  3.508577
C    -1.499556  0.279089  4.840757
C    -2.982700  0.666904  4.753742
C    -3.765020  0.315240  6.021757
N    -3.724210  -1.134899  6.268370
H    -0.753570  1.057939  2.934665
H    0.301684  -0.094962  3.722207
H    -0.966759  1.034394  5.440616
H    -1.428844  -0.657251  5.413766
H    -3.464613  0.154460  3.908769
H    -3.086209  1.743280  4.547726
H    -4.791447  0.718439  5.923198
H    -3.311907  0.816983  6.893006
H    -4.319509  -1.382083  7.057983
H    -4.075925  -1.642609  5.453350
N    -0.901191  -2.921938  3.991099
C    -1.293544  -3.969300  4.921623
H    0.049706  -2.574777  4.024883
H    -1.808652  -3.547925  5.798061
H    -0.398463  -4.508997  5.247434
H    -1.973689  -4.670925  4.425295
