33
Energy: -18209.2290375 eV PBE+vdW (tier 2 basis)
C    -0.171271  0.105411  -0.155122
C    -0.014807  0.144081  1.354804
O    1.086720  0.197209  1.896003
H    0.829952  0.090704  -0.592964
H    -0.706717  0.989230  -0.530545
H    -0.722972  -0.784059  -0.488253
N    -1.163139  0.137165  2.109057
C    -2.543287  -0.021962  1.660823
C    -3.470386  0.886269  2.507128
O    -4.405744  0.436970  3.169960
H    -0.983660  0.098064  3.109297
H    -2.595013  0.362342  0.630160
C    -3.033199  -1.478783  1.652380
C    -2.766333  -2.256127  2.947545
C    -3.562289  -3.562595  3.057036
C    -5.094769  -3.385260  3.118029
N    -5.626408  -2.487458  4.142180
H    -2.552479  -1.998194  0.808399
H    -4.109702  -1.455951  1.434227
H    -3.015743  -1.623063  3.812431
H    -1.692214  -2.481614  3.025003
H    -3.232735  -4.094694  3.964700
H    -3.317903  -4.226878  2.209432
H    -5.549996  -4.378451  3.257738
H    -5.469737  -3.026544  2.146947
H    -5.293715  -2.754850  5.069443
H    -5.320396  -1.526142  3.975891
N    -3.210998  2.226307  2.484998
C    -2.221892  2.960396  1.711581
H    -3.842692  2.758564  3.075122
H    -2.515669  4.015535  1.689811
H    -2.186027  2.609284  0.671570
H    -1.211826  2.884953  2.137144
