33
Energy: -18209.0567131 eV PBE+vdW (tier 2 basis)
C    0.281683  0.976605  0.046470
C    0.066083  1.567412  1.429024
O    0.987958  2.030885  2.093751
H    -0.642741  0.839397  -0.528470
H    0.769071  -0.001593  0.158608
H    0.965732  1.624773  -0.512115
N    -1.231272  1.541728  1.870167
C    -1.679725  1.900157  3.218394
C    -0.905849  3.094316  3.838877
O    -0.419149  3.019653  4.962116
H    -1.910765  1.074211  1.281242
H    -2.713499  2.269876  3.093337
C    -1.743326  0.707970  4.189852
C    -0.435751  -0.083746  4.392004
C    -0.245855  -1.286852  3.455655
C    -1.131877  -2.485302  3.793006
N    -0.982303  -3.542994  2.782990
H    -2.544313  0.036138  3.839713
H    -2.080754  1.113789  5.152445
H    -0.408771  -0.443190  5.432487
H    0.415813  0.600114  4.297163
H    0.808868  -1.605759  3.500552
H    -0.432019  -1.008831  2.408044
H    -2.191049  -2.182093  3.792388
H    -0.904197  -2.816174  4.826529
H    -1.573228  -4.342729  3.011506
H    -0.021424  -3.889922  2.780184
N    -0.922592  4.283826  3.160411
C    -1.379622  4.574452  1.815461
H    -0.351289  4.986473  3.619489
H    -1.564105  5.652571  1.734860
H    -2.326026  4.062984  1.602413
H    -0.648205  4.287939  1.043013
