33
Energy: -18209.1986115 eV PBE+vdW (tier 2 basis)
C    0.216528  0.337102  2.869068
C    -0.794416  1.427141  2.559465
O    -0.539946  2.612152  2.763559
H    0.258437  -0.460076  2.117191
H    -0.018380  -0.129842  3.835465
H    1.198263  0.811941  2.948232
N    -2.018151  1.059273  2.053297
C    -2.583528  -0.266310  1.804876
C    -3.221394  -0.223160  0.397342
O    -4.409502  0.048212  0.239025
H    -2.648327  1.849052  1.924734
H    -1.754043  -0.984191  1.808227
C    -3.630823  -0.678418  2.851039
C    -3.078720  -0.846526  4.270132
C    -2.232031  -2.108778  4.474790
C    -1.555003  -2.187138  5.844356
N    -2.537644  -2.278914  6.931992
H    -4.097556  -1.618067  2.515831
H    -4.433842  0.071183  2.835192
H    -3.934126  -0.874384  4.961800
H    -2.496552  0.048659  4.548394
H    -1.443475  -2.167797  3.706731
H    -2.867708  -2.998562  4.342743
H    -0.857512  -1.329114  5.948853
H    -0.937416  -3.096314  5.883487
H    -2.071904  -2.488994  7.814279
H    -3.013662  -1.386707  7.067286
N    -2.398077  -0.464044  -0.666949
C    -0.956523  -0.648091  -0.664820
H    -2.858937  -0.334565  -1.562421
H    -0.634021  -0.852759  -1.691058
H    -0.656065  -1.510034  -0.052305
H    -0.419532  0.244145  -0.309720
