33
Energy: -18209.4207401 eV PBE+vdW (tier 2 basis)
C    0.816172  -0.274477  -0.611235
C    -0.010292  0.630080  0.284284
O    -0.621964  1.606482  -0.152433
H    0.158087  -0.715631  -1.370521
H    1.326921  -1.080771  -0.070711
H    1.560253  0.335441  -1.138017
N    -0.043621  0.275025  1.600608
C    -0.706186  1.094029  2.596414
C    0.022994  0.833605  3.923945
O    0.751172  -0.155290  4.065505
H    0.578880  -0.435801  1.979638
H    -0.575621  2.144244  2.289227
C    -2.240554  0.831216  2.691208
C    -2.687123  -0.295001  3.628971
C    -2.248999  -1.710363  3.231149
C    -2.404006  -2.728799  4.362472
N    -1.578458  -2.344712  5.516972
H    -2.583633  0.652602  1.662156
H    -2.727566  1.765836  3.005229
H    -3.787092  -0.269723  3.694846
H    -2.326049  -0.097427  4.649834
H    -1.193528  -1.709855  2.921969
H    -2.819785  -2.051073  2.353227
H    -2.168817  -3.734365  3.962128
H    -3.454552  -2.760977  4.696434
H    -0.602424  -2.237158  5.232736
H    -1.604955  -3.065922  6.236673
N    -0.166611  1.713780  4.941805
C    -1.015050  2.891836  4.976906
H    0.268357  1.415812  5.809957
H    -0.616744  3.593941  5.718401
H    -2.055474  2.653630  5.246557
H    -1.013535  3.399915  4.005736
