33
Energy: -18209.4996226 eV PBE+vdW (tier 2 basis)
C    0.041461  0.182566  0.141219
C    0.023093  -0.047587  1.637750
O    1.067133  -0.083787  2.302971
H    -0.953283  0.167798  -0.320567
H    0.668189  -0.585216  -0.328782
H    0.511098  1.154216  -0.057380
N    -1.203826  -0.211063  2.200429
C    -1.433698  -0.347074  3.639805
C    -1.207562  -1.805672  4.143258
O    -2.094782  -2.463119  4.687275
H    -2.016699  -0.238028  1.596279
H    -0.659534  0.267468  4.126344
C    -2.814237  0.189209  4.029680
C    -4.002710  -0.381124  3.241224
C    -5.365884  0.030936  3.813836
C    -5.712555  -0.642869  5.142650
N    -7.035199  -0.202539  5.607715
H    -2.801954  1.286098  3.931995
H    -2.943933  -0.035216  5.096224
H    -3.931818  -1.478639  3.220056
H    -3.963482  -0.033694  2.194207
H    -6.148647  -0.224641  3.080074
H    -5.417231  1.123809  3.945110
H    -4.983577  -0.354368  5.914068
H    -5.616111  -1.739704  5.022210
H    -7.763159  -0.546268  4.979049
H    -7.239407  -0.598622  6.525209
N    0.062830  -2.241570  3.946559
C    0.502310  -3.570462  4.320275
H    0.712137  -1.591417  3.492244
H    1.346036  -3.522490  5.022898
H    0.813865  -4.150583  3.439458
H    -0.335847  -4.082235  4.805036
