33
Energy: -18209.348979 eV PBE+vdW (tier 2 basis)
C    0.241110  -0.088767  1.889975
C    -0.516684  -0.308045  3.185695
O    0.060222  -0.497022  4.262346
H    -0.036481  0.860114  1.410162
H    0.027488  -0.886458  1.163725
H    1.311090  -0.086420  2.112567
N    -1.879953  -0.285803  3.126533
C    -2.725000  -0.209304  1.950020
C    -2.853627  1.192966  1.310542
O    -2.888887  1.294626  0.083711
H    -2.354969  -0.498820  4.019052
H    -2.297487  -0.809165  1.131315
C    -4.124514  -0.774033  2.268828
C    -4.214602  -2.306955  2.365777
C    -3.481910  -3.044588  3.502240
C    -3.893167  -2.672385  4.935922
N    -3.151684  -1.502863  5.449344
H    -4.796354  -0.452481  1.460362
H    -4.503274  -0.305491  3.190666
H    -3.870573  -2.728526  1.407228
H    -5.284681  -2.564598  2.433259
H    -2.391096  -2.935124  3.401422
H    -3.683024  -4.118044  3.365116
H    -3.769392  -3.557890  5.584531
H    -4.965231  -2.421357  4.955926
H    -3.573284  -1.160243  6.312622
H    -2.189783  -1.762481  5.683209
N    -2.943104  2.298724  2.108057
C    -2.983953  2.423714  3.558869
H    -3.009995  3.153791  1.564866
H    -3.662015  1.691513  4.013502
H    -3.368926  3.421492  3.800193
H    -1.994189  2.309265  4.021709
