33
Energy: -18209.5541281 eV PBE+vdW (tier 2 basis)
C    1.981290  0.271591  2.085987
C    0.484768  0.274097  2.316077
O    -0.313798  0.554422  1.413946
H    2.289866  1.267589  1.745050
H    2.210264  -0.435358  1.278816
H    2.564448  -0.000715  2.974138
N    0.072588  -0.055667  3.572009
C    -1.339168  -0.137972  3.947309
C    -1.872178  1.264289  4.349768
O    -2.084167  1.584608  5.517695
H    0.766719  -0.186724  4.299302
H    -1.869479  -0.442834  3.033406
C    -1.556672  -1.163006  5.058400
C    -1.114914  -2.591520  4.715340
C    -1.821801  -3.211324  3.506803
C    -1.474006  -4.691679  3.267811
N    -1.892505  -5.658446  4.286639
H    -2.628447  -1.153670  5.305540
H    -1.050167  -0.811096  5.970231
H    -1.296227  -3.213730  5.606432
H    -0.025281  -2.623541  4.545244
H    -1.564695  -2.650546  2.592863
H    -2.915247  -3.115001  3.628367
H    -0.383484  -4.793652  3.144083
H    -1.916145  -5.009363  2.311486
H    -2.901485  -5.609719  4.435402
H    -1.454924  -5.459344  5.186215
N    -2.064418  2.077530  3.276179
C    -2.453817  3.467176  3.410024
H    -1.741168  1.725315  2.372422
H    -3.277150  3.705358  2.723771
H    -1.613936  4.146861  3.200229
H    -2.785668  3.629070  4.441018
