33
Energy: -18209.3038734 eV PBE+vdW (tier 2 basis)
C    -1.057342  -1.197925  -0.010703
C    -0.593057  -0.676566  1.333904
O    0.553707  -0.855956  1.734634
H    -0.481035  -2.099980  -0.238428
H    -0.824893  -0.449475  -0.781211
H    -2.129222  -1.418433  -0.062983
N    -1.498533  0.003875  2.127972
C    -2.840576  0.505606  1.812863
C    -3.919340  -0.606264  1.713559
O    -4.991846  -0.401762  1.150494
H    -1.048987  0.386049  2.955110
H    -3.134990  1.075596  2.710533
C    -2.924416  1.477128  0.625116
C    -2.030050  2.707551  0.789702
C    -2.045247  3.654394  -0.416368
C    -3.398389  4.310974  -0.693115
N    -3.294390  5.240345  -1.824379
H    -3.980633  1.759408  0.533020
H    -2.675556  0.954489  -0.310193
H    -0.991789  2.386735  0.966783
H    -2.334784  3.261191  1.695570
H    -1.721620  3.119738  -1.323545
H    -1.297565  4.447829  -0.249678
H    -3.766489  4.779860  0.243321
H    -4.138074  3.544706  -0.968391
H    -4.208420  5.628047  -2.057099
H    -2.696722  6.031856  -1.581363
N    -3.601581  -1.769111  2.343871
C    -4.500979  -2.903735  2.399385
H    -2.675320  -1.834568  2.752033
H    -4.735017  -3.173548  3.438562
H    -4.069115  -3.780019  1.895529
H    -5.426736  -2.618995  1.887925
