33
Energy: -18209.5906666 eV PBE+vdW (tier 2 basis)
C    0.310591  0.481073  0.356909
C    0.130906  0.617502  1.858944
O    1.092603  0.822068  2.604988
H    -0.392393  1.107692  -0.208203
H    0.159842  -0.560053  0.036181
H    1.335873  0.772022  0.113675
N    -1.140771  0.530508  2.366383
C    -2.318654  -0.002368  1.694618
C    -3.470496  1.024360  1.560088
O    -4.563355  0.688053  1.106858
H    -1.151953  0.516459  3.407123
H    -2.047228  -0.246988  0.658188
C    -2.838627  -1.293354  2.356275
C    -3.250047  -1.143242  3.840514
C    -2.383112  -1.914667  4.848812
C    -0.904151  -1.518059  4.911264
N    -0.739379  -0.078874  5.166979
H    -2.062062  -2.065703  2.246847
H    -3.699883  -1.622685  1.762319
H    -4.287154  -1.485018  3.957123
H    -3.267108  -0.078917  4.121297
H    -2.434547  -2.993532  4.629524
H    -2.825061  -1.794146  5.852499
H    -0.414292  -1.728558  3.948261
H    -0.397252  -2.155248  5.658523
H    -1.055320  0.169489  6.104817
H    0.239843  0.197436  5.078166
N    -3.161817  2.286985  1.955416
C    -4.097155  3.388777  1.871468
H    -2.219054  2.432631  2.303725
H    -3.736203  4.169535  1.186829
H    -4.269984  3.838502  2.859136
H    -5.043836  2.991244  1.489056
