33
Energy: -18209.4195713 eV PBE+vdW (tier 2 basis)
C    -3.216339  0.801571  -0.230871
C    -1.772105  0.734120  0.227197
O    -0.827816  0.952398  -0.526223
H    -3.684727  -0.192992  -0.202654
H    -3.227376  1.165316  -1.261289
H    -3.819523  1.468062  0.400577
N    -1.553707  0.428845  1.554284
C    -2.530963  0.044676  2.562856
C    -3.093436  1.213952  3.403927
O    -3.992251  1.010463  4.218265
H    -0.568250  0.316223  1.781855
H    -3.411539  -0.374563  2.056041
C    -1.956884  -1.031999  3.498635
C    -1.648563  -2.373194  2.818999
C    -2.843426  -3.067850  2.146721
C    -4.050086  -3.324954  3.054612
N    -3.702724  -4.212685  4.174623
H    -2.682431  -1.158025  4.313510
H    -1.040099  -0.636780  3.968152
H    -1.215235  -3.046839  3.574323
H    -0.858049  -2.238062  2.064411
H    -2.498056  -4.031925  1.744722
H    -3.181328  -2.477305  1.278994
H    -4.823440  -3.834125  2.461431
H    -4.491940  -2.361273  3.376493
H    -3.142140  -3.716553  4.868541
H    -4.548365  -4.509664  4.661116
N    -2.532665  2.428595  3.167890
C    -2.946101  3.633498  3.858744
H    -1.810711  2.471437  2.456252
H    -3.340690  4.379995  3.155387
H    -2.109499  4.079052  4.414583
H    -3.736192  3.355842  4.564920
