33
Energy: -18209.4352632 eV PBE+vdW (tier 2 basis)
C    -2.298209  0.559083  -0.133718
C    -1.521302  0.411795  1.161670
O    -0.566240  1.129510  1.437781
H    -1.593251  0.549225  -0.973413
H    -2.792755  1.539062  -0.136020
H    -3.055208  -0.219993  -0.289297
N    -1.956985  -0.597372  1.993391
C    -1.453074  -0.759609  3.351758
C    -0.713316  -2.095865  3.589224
O    -0.448944  -2.473520  4.728677
H    -2.829335  -1.058227  1.757624
H    -0.683661  0.022017  3.458760
C    -2.540927  -0.536043  4.413591
C    -3.732273  -1.494576  4.309600
C    -4.750564  -1.362000  5.451532
C    -5.399332  0.018363  5.593852
N    -6.113439  0.412767  4.368768
H    -2.868794  0.511792  4.339353
H    -2.060631  -0.656242  5.394308
H    -3.358601  -2.530213  4.300376
H    -4.265602  -1.353700  3.352976
H    -4.256295  -1.612629  6.403857
H    -5.547351  -2.105209  5.297738
H    -4.639731  0.756429  5.917399
H    -6.141030  -0.032009  6.403910
H    -5.453584  0.701734  3.645465
H    -6.701019  1.226053  4.550941
N    -0.362696  -2.777822  2.464991
C    0.436728  -3.985693  2.500666
H    -0.586054  -2.344891  1.576021
H    1.445556  -3.813862  2.097749
H    -0.041872  -4.790980  1.927210
H    0.524791  -4.293374  3.548261
