33
Energy: -18209.3068656 eV PBE+vdW (tier 2 basis)
C    -0.246910  0.535388  -0.098453
C    -0.495031  0.628022  1.396205
O    -0.237378  1.638548  2.044325
H    -0.761995  1.366987  -0.594046
H    -0.577648  -0.409752  -0.547149
H    0.827865  0.658944  -0.282068
N    -1.030015  -0.495245  1.973480
C    -1.229282  -0.595544  3.419481
C    -1.032254  -2.054811  3.864024
O    -0.073640  -2.407149  4.542574
H    -1.159549  -1.325046  1.407123
H    -0.415320  -0.029661  3.888324
C    -2.577861  0.008020  3.861605
C    -2.849697  -0.090281  5.367782
C    -1.824067  0.631205  6.249969
C    -2.216077  0.634505  7.734728
N    -1.280921  1.283253  8.657472
H    -3.397684  -0.472245  3.299724
H    -2.573938  1.061847  3.546344
H    -2.904351  -1.150324  5.669630
H    -3.850871  0.327354  5.562377
H    -1.705381  1.671693  5.902581
H    -0.835533  0.155565  6.149735
H    -2.354090  -0.403829  8.077159
H    -3.196658  1.123850  7.853609
H    -1.131856  2.256132  8.384958
H    -0.366438  0.831280  8.608956
N    -1.989731  -2.927714  3.414620
C    -1.988063  -4.331921  3.785925
H    -2.841248  -2.537240  3.026136
H    -0.958319  -4.617579  4.023667
H    -2.353954  -4.943956  2.952596
H    -2.611105  -4.525294  4.672608
