33
Energy: -18209.412919 eV PBE+vdW (tier 2 basis)
C    -0.346540  1.834475  0.543984
C    -0.290145  0.541884  1.336062
O    0.771929  -0.025107  1.588861
H    -1.365457  2.203466  0.374882
H    0.145994  1.676307  -0.423190
H    0.226178  2.601324  1.080692
N    -1.501373  0.073600  1.771650
C    -1.640235  -1.224615  2.402725
C    -2.811886  -1.941694  1.719988
O    -3.737003  -1.301276  1.214783
H    -2.364236  0.441796  1.376148
H    -0.688656  -1.753663  2.244840
C    -1.917531  -1.114899  3.920244
C    -0.761211  -0.485147  4.699613
C    -1.022652  -0.340743  6.205814
C    -2.211786  0.549345  6.580359
N    -2.028382  1.923628  6.093995
H    -2.132111  -2.118843  4.321770
H    -2.844274  -0.533002  4.045632
H    -0.520253  0.498776  4.270075
H    0.145761  -1.089919  4.548856
H    -0.119045  0.074014  6.677294
H    -1.185468  -1.337309  6.649242
H    -2.279049  0.594806  7.677287
H    -3.153614  0.077820  6.233969
H    -2.082586  1.955625  5.075081
H    -2.777091  2.524477  6.437928
N    -2.808289  -3.303428  1.734655
C    -1.763972  -4.189180  2.225603
H    -3.635728  -3.717792  1.317735
H    -2.009785  -5.212399  1.923312
H    -1.678945  -4.172024  3.322386
H    -0.784427  -3.939741  1.796069
