33
Energy: -18209.4993639 eV PBE+vdW (tier 2 basis)
C    -0.411689  0.345911  0.218892
C    -0.089560  0.282406  1.698812
O    1.048900  0.531692  2.117685
H    -0.116292  1.329497  -0.165488
H    -1.468125  0.169001  -0.016180
H    0.196968  -0.404473  -0.301881
N    -1.125074  -0.057418  2.513032
C    -1.075149  -0.333352  3.958129
C    -0.866907  0.900090  4.871603
O    -1.588613  1.049447  5.859071
H    -2.021419  -0.210476  2.068444
H    -2.089138  -0.661901  4.215032
C    -0.083291  -1.453352  4.336612
C    -0.298435  -2.779348  3.594089
C    -1.700152  -3.393725  3.702691
C    -2.155662  -3.698291  5.130065
N    -3.483471  -4.324319  5.119536
H    -0.180708  -1.597088  5.422870
H    0.942990  -1.106729  4.158555
H    0.443673  -3.499247  3.974864
H    -0.054410  -2.640803  2.529630
H    -1.713443  -4.330203  3.120285
H    -2.455992  -2.746254  3.229659
H    -2.241825  -2.764640  5.706006
H    -1.374743  -4.304367  5.634091
H    -3.433767  -5.260053  4.713871
H    -3.834596  -4.438631  6.070061
N    0.155426  1.720883  4.528578
C    0.508259  2.888910  5.309803
H    0.720291  1.449902  3.715545
H    0.568309  3.780475  4.670814
H    1.475968  2.756045  5.816288
H    -0.266369  3.039571  6.069249
