33
Energy: -18209.4861276 eV PBE+vdW (tier 2 basis)
C    -0.898487  -1.839592  -0.206304
C    -0.798501  -0.665614  0.748142
O    0.271569  -0.107789  0.986357
H    -0.589637  -1.504001  -1.204530
H    -1.904925  -2.270887  -0.271241
H    -0.191412  -2.614771  0.112473
N    -1.986878  -0.256219  1.294196
C    -2.050848  0.770007  2.315716
C    -2.744038  0.173589  3.549958
O    -3.656495  -0.645596  3.436891
H    -2.801403  -0.861385  1.235071
H    -1.007663  1.036432  2.540869
C    -2.832933  2.022006  1.852354
C    -2.296707  2.682752  0.578282
C    -0.871137  3.236113  0.686618
C    -0.479442  4.139518  -0.484882
N    -0.471625  3.408045  -1.759940
H    -2.828799  2.751162  2.679226
H    -3.883805  1.729139  1.701646
H    -2.987451  3.502099  0.314603
H    -2.349875  1.954325  -0.245648
H    -0.150236  2.408013  0.752637
H    -0.780292  3.826854  1.614755
H    0.541536  4.512035  -0.316439
H    -1.143812  5.029406  -0.489926
H    -1.423276  3.194086  -2.059291
H    -0.064582  3.984220  -2.496128
N    -2.303795  0.654360  4.744837
C    -2.882973  0.264795  6.016773
H    -1.509580  1.283138  4.738621
H    -3.716986  -0.412184  5.804476
H    -3.260327  1.138931  6.565219
H    -2.150185  -0.260988  6.644612
