33
Energy: -18209.5243271 eV PBE+vdW (tier 2 basis)
C    0.083111  -0.232374  -0.619062
C    -0.140612  -0.346075  0.873707
O    0.489973  0.346901  1.683770
H    -0.499636  -0.950759  -1.208141
H    1.149874  -0.370775  -0.831773
H    -0.185177  0.783738  -0.936105
N    -1.081686  -1.244475  1.268077
C    -1.518689  -1.407180  2.656898
C    -0.565906  -2.377455  3.416459
O    -0.921716  -3.489022  3.803019
H    -1.551612  -1.804198  0.565946
H    -1.413300  -0.415638  3.127419
C    -2.975021  -1.869034  2.724557
C    -4.023110  -0.754862  2.608209
C    -4.036263  0.029122  1.291944
C    -5.203959  1.009401  1.197261
N    -5.166621  1.740649  -0.076327
H    -3.103589  -2.396503  3.678577
H    -3.146115  -2.639846  1.953858
H    -3.889635  -0.052594  3.448280
H    -5.015035  -1.212032  2.758426
H    -4.091193  -0.659917  0.433198
H    -3.094830  0.590706  1.176156
H    -5.196546  1.666212  2.090855
H    -6.151513  0.449190  1.231054
H    -5.991014  2.333533  -0.172865
H    -4.360029  2.366754  -0.099415
N    0.674261  -1.853829  3.600726
C    1.756085  -2.601592  4.209163
H    0.859743  -0.944304  3.168179
H    2.234479  -2.013531  5.003827
H    2.522194  -2.879881  3.469774
H    1.336867  -3.516256  4.641605
