33
Energy: -18209.544399 eV PBE+vdW (tier 2 basis)
C    -4.939487  3.294672  1.900049
C    -4.008886  2.100447  1.934548
O    -4.121602  1.162755  1.135384
H    -4.863792  3.768687  0.913403
H    -4.725914  4.043952  2.672087
H    -5.972315  2.943721  2.015586
N    -3.041032  2.125743  2.891870
C    -2.028687  1.077725  3.038505
C    -2.587727  -0.099275  3.885330
O    -2.228734  -0.311623  5.041888
H    -3.046418  2.872829  3.577340
H    -1.840192  0.700021  2.021269
C    -0.742447  1.644416  3.632683
C    -0.028428  2.643335  2.718830
C    1.246684  3.215431  3.341732
C    1.959847  4.219706  2.438485
N    3.196715  4.700863  3.066524
H    -0.079033  0.798318  3.860747
H    -0.966518  2.100417  4.611114
H    -0.710208  3.469339  2.456078
H    0.220040  2.147419  1.765207
H    1.948866  2.404033  3.588723
H    0.997036  3.704547  4.299836
H    1.250012  5.028440  2.167600
H    2.239007  3.723543  1.495542
H    2.981848  5.240072  3.906748
H    3.696403  5.331349  2.439567
N    -3.501876  -0.844693  3.208205
C    -4.232558  -1.933098  3.826152
H    -3.788023  -0.495478  2.290255
H    -3.753925  -2.163285  4.783844
H    -4.209897  -2.825867  3.187266
H    -5.282758  -1.662463  4.013604
