33
Energy: -18209.0421921 eV PBE+vdW (tier 2 basis)
C    -0.197520  -0.225822  0.404330
C    0.249922  -0.261529  1.850295
O    1.363129  0.147252  2.179460
H    0.324779  0.600636  -0.086722
H    0.101895  -1.167787  -0.074432
H    -1.277170  -0.112791  0.263193
N    -0.586186  -0.786920  2.807379
C    -1.977050  -1.224395  2.767867
C    -2.249065  -2.153586  1.553250
O    -1.448034  -3.028390  1.243142
H    -0.140020  -0.797501  3.719827
H    -2.066586  -1.937609  3.604978
C    -3.002518  -0.104014  3.077644
C    -3.080030  1.113056  2.135261
C    -2.074022  2.228355  2.446506
C    -1.999961  3.285635  1.347796
N    -1.066729  4.351752  1.725505
H    -2.779778  0.256977  4.094306
H    -3.992955  -0.580414  3.168566
H    -4.095906  1.534894  2.197034
H    -2.960409  0.796518  1.086573
H    -1.069533  1.808468  2.597680
H    -2.343238  2.718182  3.395251
H    -2.992666  3.742787  1.204970
H    -1.745059  2.782971  0.391384
H    -0.120888  3.975798  1.812854
H    -1.027652  5.069978  1.002621
N    -3.444194  -1.978976  0.918528
C    -3.867562  -2.819417  -0.185559
H    -4.042839  -1.216172  1.206158
H    -4.824758  -3.311288  0.035429
H    -3.096918  -3.583193  -0.332313
H    -3.972708  -2.236931  -1.111831
