33
Energy: -18209.2811565 eV PBE+vdW (tier 2 basis)
C    0.567958  1.236615  0.967951
C    0.020050  -0.057170  1.538891
O    0.695532  -1.083482  1.599184
H    -0.161534  2.055803  0.945227
H    0.928838  1.049149  -0.050774
H    1.432439  1.546373  1.568394
N    -1.281242  -0.005669  1.963382
C    -1.938863  -1.123538  2.631558
C    -3.273937  -1.465723  1.932746
O    -4.357387  -1.380114  2.510701
H    -1.768461  0.881823  1.925952
H    -1.248961  -1.969793  2.488883
C    -2.106197  -0.898184  4.143453
C    -2.754146  0.432184  4.549933
C    -3.084542  0.534516  6.044449
C    -1.872988  0.515991  6.976071
N    -2.289839  0.777040  8.361992
H    -1.105537  -0.986168  4.591284
H    -2.709753  -1.729383  4.536825
H    -3.685736  0.560909  3.981419
H    -2.087934  1.269652  4.279453
H    -3.767057  -0.289260  6.317133
H    -3.639437  1.465935  6.232853
H    -1.179767  1.320675  6.681070
H    -1.319577  -0.435505  6.856081
H    -2.910097  0.032811  8.686170
H    -1.482075  0.765601  8.985246
N    -3.202888  -1.886710  0.634376
C    -2.038830  -2.078357  -0.214303
H    -4.118388  -2.059547  0.230068
H    -2.238570  -2.899048  -0.913911
H    -1.155360  -2.347166  0.375462
H    -1.793217  -1.176069  -0.796298
