33
Energy: -18209.2467947 eV PBE+vdW (tier 2 basis)
C    0.339371  0.305006  1.583243
C    -0.148751  0.228871  3.017203
O    0.639082  0.255489  3.964772
H    -0.288675  0.930790  0.935855
H    0.381149  -0.708814  1.161920
H    1.354421  0.711516  1.602704
N    -1.492889  0.107404  3.243711
C    -2.595621  0.001619  2.310368
C    -3.688228  0.988281  2.761176
O    -3.875517  1.217264  3.954690
H    -1.766673  0.175369  4.223143
H    -2.231525  0.258513  1.308232
C    -3.216829  -1.418799  2.274087
C    -2.324757  -2.510963  1.642598
C    -1.954576  -3.663419  2.586196
C    -0.905758  -3.293084  3.642629
N    0.369956  -2.927156  3.014208
H    -4.175269  -1.361060  1.735739
H    -3.481036  -1.679109  3.310903
H    -1.387206  -2.073219  1.272933
H    -2.836471  -2.921821  0.760679
H    -1.564419  -4.503444  1.988038
H    -2.857874  -4.043982  3.090997
H    -0.817688  -4.125941  4.365183
H    -1.249851  -2.423866  4.220537
H    0.921721  -2.327922  3.627167
H    0.927416  -3.755023  2.807708
N    -4.467242  1.546978  1.789841
C    -4.335080  1.405027  0.348928
H    -5.194752  2.156115  2.150477
H    -4.432164  0.359206  0.023129
H    -3.378877  1.801994  -0.023695
H    -5.138822  1.975092  -0.128403
