33
Energy: -18209.3869076 eV PBE+vdW (tier 2 basis)
C    1.012128  1.480917  -0.388786
C    0.119841  0.881636  0.681971
O    -0.064541  -0.332080  0.784115
H    1.010735  2.577849  -0.397616
H    0.689909  1.109188  -1.368695
H    2.039316  1.129715  -0.225745
N    -0.443847  1.781111  1.537896
C    -1.348309  1.375763  2.591590
C    -2.254340  2.577398  2.878797
O    -1.903258  3.723303  2.571664
H    -0.366224  2.784007  1.388677
H    -1.933999  0.529534  2.199301
C    -0.645197  0.867350  3.884763
C    -0.081613  1.911770  4.872937
C    1.417185  2.240982  4.775774
C    1.886016  3.010598  3.539409
N    1.228351  4.318293  3.434501
H    0.141582  0.173210  3.556387
H    -1.378047  0.243181  4.415971
H    -0.252971  1.523884  5.888162
H    -0.664986  2.844805  4.827670
H    1.992945  1.302631  4.838709
H    1.684804  2.837091  5.661969
H    1.765960  2.372448  2.643340
H    2.966240  3.191893  3.645680
H    1.667315  4.884863  2.710069
H    0.241480  4.229154  3.181192
N    -3.436268  2.356750  3.511567
C    -4.018784  1.099447  3.947897
H    -3.933537  3.214024  3.734802
H    -5.111347  1.187083  3.929731
H    -3.708622  0.824766  4.967554
H    -3.740313  0.286023  3.268615
