33
Energy: -18209.2535187 eV PBE+vdW (tier 2 basis)
C    -0.374295  1.626866  1.108363
C    -0.845004  0.248510  1.531116
O    -0.331986  -0.780356  1.093438
H    -0.948581  2.448021  1.555364
H    -0.432760  1.701498  0.015517
H    0.681098  1.737635  1.386973
N    -1.893420  0.232635  2.411716
C    -2.395831  -0.992656  3.019646
C    -3.922741  -1.134666  2.819851
O    -4.699624  -1.287045  3.761687
H    -2.232216  1.116887  2.771915
H    -1.917389  -1.796514  2.437265
C    -1.962354  -1.157958  4.493249
C    -1.895825  0.108118  5.358188
C    -3.210605  0.861859  5.584872
C    -3.094162  1.975553  6.629239
N    -2.802034  1.422867  7.959646
H    -0.959524  -1.609095  4.482807
H    -2.641777  -1.887954  4.953849
H    -1.145534  0.801026  4.938783
H    -1.501032  -0.182054  6.342311
H    -3.997402  0.152493  5.885190
H    -3.584526  1.309828  4.648724
H    -4.015097  2.590097  6.597230
H    -2.260851  2.646168  6.362226
H    -2.633756  2.170196  8.632381
H    -3.605912  0.896066  8.304627
N    -4.384905  -1.110710  1.532966
C    -3.648626  -1.056288  0.280482
H    -5.395189  -1.198941  1.483751
H    -3.513951  -0.024940  -0.081205
H    -4.202094  -1.620245  -0.480207
H    -2.656575  -1.511510  0.378966
