33
Energy: -18209.4860388 eV PBE+vdW (tier 2 basis)
C    -1.899481  2.712212  5.118828
C    -1.160605  1.394190  5.259594
O    -0.787967  0.962080  6.352297
H    -2.835922  2.652622  5.687918
H    -2.131301  2.978034  4.080343
H    -1.292883  3.507223  5.569436
N    -0.951452  0.717348  4.096204
C    -0.223849  -0.532328  4.042363
C    0.288233  -0.684817  2.601166
O    -0.180186  -0.021837  1.674458
H    -1.183945  1.117371  3.189785
H    0.630291  -0.453834  4.735511
C    -1.058016  -1.763092  4.487706
C    -2.155138  -2.246558  3.531395
C    -3.341773  -1.296767  3.335763
C    -4.504149  -1.956671  2.596283
N    -5.604180  -1.003741  2.399727
H    -1.483621  -1.513320  5.470364
H    -0.355905  -2.593156  4.667869
H    -2.532835  -3.203307  3.929175
H    -1.716274  -2.487469  2.548446
H    -3.041764  -0.402668  2.773615
H    -3.691367  -0.941959  4.320919
H    -4.801026  -2.877776  3.139253
H    -4.163000  -2.278505  1.599533
H    -6.012524  -0.745764  3.299574
H    -6.354363  -1.428620  1.854747
N    1.258636  -1.623140  2.434283
C    1.815518  -1.963903  1.138538
H    1.602147  -2.106241  3.255742
H    2.894994  -1.762097  1.104370
H    1.314716  -1.341373  0.390130
H    1.642991  -3.022135  0.897665
