33
Energy: -18209.4112373 eV PBE+vdW (tier 2 basis)
C    -2.067743  -1.126842  -0.186685
C    -1.217533  -0.942217  1.052856
O    -0.000272  -0.726284  0.981768
H    -1.670426  -1.967909  -0.768288
H    -1.978214  -0.228132  -0.809663
H    -3.128099  -1.307496  0.028039
N    -1.873871  -1.027271  2.240852
C    -1.239018  -0.805956  3.541641
C    -0.509995  -2.084641  4.054567
O    -0.843223  -2.667404  5.085653
H    -2.853270  -1.286424  2.236083
H    -0.457303  -0.049987  3.367646
C    -2.239258  -0.267812  4.569165
C    -3.555066  -1.067587  4.712597
C    -4.767327  -0.463575  3.983606
C    -5.363357  0.751559  4.695803
N    -6.485661  1.306412  3.928101
H    -2.462959  0.778136  4.309798
H    -1.713929  -0.246452  5.531671
H    -3.800325  -1.157710  5.780996
H    -3.393685  -2.104978  4.385734
H    -5.560511  -1.217899  3.874525
H    -4.492632  -0.159806  2.956467
H    -4.562786  1.487761  4.909433
H    -5.754575  0.428290  5.673004
H    -6.941639  2.054597  4.450329
H    -6.148410  1.727063  3.060715
N    0.527640  -2.454191  3.259857
C    1.329364  -3.633470  3.515644
H    0.691181  -1.892324  2.418990
H    2.394929  -3.374876  3.587037
H    1.204283  -4.383817  2.721115
H    1.002688  -4.066758  4.466949
