33
Energy: -18209.4223864 eV PBE+vdW (tier 2 basis)
C    -0.391946  2.558435  1.317759
C    -0.891329  1.498365  2.281771
O    -1.806035  1.712267  3.078802
H    -1.224257  2.870093  0.674307
H    0.440583  2.223011  0.687402
H    -0.077182  3.437555  1.893333
N    -0.266219  0.289590  2.196521
C    -0.573614  -0.800675  3.097167
C    0.687464  -1.674820  3.176575
O    1.583576  -1.591311  2.330544
H    0.560110  0.148593  1.619192
H    -0.766736  -0.360944  4.089467
C    -1.864808  -1.576362  2.700645
C    -2.050340  -1.899504  1.210206
C    -0.984458  -2.780742  0.542048
C    -0.782602  -4.162805  1.180969
N    0.322893  -4.962174  0.640890
H    -2.706794  -0.946395  3.018715
H    -1.927412  -2.494414  3.301860
H    -2.123184  -0.953068  0.654204
H    -3.037273  -2.379870  1.107619
H    -0.015850  -2.259213  0.533308
H    -1.263207  -2.920627  -0.515594
H    -1.707473  -4.755494  1.090641
H    -0.600527  -4.057241  2.261197
H    0.184440  -5.124195  -0.358200
H    1.193668  -4.432735  0.721514
N    0.791331  -2.547633  4.216602
C    -0.127452  -2.782951  5.316507
H    1.625114  -3.125519  4.165387
H    0.444997  -3.078673  6.203714
H    -0.856412  -3.577570  5.093605
H    -0.678309  -1.869462  5.566258
