33
Energy: -18209.4555765 eV PBE+vdW (tier 2 basis)
C    -0.009526  0.178767  -0.192105
C    -0.426689  -0.214640  1.208667
O    -0.321741  -1.376879  1.620204
H    -0.161450  1.241655  -0.415526
H    -0.574858  -0.424595  -0.913013
H    1.052210  -0.064754  -0.323433
N    -0.912381  0.788228  1.993123
C    -1.318027  0.574900  3.383173
C    -2.788637  0.068438  3.431945
O    -3.733742  0.802254  3.712700
H    -1.049113  1.710019  1.593632
H    -0.682089  -0.241745  3.754832
C    -1.131189  1.845540  4.210280
C    -1.135387  1.598102  5.730829
C    0.227501  1.337899  6.393287
C    1.009665  0.085187  5.970928
N    1.835441  0.294366  4.769446
H    -1.953011  2.529216  3.951987
H    -0.187988  2.330049  3.914604
H    -1.825365  0.770445  5.962427
H    -1.576435  2.479059  6.219066
H    0.048374  1.268154  7.477857
H    0.887000  2.208089  6.244401
H    0.310524  -0.772890  5.889941
H    1.707827  -0.167777  6.781832
H    2.480669  -0.487392  4.654654
H    1.268169  0.305040  3.921811
N    -2.897382  -1.250942  3.120263
C    -4.178856  -1.913930  2.977419
H    -2.053027  -1.703301  2.763583
H    -4.155209  -2.899572  3.459691
H    -4.454979  -2.045959  1.919959
H    -4.940278  -1.292702  3.460500
