33
Energy: -18209.1434547 eV PBE+vdW (tier 2 basis)
C    -0.354329  -0.366149  -0.352006
C    -0.126086  -0.342559  1.145466
O    0.996449  -0.465224  1.632617
H    -1.128466  0.328538  -0.696045
H    -0.663395  -1.374738  -0.662393
H    0.598240  -0.135435  -0.836673
N    -1.218189  -0.225575  1.976327
C    -2.632790  -0.001384  1.668438
C    -3.184919  -0.996922  0.619343
O    -3.740073  -0.617940  -0.409073
H    -0.947696  -0.204415  2.954983
H    -3.162814  -0.238424  2.607918
C    -2.975259  1.449384  1.304909
C    -2.668423  2.435599  2.431726
C    -3.002488  3.882295  2.059925
C    -2.686469  4.899332  3.159164
N    -1.250314  4.921096  3.469210
H    -4.040441  1.486994  1.034336
H    -2.429859  1.734181  0.392898
H    -1.607395  2.380281  2.714071
H    -3.242625  2.155648  3.333307
H    -4.070599  3.967769  1.802014
H    -2.450890  4.160582  1.144468
H    -3.217575  4.612957  4.081076
H    -3.092433  5.884626  2.856615
H    -1.061921  5.533152  4.262465
H    -0.722938  5.298622  2.680392
N    -3.048744  -2.329344  0.896663
C    -2.475263  -2.976326  2.065704
H    -3.420536  -2.921828  0.161085
H    -2.853196  -4.004044  2.112088
H    -2.781953  -2.472739  2.992019
H    -1.376692  -3.006744  2.038311
