33
Energy: -18209.2189295 eV PBE+vdW (tier 2 basis)
C    -0.039491  0.056009  -0.120521
C    0.007475  0.074938  1.399288
O    1.067738  0.127572  2.014678
H    -1.054273  0.073496  -0.537659
H    0.477324  -0.844320  -0.476283
H    0.516330  0.922338  -0.498873
N    -1.220133  0.044907  2.015892
C    -1.393873  -0.125808  3.464824
C    -2.873799  -0.344542  3.807014
O    -3.213327  -1.095162  4.714753
H    -2.009666  -0.215996  1.435169
H    -0.886179  -1.047079  3.787380
C    -0.802442  1.033353  4.304533
C    -1.316176  2.434716  3.958479
C    -0.507769  3.584011  4.582630
C    -0.763978  3.869884  6.064947
N    -0.344591  2.761916  6.933728
H    0.285626  1.002657  4.161946
H    -0.994545  0.807157  5.360762
H    -2.371902  2.544401  4.259839
H    -1.287706  2.560785  2.863316
H    -0.731003  4.511873  4.032742
H    0.569060  3.398112  4.425469
H    -1.845533  4.016135  6.218709
H    -0.280197  4.835477  6.315418
H    -0.550817  2.973736  7.909712
H    0.665886  2.626946  6.872666
N    -3.775536  0.351726  3.039798
C    -5.195444  0.340597  3.346490
H    -3.417692  1.113241  2.472659
H    -5.778084  0.475010  2.427372
H    -5.470663  1.128263  4.065160
H    -5.440493  -0.627138  3.795641
