33
Energy: -18209.0197616 eV PBE+vdW (tier 2 basis)
C    -0.713425  -0.103834  2.540587
C    -2.207035  -0.324186  2.640327
O    -2.696323  -1.026811  3.523808
H    -0.447930  0.861697  2.993505
H    -0.358754  -0.127341  1.505274
H    -0.227146  -0.894959  3.118480
N    -3.056957  0.308064  1.754162
C    -2.848038  1.142054  0.576581
C    -2.312495  0.334107  -0.630414
O    -1.514241  -0.589844  -0.508574
H    -4.018256  0.034790  1.933039
H    -3.857580  1.497411  0.320296
C    -1.986424  2.411291  0.778386
C    -2.604789  3.497135  1.669006
C    -2.619416  3.220924  3.176767
C    -3.031573  4.441135  4.005133
N    -2.056826  5.533952  3.867519
H    -1.811532  2.840226  -0.220655
H    -0.990989  2.128297  1.146104
H    -3.635942  3.699569  1.328282
H    -2.046702  4.431150  1.507563
H    -1.614605  2.898732  3.500963
H    -3.292174  2.387312  3.419803
H    -3.193313  4.120295  5.051815
H    -4.001197  4.816875  3.640772
H    -1.190071  5.295144  4.351760
H    -2.406253  6.385170  4.306488
N    -2.751283  0.729533  -1.866623
C    -3.753218  1.729443  -2.198561
H    -2.353448  0.182442  -2.623507
H    -4.750332  1.470450  -1.810417
H    -3.483173  2.729816  -1.830809
H    -3.829155  1.791280  -3.289279
