33
Energy: -18209.1459739 eV PBE+vdW (tier 2 basis)
C    -0.346978  0.779467  0.201689
C    -0.592704  -0.267771  1.273348
O    0.286859  -1.030038  1.661524
H    -1.210096  1.428264  0.006548
H    -0.065269  0.270275  -0.728696
H    0.504332  1.400328  0.505471
N    -1.866974  -0.290135  1.789667
C    -2.301498  -1.363687  2.689044
C    -3.827552  -1.514012  2.697786
O    -4.336594  -2.629034  2.568610
H    -2.580834  0.215401  1.278127
H    -1.928100  -2.315609  2.285329
C    -1.745955  -1.223726  4.127336
C    -1.980759  -2.490785  4.980550
C    -2.565654  -2.216785  6.371996
C    -4.008942  -1.675809  6.371890
N    -5.059189  -2.532862  5.818831
H    -2.191916  -0.342820  4.610629
H    -0.672538  -1.020338  4.034521
H    -1.030625  -3.031910  5.086506
H    -2.649514  -3.182957  4.446215
H    -1.922322  -1.500108  6.911922
H    -2.542303  -3.149129  6.960040
H    -4.042698  -0.718801  5.826673
H    -4.289955  -1.428455  7.407168
H    -5.115866  -3.409667  6.338064
H    -4.871321  -2.782062  4.845524
N    -4.625518  -0.411164  2.867532
C    -4.302821  0.927313  3.342252
H    -5.607070  -0.676764  2.912651
H    -4.572081  1.051811  4.402453
H    -4.852483  1.676452  2.755957
H    -3.233941  1.129355  3.237076
