33
Energy: -18209.2034372 eV PBE+vdW (tier 2 basis)
C    -0.078482  -0.609496  0.990090
C    -0.285526  -0.891718  2.468130
O    0.533793  -1.514632  3.138761
H    -0.072600  0.469474  0.778554
H    -0.869754  -1.064648  0.376457
H    0.887877  -1.031687  0.702710
N    -1.435589  -0.401133  3.042503
C    -2.583520  0.190064  2.355303
C    -3.205202  1.217151  3.325615
O    -4.170388  0.938915  4.034503
H    -1.574370  -0.703500  4.004311
H    -2.196320  0.726613  1.477345
C    -3.600651  -0.847626  1.874105
C    -4.649984  -0.264798  0.921074
C    -5.485828  -1.324341  0.183418
C    -4.876467  -1.847635  -1.121252
N    -3.574906  -2.507725  -0.921141
H    -4.093248  -1.295463  2.749735
H    -3.040353  -1.636663  1.356905
H    -4.147432  0.370611  0.170268
H    -5.319106  0.397968  1.488824
H    -6.470419  -0.902494  -0.070058
H    -5.694543  -2.170831  0.860456
H    -4.705514  -0.994219  -1.796756
H    -5.623637  -2.496157  -1.619539
H    -3.699601  -3.374699  -0.394782
H    -3.177088  -2.778570  -1.820777
N    -2.605036  2.443193  3.381196
C    -1.399478  2.877104  2.693164
H    -3.004141  3.057527  4.083738
H    -1.185728  3.909068  2.990173
H    -1.525281  2.868475  1.600546
H    -0.528697  2.258033  2.953321
