33
Energy: -18209.3226459 eV PBE+vdW (tier 2 basis)
C    -0.245343  0.219065  0.180307
C    -0.241096  0.079816  1.690785
O    0.759737  0.300821  2.367026
H    -0.364676  1.283801  -0.064442
H    -1.050647  -0.343130  -0.309455
H    0.721786  -0.110831  -0.212668
N    -1.437719  -0.304894  2.242205
C    -1.716141  -0.187598  3.673289
C    -1.273366  1.215823  4.173209
O    -1.516908  2.204012  3.479315
H    -2.239391  -0.289581  1.624255
H    -2.813015  -0.103580  3.737550
C    -1.361924  -1.467192  4.473356
C    -0.019474  -2.170350  4.209799
C    1.254515  -1.632885  4.876698
C    1.306722  -1.789410  6.402877
N    0.723068  -0.625099  7.108976
H    -2.149338  -2.193952  4.219233
H    -1.499367  -1.264578  5.546411
H    0.143967  -2.208276  3.123772
H    -0.141303  -3.220727  4.524856
H    1.420556  -0.584545  4.588978
H    2.102560  -2.189494  4.449723
H    0.728417  -2.677340  6.701595
H    2.347658  -1.976231  6.720220
H    1.417092  0.123824  7.154263
H    0.510254  -0.866639  8.077481
N    -0.758066  1.296713  5.420072
C    -0.379510  2.584990  5.967784
H    -0.442753  0.464970  5.935212
H    -0.141274  2.458556  7.030635
H    -1.204605  3.301411  5.868192
H    0.493385  3.011736  5.449404
