33
Energy: -18209.3626193 eV PBE+vdW (tier 2 basis)
C    -0.839754  -0.824975  -1.238133
C    -0.403877  -0.615579  0.199088
O    0.766675  -0.421753  0.514512
H    -1.642332  -0.134348  -1.531026
H    -1.213250  -1.847886  -1.390282
H    0.029694  -0.668562  -1.881430
N    -1.393673  -0.634990  1.159166
C    -2.810120  -0.931116  0.993485
C    -3.702220  0.303980  0.718756
O    -4.898546  0.157843  0.474550
H    -1.033805  -0.565356  2.108578
H    -2.938109  -1.571827  0.107856
C    -3.353806  -1.694026  2.212296
C    -2.800634  -3.117707  2.336561
C    -3.103851  -3.836056  3.659617
C    -4.577897  -4.139371  3.958149
N    -5.303424  -2.982115  4.506733
H    -4.445903  -1.703001  2.101097
H    -3.134193  -1.113598  3.125060
H    -1.706566  -3.091663  2.207784
H    -3.187128  -3.721039  1.497368
H    -2.696978  -3.256485  4.503860
H    -2.559239  -4.793134  3.646554
H    -4.614001  -4.924283  4.727371
H    -5.048168  -4.571954  3.051291
H    -5.530336  -2.306096  3.777756
H    -6.195164  -3.283396  4.899088
N    -3.071255  1.505482  0.770901
C    -3.753421  2.763385  0.541778
H    -2.076730  1.494939  0.971579
H    -3.328016  3.294891  -0.320813
H    -3.690957  3.414812  1.424434
H    -4.805856  2.537670  0.338667
