33
Energy: -18209.5029361 eV PBE+vdW (tier 2 basis)
C    0.033566  0.576469  0.152824
C    -0.355078  0.385146  1.604301
O    -0.215649  1.285598  2.442119
H    -0.142668  -0.308728  -0.470858
H    1.094203  0.850280  0.097139
H    -0.541459  1.419244  -0.252210
N    -0.877207  -0.828609  1.922931
C    -1.442063  -1.156413  3.234569
C    -0.320352  -1.626480  4.207032
O    -0.244170  -2.780818  4.623058
H    -0.938806  -1.540596  1.204137
H    -1.845954  -0.212451  3.636739
C    -2.557672  -2.193662  3.102552
C    -3.935373  -1.628364  2.718556
C    -4.051594  -0.856910  1.395281
C    -3.786810  -1.682105  0.137155
N    -3.913924  -0.841584  -1.058588
H    -2.638025  -2.708723  4.068637
H    -2.237453  -2.979588  2.399415
H    -4.271806  -0.964157  3.530538
H    -4.651891  -2.465968  2.707255
H    -3.373084  0.011910  1.405644
H    -5.065584  -0.438004  1.313294
H    -4.536698  -2.485686  0.065405
H    -2.804545  -2.193445  0.214286
H    -3.209503  -0.102071  -1.049818
H    -3.758214  -1.386021  -1.906760
N    0.539576  -0.626628  4.534293
C    1.710215  -0.840833  5.360961
H    0.400018  0.273942  4.067587
H    1.650952  -1.851324  5.779002
H    1.744359  -0.112742  6.182623
H    2.638692  -0.753680  4.776900
