33
Energy: -18209.0567412 eV PBE+vdW (tier 2 basis)
C    0.809583  -1.406715  0.151855
C    0.600458  -0.907678  1.571634
O    1.538639  -0.780360  2.352338
H    1.097466  -0.548761  -0.471791
H    -0.082754  -1.870678  -0.288284
H    1.636078  -2.124294  0.144198
N    -0.716006  -0.655608  1.887156
C    -1.206651  0.185666  2.975807
C    -1.007192  1.678107  2.602368
O    -0.168803  2.041369  1.785301
H    -1.346025  -0.706415  1.094508
H    -2.292428  -0.006930  3.018789
C    -0.633628  -0.121050  4.377064
C    -1.112215  -1.444064  4.999522
C    -0.420723  -2.736911  4.529945
C    0.886735  -3.076668  5.254146
N    1.861917  -1.985240  5.194463
H    -0.953329  0.700893  5.034049
H    0.458225  -0.074256  4.347490
H    -2.198971  -1.536563  4.829040
H    -0.985933  -1.364660  6.091063
H    -0.244255  -2.700956  3.445820
H    -1.105991  -3.583996  4.690872
H    1.259605  -4.036785  4.840544
H    0.661168  -3.266043  6.317665
H    2.057724  -1.726105  4.223884
H    2.742936  -2.266250  5.622350
N    -1.816507  2.583230  3.241113
C    -3.011733  2.326312  4.028821
H    -1.648993  3.537390  2.937726
H    -3.385807  3.282736  4.409389
H    -2.804451  1.687423  4.897404
H    -3.817617  1.861084  3.438389
