33
Energy: -18208.9516714 eV PBE+vdW (tier 2 basis)
C    -0.292996  0.162668  -0.208066
C    -0.185650  -0.202118  1.263717
O    0.883897  -0.491031  1.781415
H    -0.095748  1.239462  -0.308016
H    -1.277673  -0.051067  -0.644067
H    0.478136  -0.377764  -0.765411
N    -1.397611  -0.190570  1.928471
C    -1.591092  -0.096606  3.374439
C    -1.053565  1.269634  3.892282
O    -0.385668  2.013040  3.181490
H    -2.156167  0.208774  1.387602
H    -2.686552  -0.029005  3.487857
C    -1.213764  -1.374609  4.171480
C    0.250355  -1.767773  4.409998
C    1.120319  -0.738360  5.133261
C    2.524720  -1.277519  5.439698
N    3.456085  -0.347426  6.087366
H    -1.714231  -2.200723  3.643565
H    -1.717521  -1.304882  5.146687
H    0.724816  -2.011059  3.452310
H    0.226242  -2.698346  5.003540
H    0.643678  -0.422405  6.079074
H    1.225660  0.160258  4.507970
H    2.989993  -1.612825  4.499906
H    2.447180  -2.172972  6.078203
H    3.059016  -0.000792  6.962380
H    3.596641  0.472586  5.494837
N    -1.417990  1.664325  5.153332
C    -2.267493  1.020279  6.137441
H    -1.008824  2.559220  5.403057
H    -1.726515  0.290169  6.759776
H    -3.114780  0.509230  5.662443
H    -2.682613  1.790374  6.798417
