33
Energy: -18209.377725 eV PBE+vdW (tier 2 basis)
C    -1.595968  1.771887  -0.163034
C    -0.990153  0.557304  0.512656
O    0.072668  0.059475  0.152219
H    -1.831494  2.569236  0.555055
H    -2.529028  1.510012  -0.682645
H    -0.877303  2.143057  -0.897901
N    -1.681596  0.029347  1.583390
C    -2.997225  0.407177  2.080469
C    -2.981728  1.435991  3.236169
O    -4.038399  1.884264  3.676869
H    -1.267105  -0.827796  1.942995
H    -3.539179  0.913873  1.272235
C    -3.794588  -0.836217  2.514027
C    -4.136998  -1.836979  1.398804
C    -5.375121  -1.516300  0.544564
C    -5.249615  -0.335905  -0.434699
N    -6.344335  -0.177254  -1.395027
H    -4.709910  -0.480337  3.006656
H    -3.208064  -1.348129  3.296109
H    -4.305232  -2.815116  1.873451
H    -3.264188  -1.978340  0.739011
H    -6.243194  -1.346586  1.204074
H    -5.616870  -2.413734  -0.049322
H    -4.313151  -0.439956  -1.008305
H    -5.173104  0.613470  0.115877
H    -7.225184  -0.010525  -0.906472
H    -6.472331  -1.034659  -1.935008
N    -1.750536  1.785448  3.692234
C    -1.550672  2.745027  4.759644
H    -0.952061  1.362613  3.230595
H    -1.021098  2.290041  5.608126
H    -2.538875  3.079588  5.093569
H    -0.977321  3.615077  4.410463
