33
Energy: -18209.1120743 eV PBE+vdW (tier 2 basis)
C    -0.112909  -0.981342  -0.157333
C    0.091527  -0.993718  1.347193
O    1.191370  -1.180838  1.856880
H    0.836050  -1.248629  -0.628957
H    -0.412576  0.018514  -0.503342
H    -0.886552  -1.694366  -0.475539
N    -1.027204  -0.815277  2.130951
C    -2.334634  -0.369201  1.687444
C    -2.322638  1.143076  1.356593
O    -1.507025  1.897635  1.886776
H    -0.794208  -0.661548  3.108990
H    -2.595681  -0.942733  0.787316
C    -3.393690  -0.688695  2.773924
C    -3.430193  0.299759  3.959365
C    -4.577979  1.328173  3.871569
C    -4.291204  2.663812  4.562240
N    -3.531903  3.554678  3.673392
H    -3.176784  -1.710170  3.116504
H    -4.387197  -0.731643  2.304584
H    -2.466513  0.827767  4.026404
H    -3.527011  -0.259221  4.900313
H    -5.488314  0.878366  4.296202
H    -4.809649  1.554697  2.819446
H    -3.796331  2.467387  5.536120
H    -5.244030  3.163381  4.794150
H    -3.275752  4.412682  4.161473
H    -2.657085  3.121296  3.365112
N    -3.258354  1.616787  0.484168
C    -4.348925  0.900781  -0.153703
H    -3.280214  2.633142  0.450308
H    -4.026802  -0.095329  -0.479030
H    -4.659962  1.452456  -1.048116
H    -5.226936  0.786320  0.502131
