33
Energy: -18209.5601605 eV PBE+vdW (tier 2 basis)
C    1.972767  -0.043519  0.037547
C    0.954223  0.157911  1.139573
O    0.907402  1.201484  1.801960
H    2.979476  0.039388  0.465752
H    1.861328  0.765766  -0.694632
H    1.880737  -1.006919  -0.478491
N    0.090314  -0.874503  1.350978
C    -0.971740  -0.823863  2.357444
C    -0.393439  -1.214411  3.747109
O    -0.551147  -2.331517  4.237403
H    0.223268  -1.742569  0.844384
H    -1.293265  0.228007  2.401667
C    -2.142418  -1.714903  1.953718
C    -3.393107  -1.474250  2.805924
C    -4.563047  -2.408559  2.473235
C    -5.137101  -2.278065  1.050356
N    -5.681375  -0.972200  0.663617
H    -1.836847  -2.769209  2.048658
H    -2.359334  -1.524448  0.891248
H    -3.712604  -0.423460  2.696903
H    -3.131915  -1.605380  3.865498
H    -5.375247  -2.227230  3.196630
H    -4.246414  -3.453932  2.628670
H    -5.939824  -3.021018  0.927701
H    -4.371457  -2.547462  0.306328
H    -6.400932  -0.675316  1.324954
H    -4.956784  -0.254008  0.687334
N    0.302205  -0.203308  4.331350
C    1.035656  -0.378648  5.569659
H    0.490959  0.612465  3.744111
H    2.114037  -0.509890  5.391131
H    0.655008  -1.275770  6.068997
H    0.891617  0.490338  6.224283
