33
Energy: -18209.5643906 eV PBE+vdW (tier 2 basis)
C    -0.176884  -2.823437  0.310108
C    0.080506  -1.582099  1.144499
O    1.194640  -1.311723  1.594648
H    -1.222309  -2.935664  -0.002267
H    0.122415  -3.705424  0.889608
H    0.460741  -2.786643  -0.582045
N    -1.005755  -0.785086  1.355970
C    -0.945702  0.410754  2.169994
C    -2.373956  0.691032  2.655575
O    -3.359706  0.262944  2.043847
H    -1.937013  -1.048293  1.042298
H    -0.282538  0.208574  3.026387
C    -0.373383  1.630495  1.402011
C    -1.156271  2.019156  0.129188
C    -1.502152  3.511844  0.037347
C    -2.526249  4.004041  1.077998
N    -3.876234  3.437687  1.020782
H    0.669138  1.387596  1.159105
H    -0.330584  2.479814  2.101975
H    -2.087682  1.435552  0.064712
H    -0.575249  1.729856  -0.756705
H    -1.896325  3.728164  -0.969367
H    -0.581279  4.112074  0.139298
H    -2.619972  5.097060  0.989002
H    -2.136530  3.826194  2.093680
H    -4.314886  3.648026  0.123573
H    -3.862808  2.419661  1.109268
N    -2.474732  1.472199  3.758138
C    -3.751052  1.947340  4.271900
H    -1.620922  1.804073  4.190372
H    -4.082373  2.861015  3.756504
H    -3.657777  2.142706  5.345754
H    -4.507120  1.171513  4.109842
