33
Energy: -18209.1996635 eV PBE+vdW (tier 2 basis)
C    0.063188  0.581761  0.772983
C    -0.005282  0.115841  2.219710
O    1.005939  -0.029472  2.902333
H    -0.433646  1.553979  0.641393
H    -0.411083  -0.131221  0.084350
H    1.117770  0.687740  0.506165
N    -1.250480  -0.117446  2.741809
C    -2.532546  -0.087363  2.055118
C    -3.574033  0.344351  3.103344
O    -3.620250  -0.223707  4.193802
H    -1.273136  -0.445388  3.706050
H    -2.473860  0.646509  1.241206
C    -2.919776  -1.464148  1.471471
C    -4.204027  -1.455025  0.636672
C    -4.554452  -2.806891  0.001084
C    -4.959443  -3.892347  0.999077
N    -5.393171  -5.102774  0.287022
H    -3.001515  -2.165269  2.314322
H    -2.077704  -1.811266  0.852142
H    -4.100861  -0.709407  -0.169207
H    -5.051722  -1.120142  1.257900
H    -3.695601  -3.162401  -0.595193
H    -5.385024  -2.676317  -0.708568
H    -5.814425  -3.531342  1.592465
H    -4.135415  -4.073399  1.715507
H    -4.605076  -5.519129  -0.211975
H    -5.714333  -5.808601  0.949915
N    -4.437278  1.348812  2.782078
C    -4.477369  2.160155  1.574769
H    -5.093440  1.566227  3.525980
H    -3.528522  2.686973  1.399034
H    -5.257252  2.918562  1.699739
H    -4.727527  1.569407  0.682730
