33
Energy: -18209.1132245 eV PBE+vdW (tier 2 basis)
C    0.419942  0.382647  0.049775
C    0.285720  -0.274154  1.406004
O    1.243039  -0.808595  1.961669
H    0.454451  1.475367  0.157634
H    -0.409544  0.139100  -0.624895
H    1.364414  0.049555  -0.388828
N    -0.950884  -0.292233  2.025029
C    -2.244493  0.332713  1.712935
C    -3.107857  -0.437768  0.686075
O    -4.226077  -0.024046  0.386696
H    -0.880463  -0.721421  2.943444
H    -2.817317  0.202583  2.642560
C    -2.204942  1.869806  1.449212
C    -2.392078  2.376083  0.013726
C    -2.051861  3.862348  -0.111702
C    -2.302248  4.417622  -1.512289
N    -1.906297  5.830047  -1.592410
H    -1.249830  2.233570  1.856722
H    -2.985076  2.332600  2.069555
H    -3.430969  2.197247  -0.294230
H    -1.768228  1.805742  -0.689959
H    -0.997029  4.042000  0.152806
H    -2.650524  4.438357  0.616217
H    -3.359236  4.230817  -1.789362
H    -1.687676  3.860568  -2.237305
H    -2.023852  6.180852  -2.543018
H    -2.512025  6.400367  -0.999932
N    -2.565416  -1.585278  0.198043
C    -3.278924  -2.460850  -0.710208
H    -1.674183  -1.875942  0.584974
H    -4.198649  -1.948196  -1.012008
H    -3.546820  -3.411516  -0.226894
H    -2.674670  -2.675354  -1.601788
