33
Energy: -18209.3981429 eV PBE+vdW (tier 2 basis)
C    -0.690103  0.600324  -0.651025
C    -0.707238  0.836680  0.847114
O    0.299518  1.145327  1.478474
H    -1.432223  1.218046  -1.175136
H    -0.908423  -0.451035  -0.887532
H    0.310177  0.842263  -1.018678
N    -1.921639  0.707392  1.487846
C    -3.198316  0.283462  0.932827
C    -4.098308  1.441374  0.431002
O    -5.202007  1.203049  -0.056267
H    -1.854905  0.808429  2.497663
H    -3.000642  -0.305066  0.025188
C    -3.959425  -0.652100  1.895973
C    -4.192657  -0.142947  3.328604
C    -5.075196  1.105133  3.486609
C    -6.545947  0.903390  3.084412
N    -7.401721  2.088784  3.170745
H    -3.395022  -1.594624  1.949527
H    -4.916788  -0.885278  1.411988
H    -3.225397  0.031638  3.830222
H    -4.646562  -0.972033  3.895457
H    -4.659866  1.948151  2.911532
H    -5.040823  1.421982  4.542381
H    -6.985272  0.116939  3.720548
H    -6.607189  0.539811  2.049881
H    -7.307841  2.541760  4.081193
H    -7.123086  2.775107  2.468457
N    -3.566221  2.687840  0.534401
C    -4.287832  3.879679  0.137835
H    -2.666010  2.768018  0.995398
H    -3.654489  4.531350  -0.477491
H    -4.637718  4.450071  1.011870
H    -5.159171  3.564631  -0.446533
