33
Energy: -18209.5340567 eV PBE+vdW (tier 2 basis)
C    0.338928  0.592875  -0.627388
C    0.355193  0.020636  0.777362
O    1.368259  -0.499129  1.253078
H    1.101323  1.378899  -0.697831
H    -0.632048  1.009503  -0.921156
H    0.620174  -0.199062  -1.332511
N    -0.813635  0.150828  1.470653
C    -1.034225  -0.496982  2.749280
C    -2.343971  -1.293578  2.623877
O    -3.202257  -0.955495  1.801703
H    -1.670124  0.376557  0.967542
H    -0.173739  -1.153997  2.925162
C    -1.166560  0.496589  3.930176
C    -0.068287  1.561170  4.043530
C    1.389684  1.099664  4.203899
C    1.690524  0.127773  5.349530
N    1.394910  -1.266375  4.963561
H    -1.216155  -0.092597  4.857207
H    -2.135372  1.012873  3.837068
H    -0.333491  2.199544  4.902695
H    -0.119678  2.215861  3.159860
H    1.999642  2.003472  4.354926
H    1.748267  0.650173  3.265008
H    1.076981  0.373558  6.232277
H    2.745124  0.263329  5.654803
H    1.925919  -1.494528  4.119644
H    1.719254  -1.907108  5.689206
N    -2.550205  -2.334614  3.472936
C    -1.639293  -2.925636  4.438834
H    -3.456635  -2.775593  3.341696
H    -2.117311  -2.983609  5.427337
H    -0.728411  -2.322467  4.542687
H    -1.346620  -3.942150  4.134741
