33
Energy: -18209.3963201 eV PBE+vdW (tier 2 basis)
C    0.430035  1.428077  1.141867
C    0.319175  0.475495  2.316025
O    1.278846  0.182661  3.024227
H    -0.330357  2.219935  1.174884
H    0.303743  0.890015  0.190812
H    1.427059  1.875134  1.160730
N    -0.927450  -0.054105  2.573368
C    -2.133859  0.045016  1.759092
C    -3.061135  1.226744  2.141014
O    -4.054920  1.476002  1.462050
H    -0.916618  -0.757496  3.308088
H    -1.845330  0.248881  0.716674
C    -2.936206  -1.268650  1.777356
C    -2.403899  -2.389388  0.874079
C    -1.030453  -2.972860  1.225418
C    -0.670196  -4.197987  0.370360
N    0.631801  -4.817060  0.626875
H    -3.956462  -1.014551  1.460772
H    -3.013148  -1.620949  2.821254
H    -2.391441  -2.025388  -0.167140
H    -3.145610  -3.205033  0.891796
H    -1.009766  -3.264406  2.290577
H    -0.240483  -2.215742  1.101663
H    -0.703431  -3.919458  -0.695445
H    -1.441674  -4.974001  0.500985
H    0.697069  -5.121187  1.599414
H    1.383019  -4.139137  0.489699
N    -2.686925  1.930005  3.241045
C    -3.429655  3.072278  3.734307
H    -1.836432  1.633027  3.708141
H    -4.297189  3.211317  3.080081
H    -2.816701  3.984261  3.714867
H    -3.779584  2.903640  4.762129
