33
Energy: -18209.0847678 eV PBE+vdW (tier 2 basis)
C    -2.373365  1.712692  0.425849
C    -0.906207  1.429408  0.681268
O    -0.031623  2.281591  0.530989
H    -2.963330  1.626669  1.349635
H    -2.805443  1.010048  -0.300120
H    -2.459751  2.730945  0.038949
N    -0.579675  0.164049  1.104403
C    -1.485374  -0.924739  1.430089
C    -2.332720  -0.796600  2.721996
O    -3.385935  -1.432075  2.779071
H    0.414141  0.040627  1.268236
H    -2.263226  -0.964235  0.653616
C    -0.789848  -2.302104  1.395101
C    0.232058  -2.633091  2.497726
C    1.632564  -1.998455  2.409083
C    2.378759  -2.226177  1.090786
N    2.593265  -3.656011  0.835716
H    -0.340535  -2.418730  0.396423
H    -1.601128  -3.039749  1.454954
H    0.360702  -3.726393  2.503912
H    -0.205719  -2.399600  3.481031
H    2.242903  -2.417364  3.223489
H    1.590541  -0.912993  2.598810
H    3.367870  -1.753015  1.169855
H    1.855461  -1.701853  0.265210
H    1.722520  -4.115930  0.568165
H    3.234958  -3.784735  0.054053
N    -1.947284  -0.001103  3.764152
C    -0.725825  0.753803  4.020008
H    -2.630687  -0.032174  4.514894
H    -0.748172  1.071934  5.068246
H    -0.638916  1.651108  3.394098
H    0.175094  0.143217  3.884569
