33
Energy: -18209.3418488 eV PBE+vdW (tier 2 basis)
C    -0.228470  0.309317  -0.092812
C    -0.093399  0.121055  1.405058
O    1.006432  -0.165512  1.902252
H    -1.225530  0.629146  -0.418333
H    0.016520  -0.641534  -0.583254
H    0.512877  1.046693  -0.423159
N    -1.235082  0.304602  2.119202
C    -1.546509  0.085042  3.549274
C    -0.667810  0.761103  4.629236
O    -1.181542  0.946473  5.734615
H    -2.046008  0.548426  1.563013
H    -2.491037  0.629198  3.689804
C    -1.882294  -1.392439  3.872327
C    -0.839346  -2.493980  3.579610
C    -0.064056  -3.038904  4.791597
C    1.032589  -2.142624  5.367912
N    2.135813  -1.975177  4.413956
H    -2.796820  -1.620001  3.303719
H    -2.175872  -1.411588  4.932656
H    -0.137325  -2.169841  2.799188
H    -1.380623  -3.343543  3.138079
H    0.407908  -3.988920  4.496815
H    -0.782125  -3.275905  5.593713
H    1.441434  -2.638769  6.261270
H    0.588600  -1.193435  5.723716
H    2.900116  -1.452463  4.840604
H    1.837211  -1.438849  3.597180
N    0.588425  1.135562  4.304364
C    1.474176  1.713335  5.296572
H    0.980186  0.744854  3.438942
H    2.288858  2.240175  4.787465
H    1.905234  0.945255  5.959314
H    0.915885  2.418902  5.921763
