33
Energy: -18209.1360504 eV PBE+vdW (tier 2 basis)
C    -0.250887  0.182217  0.250796
C    -0.056601  0.030413  1.747450
O    1.048891  0.159890  2.270799
H    -1.155336  0.739511  -0.022437
H    -0.322676  -0.814302  -0.207456
H    0.627854  0.693089  -0.151914
N    -1.146718  -0.291425  2.516771
C    -2.558222  -0.398761  2.162019
C    -2.754236  -1.438416  1.021006
O    -2.223231  -2.541962  1.088836
H    -0.896139  -0.472328  3.482731
H    -3.023337  -0.902288  3.024865
C    -3.274908  0.956798  1.998926
C    -3.260740  1.872572  3.235848
C    -1.955775  2.622027  3.558877
C    -1.362934  3.441712  2.410702
N    -2.356781  4.354368  1.824695
H    -4.333482  0.745525  1.776593
H    -2.878567  1.512733  1.135027
H    -3.559976  1.286745  4.120909
H    -4.052565  2.619392  3.084974
H    -1.176111  1.934270  3.912307
H    -2.164057  3.298170  4.405742
H    -1.020118  2.770267  1.609738
H    -0.454266  3.948808  2.786106
H    -2.647843  5.048525  2.515485
H    -1.944746  4.877747  1.052341
N    -3.558026  -1.057961  -0.012576
C    -3.837121  -1.926275  -1.140403
H    -3.917475  -0.111962  -0.024011
H    -4.918929  -2.022956  -1.303241
H    -3.416874  -2.911043  -0.911181
H    -3.371289  -1.549287  -2.062597
