33
Energy: -18209.4859184 eV PBE+vdW (tier 2 basis)
C    0.044876  -0.176044  0.092649
C    0.018153  -0.066222  1.604213
O    1.065325  -0.073908  2.264966
H    0.705004  0.603165  -0.306748
H    -0.941398  -0.089950  -0.379103
H    0.482796  -1.145482  -0.177818
N    -1.217145  0.042120  2.165044
C    -1.553574  0.028173  3.598842
C    -1.162727  1.303722  4.386962
O    -1.996832  1.842131  5.117056
H    -2.003272  0.071261  1.528550
H    -2.650551  0.040434  3.630985
C    -1.068237  -1.238437  4.331250
C    -1.667767  -2.530513  3.771262
C    -1.181462  -3.807423  4.472192
C    -1.499299  -3.895740  5.967949
N    -2.948054  -3.860621  6.216331
H    -1.348226  -1.106643  5.387321
H    0.029409  -1.285641  4.300191
H    -1.420625  -2.611094  2.701442
H    -2.768978  -2.479908  3.818265
H    -0.090232  -3.896534  4.344585
H    -1.634680  -4.676329  3.971400
H    -0.936778  -3.113770  6.515510
H    -1.125348  -4.859628  6.342717
H    -3.317584  -2.920675  6.068123
H    -3.143958  -4.087498  7.191010
N    0.121283  1.712460  4.245181
C    0.652859  2.861735  4.949456
H    0.727145  1.149400  3.637301
H    1.094630  3.581602  4.246585
H    1.424049  2.563586  5.674895
H    -0.170232  3.342861  5.488461
