33
Energy: -18209.158987 eV PBE+vdW (tier 2 basis)
C    -0.546361  -1.993898  0.408536
C    -0.331587  -0.910004  1.449400
O    0.739519  -0.795237  2.042520
H    -1.088016  -1.653046  -0.482265
H    -1.115041  -2.826639  0.845674
H    0.437997  -2.366965  0.113291
N    -1.374025  -0.061734  1.732172
C    -2.763487  -0.097292  1.274611
C    -3.150363  1.360978  0.934160
O    -3.718459  2.082967  1.750285
H    -1.164698  0.587850  2.488225
H    -2.788824  -0.704649  0.360065
C    -3.760561  -0.689005  2.282858
C    -3.558786  -2.175392  2.616607
C    -2.533054  -2.474542  3.716336
C    -2.286754  -3.969427  3.907036
N    -1.350247  -4.201781  5.011444
H    -4.761723  -0.545173  1.849011
H    -3.749259  -0.077273  3.196505
H    -3.297341  -2.727697  1.697263
H    -4.529550  -2.588538  2.933063
H    -2.878811  -2.048493  4.670922
H    -1.571387  -1.986599  3.499749
H    -1.954939  -4.402358  2.939170
H    -3.235188  -4.470165  4.160194
H    -1.194118  -5.200073  5.149244
H    -0.440195  -3.791855  4.794523
N    -2.798994  1.823490  -0.303398
C    -2.007787  1.154561  -1.322513
H    -3.003569  2.809731  -0.431587
H    -2.472902  0.213032  -1.647679
H    -0.981257  0.945427  -0.986613
H    -1.952545  1.807721  -2.199622
