33
Energy: -18208.9099593 eV PBE+vdW (tier 2 basis)
C    0.656228  0.336352  0.633525
C    0.012874  -0.209177  1.893020
O    0.672464  -0.880146  2.688880
H    0.604381  1.430542  0.580274
H    0.181555  -0.059181  -0.273284
H    1.703293  0.022526  0.649971
N    -1.313013  0.034983  2.179419
C    -2.458459  0.697913  1.539946
C    -3.638922  -0.284283  1.345670
O    -4.749017  0.006011  1.793204
H    -1.545806  -0.391492  3.074248
H    -2.864965  1.401124  2.283539
C    -2.173597  1.519325  0.275873
C    -3.390143  2.331553  -0.183215
C    -3.132536  3.207165  -1.418133
C    -2.208206  4.414546  -1.220984
N    -0.793502  4.027827  -1.072805
H    -1.844305  0.876310  -0.553649
H    -1.348657  2.212612  0.474616
H    -3.736750  2.969924  0.646232
H    -4.230279  1.655242  -0.401778
H    -4.101537  3.590895  -1.772493
H    -2.742594  2.585570  -2.244091
H    -2.502349  4.945153  -0.301487
H    -2.376761  5.121138  -2.056584
H    -0.449046  3.628775  -1.947834
H    -0.220010  4.852096  -0.891781
N    -3.447751  -1.455426  0.665835
C    -2.241876  -2.027527  0.086971
H    -4.292054  -2.018387  0.636439
H    -1.726316  -1.313257  -0.566780
H    -2.535878  -2.881250  -0.533654
H    -1.531186  -2.380074  0.847290
