33
Energy: -18209.1426674 eV PBE+vdW (tier 2 basis)
C    0.322393  -1.833509  0.063258
C    0.336303  -0.565824  0.891695
O    1.212632  0.287199  0.761357
H    -0.678644  -2.143124  -0.256795
H    0.744651  -2.663265  0.648230
H    0.959857  -1.667982  -0.809385
N    -0.640191  -0.393659  1.848117
C    -1.830427  -1.191411  2.154781
C    -1.508522  -2.689519  2.376584
O    -2.066710  -3.575983  1.735247
H    -0.535718  0.489702  2.338046
H    -2.173537  -0.811939  3.133225
C    -2.986037  -1.008443  1.161754
C    -3.443693  0.444840  1.032601
C    -4.607447  0.616715  0.053959
C    -5.046994  2.070465  -0.108785
N    -6.193182  2.169678  -1.021520
H    -3.818663  -1.645860  1.492142
H    -2.689538  -1.400568  0.178135
H    -2.597895  1.071363  0.706150
H    -3.743717  0.826768  2.024848
H    -5.474220  0.020454  0.378867
H    -4.312807  0.216491  -0.931902
H    -4.172501  2.678262  -0.418778
H    -5.368301  2.463641  0.868940
H    -6.512549  3.135836  -1.091763
H    -5.919229  1.888751  -1.964456
N    -0.582756  -2.988994  3.337676
C    0.145308  -2.099314  4.227820
H    -0.412199  -3.986265  3.419834
H    0.513285  -2.685557  5.077497
H    -0.508091  -1.314141  4.631057
H    1.002180  -1.616066  3.737160
