33
Energy: -18209.0176047 eV PBE+vdW (tier 2 basis)
C    1.268546  0.400885  0.102906
C    0.722423  0.648958  1.499859
O    1.261615  1.449387  2.263838
H    1.286306  1.354391  -0.439153
H    0.698812  -0.332016  -0.481373
H    2.306089  0.055704  0.191292
N    -0.380142  -0.093969  1.819603
C    -1.159756  -0.105088  3.068450
C    -2.401659  0.821916  2.922211
O    -3.486360  0.299857  2.638920
H    -0.776483  -0.653705  1.073861
H    -1.635730  -1.095419  3.075027
C    -0.312871  -0.013696  4.353922
C    -0.972825  -0.641143  5.593657
C    -2.326516  -0.038400  6.026409
C    -3.524462  -0.942488  5.704397
N    -4.784896  -0.196525  5.794561
H    -0.021424  1.018621  4.571593
H    0.628212  -0.545750  4.153241
H    -0.247725  -0.552926  6.415217
H    -1.096107  -1.724887  5.426673
H    -2.481941  0.938487  5.542968
H    -2.330170  0.173809  7.104692
H    -3.557131  -1.764153  6.436785
H    -3.373443  -1.410024  4.713181
H    -5.574398  -0.842414  5.806421
H    -4.895668  0.360672  4.944240
N    -2.308701  2.173943  3.049257
C    -1.208276  3.039997  3.448873
H    -3.216118  2.614489  2.923607
H    -1.205847  3.222029  4.535578
H    -1.323155  4.005146  2.940276
H    -0.243534  2.616951  3.149335
