33
Energy: -18209.3488466 eV PBE+vdW (tier 2 basis)
C    -1.225033  0.780662  0.035178
C    -0.252163  0.620216  1.191260
O    0.795475  1.260575  1.243741
H    -1.007233  1.730655  -0.460330
H    -2.278004  0.762887  0.347595
H    -1.077751  -0.028899  -0.693709
N    -0.578160  -0.277482  2.173224
C    -1.741403  -1.128622  2.296865
C    -1.793173  -1.582154  3.775847
O    -0.827226  -1.473597  4.531256
H    0.073214  -0.340366  2.956988
H    -2.658049  -0.538515  2.120300
C    -1.775706  -2.328841  1.301476
C    -0.452651  -3.076481  1.067276
C    0.225447  -3.691216  2.300949
C    -0.626512  -4.705564  3.082063
N    -0.144585  -5.046895  4.424853
H    -2.122790  -1.943782  0.331902
H    -2.560178  -3.027734  1.631311
H    0.259103  -2.388585  0.587155
H    -0.655005  -3.864846  0.323835
H    0.528494  -2.891929  2.992170
H    1.159582  -4.179120  1.979539
H    -0.724804  -5.639231  2.505815
H    -1.652059  -4.324435  3.197951
H    -0.009689  -4.186491  4.960975
H    0.773628  -5.490564  4.368562
N    -2.978685  -2.109842  4.176127
C    -3.150425  -2.713027  5.488784
H    -3.721301  -2.211592  3.495206
H    -4.215578  -2.726509  5.743131
H    -2.610011  -2.115193  6.230487
H    -2.757260  -3.740892  5.521514
