33
Energy: -18209.1933663 eV PBE+vdW (tier 2 basis)
C    -0.404608  -1.306956  0.452796
C    -0.094391  -0.493973  1.703701
O    1.057127  -0.390786  2.125069
H    0.524846  -1.779395  0.124473
H    -0.779416  -0.664732  -0.357826
H    -1.155185  -2.088726  0.638476
N    -1.141503  0.102288  2.354452
C    -2.489704  0.222989  1.857891
C    -2.666780  1.487171  0.985296
O    -1.950666  2.480287  1.092209
H    -0.860990  0.778728  3.092372
H    -2.676017  -0.637465  1.202709
C    -3.572275  0.147385  2.996398
C    -3.128987  0.408601  4.448690
C    -3.129287  1.857805  4.959710
C    -2.158609  2.839465  4.296890
N    -0.788371  2.306894  4.255331
H    -3.985642  -0.870169  2.965327
H    -4.406186  0.821033  2.743223
H    -2.143946  -0.049191  4.614727
H    -3.822403  -0.153656  5.092354
H    -2.913908  1.822130  6.041425
H    -4.144734  2.279394  4.875041
H    -2.234134  3.809213  4.823859
H    -2.450623  3.026069  3.255849
H    -0.192931  2.893100  3.671011
H    -0.367596  2.271578  5.184396
N    -3.688958  1.453230  0.073029
C    -4.541583  0.329766  -0.281795
H    -3.759752  2.300519  -0.481300
H    -3.967949  -0.523030  -0.677091
H    -5.232839  0.656240  -1.065879
H    -5.146506  -0.019675  0.566568
