33
Energy: -18209.5188909 eV PBE+vdW (tier 2 basis)
C    2.425501  0.222750  0.640584
C    1.037037  0.107618  1.241685
O    0.124167  0.877179  0.939859
H    2.817576  1.225508  0.850674
H    2.346829  0.124021  -0.449242
H    3.133003  -0.525916  1.017536
N    0.870310  -0.908635  2.137350
C    -0.384810  -1.137226  2.827307
C    -0.034690  -1.705090  4.208669
O    0.890011  -2.506603  4.351598
H    1.639298  -1.514852  2.409076
H    -0.889407  -0.162071  2.913251
C    -1.298792  -2.100340  2.034540
C    -2.686121  -2.318139  2.640229
C    -3.595724  -3.171250  1.752454
C    -4.982456  -3.453386  2.355957
N    -5.034571  -4.271715  3.571684
H    -0.774514  -3.063126  1.930221
H    -1.396567  -1.675067  1.024674
H    -3.170673  -1.340620  2.814451
H    -2.585901  -2.796435  3.628237
H    -3.098578  -4.131908  1.532466
H    -3.730832  -2.667406  0.780578
H    -5.605594  -3.951516  1.597973
H    -5.484928  -2.498039  2.578821
H    -4.591709  -5.177959  3.412283
H    -4.521444  -3.828884  4.334080
N    -0.826574  -1.278095  5.229113
C    -0.697147  -1.766364  6.589220
H    -1.549104  -0.601035  5.015733
H    0.146741  -2.463621  6.610070
H    -1.605627  -2.294322  6.912223
H    -0.497713  -0.942456  7.287645
