33
Energy: -18209.2529211 eV PBE+vdW (tier 2 basis)
C    0.076281  -0.020892  0.193612
C    0.059262  -0.012319  1.709929
O    1.091375  0.021283  2.377694
H    0.751284  -0.813405  -0.150259
H    0.488379  0.934540  -0.156365
H    -0.912315  -0.165817  -0.259740
N    -1.185594  -0.048602  2.280348
C    -1.397924  0.067064  3.718944
C    -2.318808  -1.075344  4.201147
O    -3.443708  -0.864242  4.653826
H    -1.997780  -0.046892  1.674660
H    -0.398115  -0.079001  4.155597
C    -1.907581  1.448191  4.163491
C    -3.107723  2.026330  3.388322
C    -2.728697  2.937079  2.214667
C    -3.932546  3.486329  1.429850
N    -4.865558  4.360234  2.147186
H    -1.059829  2.147335  4.098409
H    -2.162946  1.359056  5.227663
H    -3.723296  2.600778  4.096613
H    -3.763614  1.210349  3.044868
H    -2.071743  2.401638  1.509146
H    -2.128309  3.783790  2.591458
H    -4.518680  2.644510  1.025610
H    -3.563412  4.044609  0.555646
H    -5.303759  3.866442  2.924802
H    -4.371376  5.157848  2.550169
N    -1.824436  -2.346205  4.106884
C    -0.544424  -2.801830  3.590944
H    -2.496763  -3.050226  4.396634
H    -0.582435  -3.021125  2.512237
H    0.239055  -2.053161  3.752368
H    -0.250449  -3.715474  4.121573
