33
Energy: -18209.3516257 eV PBE+vdW (tier 2 basis)
C    -0.502366  0.362142  -0.027038
C    0.054325  0.167842  1.372179
O    1.194558  0.533602  1.661611
H    -0.148090  -0.448018  -0.679462
H    -0.095982  1.298997  -0.421376
H    -1.598076  0.388261  -0.073962
N    -0.752896  -0.409007  2.312498
C    -1.986613  -1.152000  2.144426
C    -2.538684  -1.388444  3.566342
O    -1.810839  -1.342549  4.556009
H    -0.350875  -0.491570  3.247579
H    -2.716926  -0.538670  1.589031
C    -1.838611  -2.504273  1.391122
C    -1.041382  -3.616264  2.094839
C    0.453199  -3.353321  2.347057
C    1.295300  -3.131191  1.078304
N    2.651981  -2.622456  1.276920
H    -1.409595  -2.289441  0.402314
H    -2.854199  -2.882173  1.189880
H    -1.144038  -4.524772  1.478411
H    -1.525568  -3.854185  3.055078
H    0.864345  -4.216440  2.895862
H    0.580553  -2.491425  3.015506
H    0.790544  -2.420996  0.407640
H    1.354601  -4.077524  0.514285
H    3.149855  -3.180204  1.972079
H    2.613302  -1.664696  1.632929
N    -3.864341  -1.689217  3.621473
C    -4.546112  -2.026658  4.857927
H    -4.395199  -1.682136  2.758800
H    -5.361123  -1.320259  5.066169
H    -3.810632  -1.968327  5.666613
H    -4.956761  -3.045178  4.820191
