33
Energy: -18209.1664753 eV PBE+vdW (tier 2 basis)
C    -0.121219  -0.494854  -0.141420
C    0.111331  -0.008375  1.279233
O    1.220546  0.331026  1.680505
H    -0.827925  0.149137  -0.683911
H    0.840494  -0.479467  -0.660282
H    -0.522930  -1.517571  -0.160117
N    -0.984509  0.052705  2.108260
C    -2.337517  -0.436147  1.842023
C    -3.276855  0.563151  2.549111
O    -3.622647  0.406544  3.720798
H    -0.762987  0.305985  3.068923
H    -2.498105  -0.378389  0.757122
C    -2.560106  -1.888270  2.296223
C    -3.710299  -2.611817  1.574417
C    -5.142818  -2.091443  1.791022
C    -5.859976  -2.583307  3.064904
N    -5.266744  -2.283913  4.368891
H    -2.695156  -1.891918  3.385622
H    -1.626299  -2.432329  2.090262
H    -3.675875  -3.676926  1.858196
H    -3.488686  -2.592485  0.493675
H    -5.758568  -2.412815  0.934382
H    -5.165987  -0.990245  1.765314
H    -6.881257  -2.167841  3.052515
H    -5.982869  -3.676743  3.001368
H    -4.446839  -2.866195  4.534168
H    -4.942462  -1.315106  4.408175
N    -3.667613  1.654334  1.831701
C    -3.218074  2.057312  0.508107
H    -4.211034  2.319091  2.373813
H    -3.714117  2.998086  0.248482
H    -3.491943  1.319084  -0.258872
H    -2.131291  2.223235  0.472709
