33
Energy: -18209.3170154 eV PBE+vdW (tier 2 basis)
C    -0.412771  -1.089367  0.742750
C    -0.116543  -0.981166  2.230638
O    0.609783  -1.788516  2.805506
H    -0.024988  -0.217377  0.195891
H    -1.489305  -1.158234  0.535471
H    0.081523  -1.988688  0.366652
N    -0.681244  0.067642  2.908095
C    -1.528595  1.125830  2.397019
C    -1.303142  2.343544  3.316178
O    -0.886307  2.206782  4.469049
H    -0.392163  0.184030  3.879628
H    -1.215030  1.389625  1.374494
C    -3.034567  0.731264  2.361480
C    -3.712233  0.657548  3.743421
C    -4.584602  1.885878  4.073818
C    -4.752189  2.159489  5.569997
N    -3.599415  2.907646  6.093825
H    -3.090290  -0.240243  1.852013
H    -3.576021  1.442533  1.716503
H    -2.939789  0.520811  4.515481
H    -4.337486  -0.244245  3.799224
H    -5.574281  1.750253  3.611262
H    -4.157051  2.793138  3.620073
H    -4.940912  1.200015  6.094021
H    -5.646451  2.781200  5.727810
H    -2.720419  2.418388  5.907356
H    -3.667728  3.007695  7.106538
N    -1.640225  3.548083  2.799053
C    -1.643618  4.759315  3.610230
H    -1.990872  3.590765  1.850414
H    -1.954662  5.599862  2.981638
H    -0.638974  4.959939  4.003992
H    -2.336432  4.654069  4.457968
