33
Energy: -18209.1472067 eV PBE+vdW (tier 2 basis)
C    0.231479  -0.011244  0.751947
C    -0.062254  -0.332967  2.206695
O    0.822522  -0.658286  2.994804
H    1.298681  -0.176116  0.583726
H    -0.004878  1.035753  0.513858
H    -0.343841  -0.646716  0.065326
N    -1.366127  -0.228033  2.625310
C    -2.559063  0.051676  1.830779
C    -3.516814  0.944771  2.655697
O    -4.642785  0.575896  2.981166
H    -1.499438  -0.508384  3.593632
H    -2.237445  0.654351  0.967371
C    -3.255443  -1.209147  1.287045
C    -3.535391  -2.312236  2.310974
C    -4.189634  -3.541482  1.671786
C    -4.412419  -4.701760  2.642861
N    -5.433422  -4.376782  3.648050
H    -2.619071  -1.617401  0.484713
H    -4.198242  -0.895948  0.814789
H    -4.183965  -1.901733  3.097939
H    -2.590420  -2.622139  2.788138
H    -3.554315  -3.899650  0.844404
H    -5.160120  -3.259687  1.233374
H    -3.434228  -4.996128  3.077442
H    -4.777548  -5.572005  2.077521
H    -5.621981  -5.186600  4.238386
H    -5.106085  -3.638163  4.271351
N    -3.048865  2.180250  3.011078
C    -1.781905  2.813137  2.682906
H    -3.711061  2.704495  3.574033
H    -0.945020  2.418303  3.275979
H    -1.871843  3.887497  2.877188
H    -1.537700  2.693683  1.618415
