33
Energy: -18209.2220924 eV PBE+vdW (tier 2 basis)
C    -1.612959  -1.083278  1.004446
C    -0.274899  -0.415998  1.265769
O    0.645719  -0.454253  0.454124
H    -2.409054  -0.332474  0.893717
H    -1.902429  -1.762263  1.818756
H    -1.532839  -1.650889  0.073941
N    -0.111666  0.219555  2.475670
C    -1.156003  0.598179  3.405921
C    -1.984174  1.794534  2.876705
O    -1.482164  2.693903  2.205064
H    0.729710  0.793017  2.493420
H    -1.829507  -0.264587  3.529631
C    -0.581882  0.925028  4.806541
C    0.336074  2.156197  4.915935
C    1.820730  1.959337  4.514007
C    2.343101  3.002499  3.504831
N    1.798438  2.974894  2.151379
H    -0.056209  0.026893  5.166582
H    -1.444444  1.067428  5.475316
H    0.299285  2.498158  5.959503
H    -0.100308  2.977255  4.327088
H    1.988647  0.948537  4.108431
H    2.449217  2.009566  5.417420
H    3.436248  2.902185  3.426051
H    2.164387  4.008866  3.919721
H    0.778794  3.033264  2.114015
H    2.102032  2.163526  1.614269
N    -3.297499  1.778394  3.243040
C    -4.222741  2.848669  2.918277
H    -3.635866  0.986611  3.776833
H    -5.076265  2.471492  2.338888
H    -3.677632  3.580840  2.313476
H    -4.597656  3.342663  3.825624
