33
Energy: -18209.2503456 eV PBE+vdW (tier 2 basis)
C    0.428900  -0.818742  0.138575
C    0.336664  -0.603067  1.637302
O    1.328233  -0.598923  2.362990
H    -0.532694  -0.732578  -0.382636
H    0.842714  -1.818500  -0.044180
H    1.132245  -0.089894  -0.281408
N    -0.928281  -0.409983  2.128145
C    -1.177527  -0.272529  3.560988
C    -2.485222  -1.022812  3.888604
O    -2.486930  -2.229347  4.112625
H    -1.717303  -0.460777  1.495077
H    -0.387513  -0.849975  4.057195
C    -1.091620  1.193232  4.023629
C    -1.140487  1.382020  5.553260
C    0.229558  1.418483  6.246001
C    1.072339  0.147221  6.118039
N    2.305137  0.278971  6.905211
H    -1.882323  1.784699  3.530168
H    -0.149059  1.600753  3.628815
H    -1.762279  0.591322  6.006587
H    -1.656955  2.326769  5.777843
H    0.067230  1.624944  7.317528
H    0.819879  2.265157  5.861628
H    1.372621  -0.004517  5.070829
H    0.453209  -0.728952  6.401872
H    2.100515  0.230490  7.904317
H    2.941157  -0.491077  6.700450
N    -3.625105  -0.268325  3.847776
C    -4.934147  -0.817710  4.146754
H    -3.528176  0.735711  3.755206
H    -5.662574  -0.530403  3.377117
H    -5.301349  -0.480196  5.127239
H    -4.838261  -1.908351  4.165882
