33
Energy: -18209.2897668 eV PBE+vdW (tier 2 basis)
C    -0.354683  -1.111445  0.017506
C    -0.340204  -0.073212  1.124594
O    0.577567  0.731047  1.260817
H    -1.271559  -1.713238  -0.016273
H    0.503761  -1.780847  0.156287
H    -0.222736  -0.603403  -0.945226
N    -1.425070  -0.094118  1.963167
C    -1.512985  0.780581  3.132116
C    -2.278985  0.029929  4.238996
O    -1.699114  -0.546120  5.152814
H    -2.132670  -0.807756  1.836459
H    -0.490079  0.904260  3.512736
C    -2.071315  2.169764  2.777871
C    -2.071329  3.135045  3.967373
C    -2.554175  4.552172  3.629785
C    -4.047677  4.649906  3.279351
N    -4.571593  5.994314  3.022644
H    -3.080054  2.070132  2.341424
H    -1.439242  2.573681  1.973062
H    -1.047576  3.189229  4.368849
H    -2.690560  2.727525  4.784844
H    -1.958123  4.957666  2.794421
H    -2.357976  5.209725  4.492487
H    -4.639250  4.211843  4.100731
H    -4.269625  4.041617  2.388936
H    -4.084801  6.419659  2.232168
H    -4.397501  6.602072  3.824841
N    -3.640217  0.009355  4.084651
C    -4.521569  -0.628182  5.045723
H    -4.048238  0.624202  3.389620
H    -3.916110  -1.310696  5.651058
H    -5.306856  -1.196078  4.530748
H    -4.994174  0.105061  5.716548
