33
Energy: -18209.320036 eV PBE+vdW (tier 2 basis)
C    -0.449317  0.470249  0.067417
C    -0.300795  0.528241  1.583235
O    0.736615  0.942896  2.101648
H    0.461735  0.889472  -0.367376
H    -1.310083  1.053940  -0.289870
H    -0.569769  -0.561305  -0.293006
N    -1.351781  0.111413  2.350528
C    -2.562532  -0.566389  1.906192
C    -3.766310  0.285285  2.372338
O    -4.188997  0.233486  3.527589
H    -1.178903  0.079224  3.371008
H    -2.541920  -0.596206  0.808957
C    -2.723254  -2.006525  2.437974
C    -1.462331  -2.880555  2.509359
C    -0.420110  -2.567016  3.604839
C    -0.962742  -2.234926  5.004402
N    -1.462401  -0.846951  5.120537
H    -3.459433  -2.503981  1.787082
H    -3.206143  -1.958363  3.423407
H    -0.952407  -2.884591  1.531872
H    -1.814007  -3.913529  2.661959
H    0.239717  -1.744932  3.297400
H    0.226996  -3.453621  3.699369
H    -0.131590  -2.344594  5.714478
H    -1.721939  -2.980067  5.305235
H    -1.235718  -0.456064  6.032322
H    -2.476370  -0.779556  5.013164
N    -4.284371  1.114237  1.423760
C    -5.324416  2.085922  1.707370
H    -3.836107  1.132036  0.515860
H    -6.130233  2.021110  0.964738
H    -4.927819  3.111736  1.717130
H    -5.728543  1.857241  2.698886
