33
Energy: -18209.2473978 eV PBE+vdW (tier 2 basis)
C    -0.789166  -0.115280  -0.573040
C    -0.094742  -0.553174  0.706764
O    0.777308  -1.421032  0.703774
H    -0.743029  0.973646  -0.716790
H    -1.849796  -0.403108  -0.572132
H    -0.290981  -0.609043  -1.411279
N    -0.477098  0.057312  1.869437
C    -1.502912  1.060607  2.075134
C    -1.135902  1.793876  3.378743
O    -0.404391  1.267547  4.217567
H    0.042461  -0.199573  2.708748
H    -1.470518  1.778939  1.240402
C    -2.952339  0.500222  2.150517
C    -3.362565  -0.236129  3.433036
C    -2.636912  -1.553600  3.751418
C    -2.660701  -2.608785  2.643266
N    -4.032991  -2.883968  2.187776
H    -3.102734  -0.157916  1.283442
H    -3.647619  1.340226  2.001018
H    -4.438451  -0.443727  3.342145
H    -3.252051  0.437421  4.297885
H    -3.102847  -1.979238  4.656730
H    -1.590231  -1.361915  4.026012
H    -2.124604  -3.504481  3.010478
H    -2.088855  -2.253667  1.774285
H    -4.575561  -3.310192  2.941335
H    -4.022349  -3.562578  1.426462
N    -1.672861  3.029260  3.590673
C    -2.555053  3.809114  2.740914
H    -1.439880  3.406956  4.504306
H    -2.401517  4.874114  2.950735
H    -3.618155  3.573859  2.903914
H    -2.323399  3.646847  1.681676
