33
Energy: -18209.288221 eV PBE+vdW (tier 2 basis)
C    -0.727443  -0.525683  -1.373619
C    -0.685150  0.081117  0.016383
O    0.252598  0.797979  0.371884
H    -1.742193  -0.719810  -1.743347
H    -0.175729  -1.476309  -1.373713
H    -0.211122  0.156633  -2.055753
N    -1.721083  -0.185606  0.865212
C    -2.775783  -1.174113  0.760865
C    -3.769898  -0.854422  1.899349
O    -3.438440  -0.190101  2.879318
H    -1.662299  0.251313  1.786408
H    -3.308637  -1.049683  -0.197862
C    -2.308213  -2.654279  0.844818
C    -1.563878  -3.095333  2.116169
C    -0.107032  -2.594434  2.244186
C    0.106474  -1.534466  3.331915
N    1.389726  -0.854555  3.134609
H    -1.676958  -2.860279  -0.032815
H    -3.204832  -3.282497  0.716182
H    -1.570561  -4.194635  2.117331
H    -2.140895  -2.798186  3.007074
H    0.231660  -2.177427  1.284190
H    0.569758  -3.436729  2.445191
H    0.124739  -2.028025  4.316551
H    -0.764970  -0.852217  3.355177
H    1.323218  -0.230801  2.325350
H    1.604620  -0.262186  3.936412
N    -5.010434  -1.390144  1.741650
C    -6.057117  -1.263618  2.739538
H    -5.207084  -1.907381  0.893267
H    -6.941078  -0.761802  2.323306
H    -5.658961  -0.658984  3.560595
H    -6.355072  -2.246256  3.131003
