33
Energy: -18209.523114 eV PBE+vdW (tier 2 basis)
C    -2.038302  -0.261309  -0.153612
C    -1.486616  -0.839930  1.132408
O    -0.510559  -1.602121  1.136680
H    -2.914794  0.381902  -0.008716
H    -2.303235  -1.084244  -0.828734
H    -1.247177  0.320787  -0.642830
N    -2.127029  -0.471769  2.274037
C    -1.687054  -0.849971  3.618075
C    -2.172655  -2.276110  4.019227
O    -2.907209  -2.479240  4.985830
H    -2.959686  0.101013  2.202418
H    -0.587786  -0.902795  3.569501
C    -2.089184  0.212633  4.645550
C    -3.573565  0.598818  4.672756
C    -3.906327  1.535331  5.836459
C    -5.376143  1.947765  5.874190
N    -5.630252  2.869774  6.989295
H    -1.475599  1.110429  4.471250
H    -1.810537  -0.178124  5.634139
H    -4.181482  -0.314226  4.746447
H    -3.860902  1.106703  3.733560
H    -3.285861  2.444573  5.792109
H    -3.648018  1.030272  6.782991
H    -6.004662  1.034673  5.894861
H    -5.628348  2.479449  4.942548
H    -6.603661  3.174747  6.986174
H    -5.482856  2.392571  7.880228
N    -1.674402  -3.248682  3.213565
C    -2.007954  -4.648953  3.377236
H    -1.071028  -2.948500  2.441326
H    -1.101325  -5.255344  3.510977
H    -2.559950  -5.033179  2.506937
H    -2.637043  -4.746960  4.268317
