33
Energy: -18209.5654656 eV PBE+vdW (tier 2 basis)
C    -1.160278  -0.140778  -0.446074
C    -1.161261  -0.270971  1.062595
O    -1.101588  -1.372816  1.621759
H    -1.211474  0.895997  -0.800211
H    -2.012343  -0.700947  -0.850690
H    -0.247251  -0.606588  -0.837316
N    -1.223377  0.895900  1.762956
C    -1.197874  0.944862  3.226247
C    -2.629651  0.698760  3.780673
O    -3.352536  1.613310  4.173571
H    -1.355520  1.767214  1.261823
H    -0.556315  0.108958  3.544428
C    -0.614856  2.268786  3.710756
C    -0.303571  2.278959  5.209728
C    0.298134  3.607482  5.676407
C    0.539211  3.686033  7.184665
N    1.557129  2.719684  7.625004
H    -1.329292  3.076052  3.483454
H    0.307554  2.466501  3.141790
H    0.394391  1.454698  5.431905
H    -1.229455  2.080299  5.771992
H    -0.381591  4.427483  5.392557
H    1.253833  3.785808  5.157551
H    -0.432206  3.576306  7.708415
H    0.915269  4.690046  7.429853
H    1.818032  2.899390  8.594274
H    1.184007  1.770150  7.605042
N    -2.982356  -0.614137  3.764904
C    -4.316219  -1.063428  4.112544
H    -2.353980  -1.243006  3.258975
H    -4.264595  -1.975198  4.721177
H    -4.924225  -1.271213  3.218472
H    -4.805748  -0.270595  4.687775
