33
Energy: -18209.377343 eV PBE+vdW (tier 2 basis)
C    0.878320  -0.327528  0.682359
C    0.458551  0.216069  2.034288
O    1.207647  0.182963  3.011581
H    0.129206  -0.180875  -0.105292
H    1.085329  -1.400398  0.783589
H    1.814073  0.159719  0.382645
N    -0.796141  0.760539  2.082598
C    -1.387398  1.234504  3.326892
C    -2.317551  0.130605  3.874111
O    -3.347438  -0.170430  3.267072
H    -1.424719  0.614846  1.299640
H    -0.541927  1.415631  4.000476
C    -2.172845  2.532332  3.115919
C    -2.704823  3.117992  4.428650
C    -3.429285  4.461372  4.278417
C    -4.755659  4.386846  3.521621
N    -5.429450  5.693443  3.541292
H    -3.003232  2.325606  2.424419
H    -1.504440  3.256132  2.624289
H    -1.861494  3.249210  5.126258
H    -3.385554  2.392921  4.904649
H    -2.761647  5.182042  3.773536
H    -3.634085  4.882120  5.274218
H    -5.415510  3.663957  4.026618
H    -4.586006  3.994152  2.500555
H    -4.883243  6.379070  3.016806
H    -6.334727  5.633501  3.074724
N    -1.947133  -0.495972  5.022807
C    -0.750640  -0.278691  5.828038
H    -2.607220  -1.206013  5.325773
H    -0.623670  -1.140546  6.492329
H    -0.829826  0.623239  6.454412
H    0.142694  -0.204287  5.194844
