33
Energy: -18209.2270575 eV PBE+vdW (tier 2 basis)
C    -0.506687  0.536561  0.165800
C    -0.593193  -0.505286  1.262387
O    0.364633  -1.198519  1.603204
H    0.490025  0.480214  -0.278950
H    -0.666705  1.549059  0.563704
H    -1.272062  0.364154  -0.604137
N    -1.813653  -0.655533  1.875205
C    -3.007450  0.150263  1.681031
C    -3.022894  1.543956  2.341290
O    -3.584772  2.469204  1.750639
H    -1.817842  -1.370694  2.597249
H    -3.084607  0.374584  0.609212
C    -4.260586  -0.657456  2.076039
C    -4.649542  -1.711527  1.025214
C    -5.651426  -1.223203  -0.035880
C    -5.267487  0.021644  -0.842897
N    -3.975197  -0.140637  -1.528267
H    -5.093456  0.042595  2.238423
H    -4.076630  -1.138671  3.051006
H    -5.098727  -2.579056  1.530736
H    -3.736278  -2.085459  0.538468
H    -6.617225  -1.012265  0.451554
H    -5.847183  -2.054816  -0.734267
H    -5.177974  0.893928  -0.177040
H    -6.103235  0.245578  -1.533016
H    -4.012290  -0.924504  -2.181970
H    -3.766064  0.689637  -2.082918
N    -2.436343  1.747985  3.557767
C    -1.827624  0.802455  4.483262
H    -2.519506  2.712404  3.863922
H    -1.712623  1.304282  5.450566
H    -0.836818  0.462995  4.152317
H    -2.465505  -0.076110  4.650111
