33
Energy: -18209.5505654 eV PBE+vdW (tier 2 basis)
C    0.297729  -0.111633  -0.386308
C    0.064002  -0.588835  1.031639
O    0.992715  -0.977392  1.750211
H    -0.618443  0.194060  -0.906028
H    0.782793  -0.914417  -0.955150
H    0.992669  0.737027  -0.360398
N    -1.226363  -0.554661  1.468469
C    -1.611973  -0.953981  2.822677
C    -1.779074  -2.497170  2.881548
O    -2.877217  -3.048484  2.823550
H    -1.964088  -0.314756  0.815609
H    -0.764468  -0.674449  3.464596
C    -2.878090  -0.215484  3.253265
C    -3.272121  -0.426165  4.721356
C    -2.238922  0.061015  5.741525
C    -2.733384  -0.055408  7.182079
N    -1.723318  0.446088  8.123663
H    -3.710445  -0.549521  2.614679
H    -2.720887  0.858298  3.062500
H    -3.492167  -1.491691  4.884098
H    -4.221005  0.107382  4.891362
H    -1.967539  1.111110  5.546936
H    -1.306056  -0.520566  5.644957
H    -3.042725  -1.103170  7.371937
H    -3.636680  0.562856  7.305116
H    -2.077617  0.411439  9.079621
H    -0.895041  -0.151236  8.103407
N    -0.590755  -3.151112  2.987194
C    -0.495049  -4.596370  2.919697
H    0.247705  -2.584323  2.840050
H    0.266339  -4.958182  3.621955
H    -0.235061  -4.944698  1.907838
H    -1.468591  -5.018831  3.189740
