33
Energy: -18209.3086195 eV PBE+vdW (tier 2 basis)
C    -0.667555  -1.143285  0.210622
C    -0.508907  -0.106771  1.313219
O    0.595117  0.304336  1.667454
H    -1.711915  -1.421908  0.020055
H    -0.099256  -2.041700  0.482528
H    -0.226791  -0.747448  -0.713004
N    -1.677172  0.317074  1.873273
C    -1.716301  1.347398  2.893221
C    -1.253952  0.955280  4.314151
O    -0.762881  1.821324  5.035297
H    -2.578392  -0.044001  1.529257
H    -0.998473  2.134998  2.618929
C    -3.129473  1.950401  2.970327
C    -3.577741  2.659251  1.669428
C    -4.890828  2.162786  1.041049
C    -4.806903  0.908135  0.167717
N    -4.449541  -0.310534  0.926452
H    -3.131867  2.658748  3.808167
H    -3.843410  1.157013  3.241664
H    -2.777788  2.586009  0.915891
H    -3.686334  3.732107  1.879682
H    -5.294822  2.959178  0.397209
H    -5.649623  2.012782  1.829383
H    -4.027479  1.054652  -0.596637
H    -5.764370  0.794736  -0.372559
H    -4.491736  -1.124112  0.310443
H    -5.144849  -0.478123  1.656867
N    -1.444039  -0.314875  4.787254
C    -2.037357  -1.489959  4.171489
H    -1.068752  -0.422478  5.724399
H    -2.974292  -1.250528  3.654007
H    -2.274430  -2.205677  4.968145
H    -1.363361  -1.982664  3.455154
