33
Energy: -18208.8323612 eV PBE+vdW (tier 2 basis)
C    -0.444550  0.115890  -0.469567
C    -0.041080  0.150786  0.993037
O    1.136357  0.222750  1.335605
H    0.455054  0.281008  -1.067867
H    -1.185046  0.887593  -0.716982
H    -0.870482  -0.862443  -0.731462
N    -1.034280  0.090232  1.940861
C    -2.482580  -0.042409  1.786543
C    -2.828025  -1.358941  1.028214
O    -2.379186  -2.408162  1.483042
H    -0.661214  0.003792  2.880509
H    -2.834317  -0.307818  2.794758
C    -3.170977  1.286296  1.424438
C    -2.868101  2.417673  2.421625
C    -3.276041  2.161696  3.878489
C    -4.769539  1.911390  4.088999
N    -5.061008  1.725724  5.514291
H    -4.256627  1.115246  1.376351
H    -2.867239  1.627459  0.426133
H    -3.374690  3.327011  2.060728
H    -1.791226  2.637687  2.389175
H    -2.979209  3.040350  4.474627
H    -2.716185  1.317004  4.310059
H    -5.074070  0.986514  3.574408
H    -5.341053  2.735235  3.612547
H    -4.876200  2.586487  6.031438
H    -6.046339  1.505899  5.657652
N    -3.651385  -1.399958  -0.068210
C    -4.172373  -0.375826  -0.962588
H    -3.783885  -2.362798  -0.364308
H    -4.603199  -0.884957  -1.831414
H    -3.388082  0.297294  -1.331587
H    -4.967081  0.226240  -0.502478
