33
Energy: -18209.409186 eV PBE+vdW (tier 2 basis)
C    -1.314393  -1.535427  0.272608
C    -1.269349  -1.774605  1.770304
O    -1.336508  -2.904239  2.257627
H    -1.263184  -0.475659  -0.005222
H    -2.240390  -1.968635  -0.125183
H    -0.477076  -2.068307  -0.195162
N    -1.135806  -0.654341  2.537407
C    -1.175377  -0.708092  3.983839
C    -1.714677  0.649255  4.457686
O    -1.719991  1.627709  3.706036
H    -1.214480  0.281381  2.143636
H    -1.863583  -1.521062  4.265119
C    0.208497  -1.031672  4.602642
C    1.273529  0.042750  4.367958
C    2.680566  -0.358881  4.827033
C    2.836848  -0.524187  6.338820
N    4.242671  -0.776473  6.684667
H    0.528896  -1.987119  4.160997
H    0.079592  -1.220918  5.677806
H    0.980457  0.980083  4.869785
H    1.308436  0.277098  3.293543
H    3.405545  0.399498  4.495676
H    2.970899  -1.300224  4.327922
H    2.146646  -1.310073  6.704658
H    2.536074  0.413429  6.834113
H    4.352281  -0.869974  7.694620
H    4.550188  -1.662561  6.280109
N    -2.160176  0.747648  5.741317
C    -2.272265  -0.287046  6.754543
H    -2.439397  1.691277  5.992319
H    -2.461227  -1.263338  6.294213
H    -3.123617  -0.059116  7.406983
H    -1.368830  -0.366263  7.378822
