33
Energy: -18209.5388434 eV PBE+vdW (tier 2 basis)
C    1.041307  -0.276979  -0.026764
C    -0.259060  -0.141197  0.743725
O    -1.358968  -0.271982  0.204847
H    1.935720  -0.116330  0.587352
H    1.037106  0.443978  -0.853529
H    1.086661  -1.280293  -0.468562
N    -0.123820  0.121691  2.075789
C    -1.263204  0.378452  2.930666
C    -0.755869  1.249826  4.093115
O    0.447154  1.398116  4.313930
H    0.776487  0.361587  2.487039
H    -2.009764  0.938974  2.343697
C    -1.939167  -0.922321  3.430344
C    -1.057195  -1.792672  4.325246
C    -1.729061  -3.108754  4.725543
C    -0.846262  -3.994338  5.617134
N    -1.416201  -5.276344  6.041431
H    -2.247333  -1.480772  2.534449
H    -2.869108  -0.658853  3.961160
H    -0.776042  -1.233700  5.233552
H    -0.113320  -2.008932  3.799683
H    -2.004925  -3.672959  3.818166
H    -2.675678  -2.898675  5.253728
H    -0.568086  -3.436150  6.525547
H    0.100354  -4.207165  5.095169
H    -1.658799  -5.844150  5.228093
H    -2.286024  -5.126849  6.555106
N    -1.731140  1.807431  4.859455
C    -1.451808  2.616942  6.030934
H    -2.695809  1.656822  4.589375
H    -1.823560  3.643117  5.903720
H    -0.365143  2.647596  6.159723
H    -1.907444  2.181886  6.931141
