33
Energy: -18209.508603 eV PBE+vdW (tier 2 basis)
C    -5.638363  3.996527  2.827347
C    -4.218279  3.599505  2.468864
O    -3.463025  4.349161  1.849036
H    -6.191263  3.218046  3.367143
H    -6.177093  4.246082  1.904947
H    -5.605637  4.904139  3.442806
N    -3.836775  2.356579  2.883864
C    -2.527342  1.807309  2.588576
C    -2.710458  0.293634  2.418720
O    -3.494101  -0.336760  3.130587
H    -4.482287  1.727090  3.352724
H    -2.184078  2.274952  1.652349
C    -1.511076  2.133491  3.707709
C    -0.072798  1.700081  3.419541
C    0.909268  2.151047  4.503538
C    2.344036  1.697123  4.241495
N    3.245657  2.183699  5.292908
H    -1.868622  1.672449  4.641746
H    -1.547053  3.223451  3.851616
H    0.246144  2.115896  2.447271
H    -0.021514  0.603641  3.319009
H    0.577945  1.755232  5.479419
H    0.897454  3.247787  4.597126
H    2.689740  2.123192  3.286237
H    2.355495  0.594666  4.115498
H    4.210818  1.926830  5.086279
H    3.016030  1.747035  6.187025
N    -1.938038  -0.279906  1.457134
C    -1.912238  -1.709387  1.210852
H    -1.334012  0.324199  0.912891
H    -2.183648  -1.935718  0.170899
H    -2.645254  -2.172174  1.879627
H    -0.919634  -2.132895  1.420220
