33
Energy: -18209.2316209 eV PBE+vdW (tier 2 basis)
C    1.349003  0.449374  0.536027
C    0.698939  1.050807  1.766167
O    1.089054  2.108083  2.261163
H    1.068643  1.058805  -0.333618
H    1.057740  -0.590816  0.344849
H    2.437968  0.506551  0.644413
N    -0.339788  0.333617  2.291088
C    -1.246770  0.861512  3.314824
C    -1.685836  2.298171  2.911214
O    -2.150785  2.493623  1.791447
H    -0.683750  -0.441548  1.738400
H    -2.178650  0.291393  3.177118
C    -0.816178  0.594298  4.774561
C    0.503666  1.186709  5.302255
C    1.747846  0.341504  5.002979
C    3.062374  1.041945  5.356603
N    3.144249  2.364579  4.726449
H    -0.792136  -0.500258  4.904583
H    -1.652649  0.937463  5.404210
H    0.419382  1.305839  6.394633
H    0.683506  2.191923  4.897454
H    1.768019  0.073073  3.937283
H    1.693938  -0.610675  5.555332
H    3.893700  0.362166  5.082505
H    3.122704  1.181799  6.449732
H    2.881649  2.317506  3.738779
H    4.090414  2.737675  4.780186
N    -1.628539  3.255747  3.874975
C    -1.957032  4.638029  3.574412
H    -1.033869  3.077177  4.675399
H    -2.232455  5.158317  4.499002
H    -2.803463  4.655445  2.880245
H    -1.114645  5.164472  3.099610
