33
Energy: -18209.015095 eV PBE+vdW (tier 2 basis)
C    0.402566  0.660546  0.238708
C    0.141565  0.913724  1.708601
O    0.983769  1.456829  2.425699
H    1.208356  1.328233  -0.078587
H    0.723917  -0.381689  0.109742
H    -0.474237  0.813499  -0.401831
N    -1.040755  0.487904  2.263657
C    -2.302642  0.050544  1.674480
C    -2.086469  -0.992481  0.547725
O    -1.321360  -1.937113  0.709617
H    -1.062384  0.669879  3.263073
H    -2.764957  -0.582244  2.451708
C    -3.319258  1.198466  1.446162
C    -3.013091  2.362720  0.480896
C    -1.892360  3.349502  0.851388
C    -1.944216  3.932863  2.262798
N    -0.780043  4.801360  2.473973
H    -3.529683  1.621517  2.440069
H    -4.273762  0.733343  1.146301
H    -3.952499  2.931074  0.383912
H    -2.801044  1.983311  -0.532643
H    -1.920021  4.186237  0.137472
H    -0.907795  2.886255  0.710543
H    -2.013539  3.115559  3.006305
H    -2.855314  4.541895  2.379882
H    0.066251  4.227821  2.503797
H    -0.842103  5.263270  3.381274
N    -2.845223  -0.831083  -0.573784
C    -2.805682  -1.767643  -1.680955
H    -3.428077  -0.007945  -0.652183
H    -3.807410  -2.161041  -1.901052
H    -2.150107  -2.594795  -1.389834
H    -2.401487  -1.296359  -2.588238
