33
Energy: -18209.1176361 eV PBE+vdW (tier 2 basis)
C    0.609895  -0.997044  0.745750
C    0.038478  -0.133563  1.857583
O    0.742657  0.383827  2.719271
H    1.258505  -0.374687  0.115815
H    1.239404  -1.776476  1.191449
H    -0.151552  -1.467961  0.110886
N    -1.320798  0.030772  1.830413
C    -2.026181  0.886527  2.772421
C    -2.131415  0.363637  4.224633
O    -2.150276  1.181748  5.140700
H    -1.848669  -0.397330  1.079940
H    -1.434627  1.805110  2.900757
C    -3.429554  1.250708  2.248530
C    -3.484680  2.407756  1.239829
C    -2.761909  2.188133  -0.093500
C    -2.920210  3.353110  -1.074227
N    -4.315000  3.518319  -1.509301
H    -4.040400  1.528593  3.118268
H    -3.903821  0.349844  1.819474
H    -3.082992  3.312752  1.725670
H    -4.549748  2.609433  1.043136
H    -3.145733  1.274545  -0.578887
H    -1.686186  2.037667  0.082973
H    -2.321705  3.138912  -1.971365
H    -2.486038  4.265862  -0.618236
H    -4.875444  3.952768  -0.775908
H    -4.362625  4.147886  -2.309793
N    -2.254305  -0.974082  4.480777
C    -2.373241  -2.113008  3.586319
H    -2.296027  -1.160938  5.477684
H    -3.079923  -1.919462  2.769146
H    -2.771416  -2.956284  4.162920
H    -1.409591  -2.418915  3.153732
