33
Energy: -18209.1802295 eV PBE+vdW (tier 2 basis)
C    1.107075  0.013020  0.933534
C    0.408477  -0.969506  1.858631
O    0.856550  -2.089856  2.087741
H    0.539772  0.934547  0.751462
H    1.304593  -0.482796  -0.024411
H    2.078568  0.276369  1.371042
N    -0.764096  -0.528672  2.406988
C    -1.500796  -1.283546  3.413220
C    -1.930716  -2.707226  3.007023
O    -1.888652  -3.600141  3.851889
H    -1.053186  0.427686  2.236811
H    -0.838649  -1.462530  4.271044
C    -2.704447  -0.437592  3.869193
C    -3.560121  -1.047825  4.987426
C    -2.866193  -1.328261  6.329696
C    -2.300638  -0.113149  7.070877
N    -1.049343  0.377398  6.463844
H    -3.354667  -0.243038  2.999657
H    -2.299061  0.527938  4.207063
H    -4.004200  -1.989665  4.631516
H    -4.405109  -0.362021  5.163979
H    -2.074743  -2.082281  6.192358
H    -3.607697  -1.806017  6.988552
H    -2.185186  -0.377956  8.139744
H    -3.030749  0.712136  7.033410
H    -0.719791  1.207398  6.957623
H    -0.316107  -0.325511  6.573175
N    -2.452667  -2.952278  1.766049
C    -2.544607  -2.104537  0.590207
H    -2.657235  -3.938859  1.639513
H    -3.261812  -2.559815  -0.103367
H    -1.581765  -1.993946  0.067655
H    -2.920294  -1.106534  0.841642
