33
Energy: -18209.3656257 eV PBE+vdW (tier 2 basis)
C    0.354136  0.288782  -0.139875
C    0.190820  -0.101251  1.316206
O    1.095038  -0.650213  1.948673
H    1.216863  0.960484  -0.228339
H    -0.527581  0.780501  -0.568680
H    0.580313  -0.612754  -0.722687
N    -1.018246  0.207472  1.873428
C    -1.362486  -0.107086  3.256010
C    -2.373976  -1.272503  3.244014
O    -3.557654  -1.070475  2.967654
H    -1.753218  0.586713  1.286058
H    -0.418412  -0.400669  3.725799
C    -1.955812  1.126853  3.950619
C    -2.382255  0.962101  5.417389
C    -1.264066  0.860544  6.469248
C    -0.560735  -0.493234  6.617781
N    -1.498802  -1.546207  7.026741
H    -2.839646  1.434736  3.371245
H    -1.213661  1.936073  3.865980
H    -3.079921  0.115189  5.511456
H    -2.988051  1.845745  5.667333
H    -1.698142  1.106545  7.450201
H    -0.500375  1.628262  6.260752
H    0.189773  -0.398376  7.416472
H    0.008567  -0.733086  5.698677
H    -2.114485  -1.810707  6.257193
H    -0.995986  -2.389341  7.300983
N    -1.914786  -2.525475  3.527648
C    -0.548561  -2.991719  3.732868
H    -2.647739  -3.227975  3.473634
H    -0.431387  -3.970837  3.251993
H    -0.309629  -3.102293  4.801784
H    0.173988  -2.309507  3.270636
