33
Energy: -18209.0737915 eV PBE+vdW (tier 2 basis)
C    -1.134215  1.793740  0.205799
C    -0.594552  1.330410  1.549468
O    -0.122534  2.118162  2.361742
H    -1.127375  1.012700  -0.565442
H    -2.171015  2.128823  0.349684
H    -0.545211  2.650352  -0.136631
N    -0.671346  -0.031624  1.739831
C    -0.550436  -0.757193  2.999424
C    -1.919372  -0.761679  3.731351
O    -2.805509  0.038966  3.451956
H    -1.214509  -0.520176  1.036648
H    -0.338831  -1.797039  2.702624
C    0.627390  -0.293709  3.900999
C    0.282738  0.688048  5.023852
C    1.530608  1.277137  5.681498
C    1.224813  2.295717  6.793480
N    0.528378  3.523605  6.398602
H    1.100151  -1.189390  4.331968
H    1.379318  0.158054  3.240941
H    -0.331668  0.189115  5.792940
H    -0.324292  1.498141  4.599597
H    2.144835  1.767868  4.907022
H    2.153768  0.468987  6.104817
H    2.168885  2.589853  7.277705
H    0.621008  1.810604  7.578269
H    -0.383975  3.304484  5.996908
H    1.048511  3.999093  5.658947
N    -2.113630  -1.727747  4.682806
C    -1.173921  -2.707522  5.198036
H    -3.004916  -1.632211  5.160242
H    -0.477851  -2.285691  5.940470
H    -0.584938  -3.156015  4.387998
H    -1.736803  -3.516479  5.677370
