33
Energy: -18209.2187778 eV PBE+vdW (tier 2 basis)
C    -0.380470  0.825449  -0.149982
C    -0.209858  0.577042  1.334747
O    0.855263  0.755924  1.921416
H    -1.018930  1.702208  -0.330368
H    -0.852316  -0.024297  -0.661393
H    0.606857  1.011711  -0.579669
N    -1.316870  0.136140  2.023426
C    -2.679696  -0.001767  1.535391
C    -3.362882  1.308206  1.086136
O    -4.083148  1.293420  0.082249
H    -1.145534  -0.001295  3.015836
H    -2.683915  -0.616402  0.622658
C    -3.537202  -0.720368  2.597647
C    -4.962438  -1.091030  2.129390
C    -6.072856  -0.641681  3.088814
C    -6.275430  0.884476  3.179048
N    -6.715418  1.583441  1.971760
H    -3.588055  -0.086929  3.497653
H    -2.987569  -1.625434  2.895737
H    -5.021849  -2.179569  1.992830
H    -5.150638  -0.658534  1.136103
H    -5.868927  -1.031572  4.101703
H    -7.023800  -1.101014  2.772956
H    -5.342135  1.365078  3.515676
H    -7.009623  1.090007  3.973273
H    -7.611731  1.217109  1.649742
H    -6.052460  1.464925  1.202475
N    -3.207197  2.452345  1.809555
C    -2.490025  2.705654  3.052475
H    -3.755213  3.217639  1.427520
H    -2.808290  3.684231  3.427671
H    -1.400988  2.725936  2.914137
H    -2.732088  1.966483  3.827472
