33
Energy: -18209.263714 eV PBE+vdW (tier 2 basis)
C    0.382226  1.561545  -0.294692
C    0.328942  0.333509  0.601132
O    1.175209  -0.554490  0.531879
H    0.458131  2.487875  0.293037
H    -0.509152  1.643853  -0.931728
H    1.266088  1.473677  -0.931580
N    -0.697935  0.261079  1.505049
C    -1.786018  1.194048  1.713563
C    -2.255941  1.019360  3.166234
O    -2.090388  -0.052655  3.756093
H    -0.686089  -0.538219  2.137904
H    -1.418183  2.220065  1.565580
C    -2.991633  0.967229  0.757666
C    -3.616322  -0.443363  0.830170
C    -5.146022  -0.440391  0.955504
C    -5.685460  0.118737  2.287107
N    -5.337543  -0.595611  3.516398
H    -2.647973  1.177592  -0.264518
H    -3.750433  1.734130  0.974965
H    -3.192569  -0.999990  1.679177
H    -3.325656  -1.015974  -0.060281
H    -5.515712  -1.471757  0.834510
H    -5.586705  0.140367  0.126120
H    -6.783521  0.165591  2.227118
H    -5.357673  1.164270  2.409748
H    -4.325533  -0.672209  3.637155
H    -5.702428  -1.548331  3.493484
N    -2.916216  2.050618  3.759792
C    -3.240638  3.361146  3.225976
H    -3.308530  1.799561  4.663539
H    -3.334074  4.069958  4.056714
H    -4.185706  3.366640  2.660107
H    -2.442123  3.725270  2.569584
