33
Energy: -18209.0117942 eV PBE+vdW (tier 2 basis)
C    -0.107336  0.180998  -0.275094
C    -0.049425  -0.341609  1.151342
O    0.889126  -1.037577  1.538833
H    -0.089755  -0.675836  -0.960023
H    0.796998  0.771402  -0.467312
H    -0.989051  0.794759  -0.496496
N    -1.115081  0.014507  1.930912
C    -1.395083  -0.319871  3.336925
C    -0.995501  0.866234  4.261145
O    -1.892411  1.604439  4.681227
H    -1.782596  0.652063  1.513069
H    -2.491014  -0.280455  3.408372
C    -0.982936  -1.745735  3.752913
C    -1.770641  -2.295428  4.952422
C    -1.556259  -1.572623  6.302702
C    -2.815535  -0.848107  6.812759
N    -2.651237  -0.006846  7.998116
H    0.092830  -1.820021  3.943343
H    -1.171952  -2.394082  2.885154
H    -1.502235  -3.356596  5.052081
H    -2.846602  -2.288655  4.706892
H    -0.735438  -0.842883  6.223540
H    -1.232604  -2.295198  7.068309
H    -3.593609  -1.599510  7.027847
H    -3.216285  -0.205196  6.016242
H    -2.170538  -0.512997  8.743362
H    -2.077605  0.806124  7.769852
N    0.306122  1.126653  4.567277
C    1.529782  0.385531  4.299874
H    0.382872  1.937554  5.175508
H    1.439037  -0.214449  3.388249
H    2.349434  1.099417  4.149284
H    1.798216  -0.274692  5.140516
