33
Energy: -18209.556379 eV PBE+vdW (tier 2 basis)
C    1.593958  -3.335144  1.238002
C    0.637761  -2.387701  1.931949
O    0.208433  -1.370542  1.373491
H    2.494913  -2.780206  0.948489
H    1.122157  -3.696546  0.315806
H    1.884715  -4.196691  1.851278
N    0.274899  -2.727581  3.199961
C    -0.665353  -1.933533  3.992340
C    0.093379  -0.766705  4.681761
O    0.449449  -0.809414  5.858079
H    0.713967  -3.525892  3.644804
H    -1.367236  -1.500140  3.265238
C    -1.402533  -2.821897  4.991645
C    -2.553837  -2.131536  5.735902
C    -3.654051  -1.527612  4.849558
C    -4.328992  -2.499026  3.876294
N    -4.888659  -3.660842  4.580729
H    -0.678621  -3.184054  5.737697
H    -1.784109  -3.701521  4.450998
H    -2.142485  -1.342282  6.380829
H    -3.005153  -2.878405  6.403455
H    -3.260981  -0.678526  4.267568
H    -4.424806  -1.092145  5.507850
H    -3.590432  -2.879670  3.153179
H    -5.074280  -1.933795  3.283079
H    -5.635258  -3.365268  5.211986
H    -5.311249  -4.311742  3.919296
N    0.325110  0.278584  3.841365
C    1.134360  1.417883  4.227278
H    0.135940  0.108739  2.851100
H    1.188941  1.443502  5.320676
H    0.680632  2.348944  3.864240
H    2.158422  1.346764  3.829079
