33
Energy: -18208.6962607 eV PBE+vdW (tier 2 basis)
C    -0.477867  -0.016742  -0.727202
C    -0.055703  0.145210  0.717301
O    1.125402  0.325937  1.019269
H    0.266627  0.483853  -1.353353
H    -1.476144  0.373923  -0.955216
H    -0.489146  -1.088280  -0.964832
N    -0.992662  0.039205  1.718974
C    -2.452071  0.112918  1.720894
C    -3.059492  -0.889161  0.698888
O    -2.448351  -1.919200  0.429501
H    -0.553471  0.120965  2.631604
H    -2.747601  -0.366472  2.672681
C    -2.968840  1.566537  1.843442
C    -2.775130  2.564147  0.686693
C    -1.369503  3.143948  0.446869
C    -0.644418  3.690417  1.675623
N    0.678822  4.190143  1.280345
H    -2.490094  1.974530  2.746515
H    -4.035676  1.526878  2.099020
H    -3.457998  3.405856  0.888201
H    -3.129650  2.118910  -0.257104
H    -1.453114  3.958735  -0.287826
H    -0.718211  2.398341  -0.025211
H    -0.591384  2.909480  2.458237
H    -1.215573  4.530291  2.103942
H    1.146050  4.621263  2.078203
H    1.265641  3.399733  1.003088
N    -4.294333  -0.682647  0.132055
C    -5.391032  0.228449  0.435102
H    -4.540915  -1.493563  -0.428343
H    -6.252430  -0.085438  -0.164321
H    -5.163189  1.266340  0.163826
H    -5.692601  0.192450  1.492108
