33
Energy: -18209.3522631 eV PBE+vdW (tier 2 basis)
C    -1.932273  1.357216  0.026096
C    -1.472891  0.875142  1.391745
O    -0.409932  0.273136  1.535574
H    -2.921601  1.831426  0.024942
H    -1.940878  0.503983  -0.662569
H    -1.195189  2.076639  -0.353070
N    -2.311713  1.196671  2.427063
C    -2.180604  0.753278  3.822059
C    -3.220042  1.461684  4.707036
O    -3.695720  0.900569  5.688506
H    -3.232345  1.530263  2.162459
H    -2.430522  -0.316570  3.896085
C    -0.766178  0.939219  4.423355
C    -0.175069  2.346940  4.311142
C    1.301853  2.434531  4.722997
C    2.267539  1.605591  3.864435
N    2.165607  1.947050  2.438474
H    -0.108665  0.214497  3.931511
H    -0.842667  0.639392  5.479534
H    -0.750031  3.048823  4.935869
H    -0.262601  2.711263  3.275605
H    1.414146  2.123817  5.775267
H    1.610893  3.489414  4.666368
H    2.111962  0.527383  4.063271
H    3.291273  1.830365  4.197767
H    3.016822  1.666565  1.953416
H    1.406560  1.417411  2.002360
N    -3.553682  2.736698  4.334215
C    -4.413700  3.570677  5.155162
H    -2.971159  3.185232  3.634685
H    -5.024986  4.223377  4.520293
H    -3.836305  4.191849  5.857047
H    -5.066309  2.913475  5.738842
