33
Energy: -18208.744642 eV PBE+vdW (tier 2 basis)
C    0.345425  0.592932  0.666242
C    0.146150  0.404444  2.157412
O    1.097496  0.367739  2.933857
H    -0.210072  1.458798  0.283646
H    0.018714  -0.298274  0.113237
H    1.412684  0.748083  0.489418
N    -1.136052  0.272341  2.637456
C    -2.430495  0.192192  1.951647
C    -2.499266  -1.097626  1.078984
O    -2.444238  -2.174638  1.670129
H    -1.139761  0.030871  3.623436
H    -3.124406  -0.086305  2.755748
C    -2.921510  1.549812  1.414745
C    -4.437022  1.603101  1.124711
C    -5.311888  2.139319  2.267798
C    -5.348766  1.290840  3.539593
N    -6.348821  1.823237  4.473520
H    -2.352515  1.852872  0.528548
H    -2.671394  2.293239  2.186728
H    -4.801796  0.603693  0.832321
H    -4.608334  2.247403  0.249972
H    -6.347518  2.241732  1.909929
H    -4.975425  3.158976  2.525269
H    -4.333476  1.223762  3.980264
H    -5.649477  0.262651  3.281826
H    -6.414365  1.232738  5.302667
H    -6.069991  2.749388  4.801640
N    -2.624153  -1.090021  -0.286651
C    -2.680402  -0.033636  -1.287260
H    -2.674541  -2.043113  -0.635298
H    -3.595365  0.569268  -1.217821
H    -2.674974  -0.513541  -2.271817
H    -1.809962  0.632102  -1.244288
