33
Energy: -18209.3765684 eV PBE+vdW (tier 2 basis)
C    -0.020863  -1.593815  1.031627
C    -0.385773  -1.127553  2.426249
O    -0.017762  -1.736608  3.438094
H    1.070451  -1.551001  0.922099
H    -0.482781  -0.997832  0.235369
H    -0.320837  -2.642649  0.919323
N    -1.138448  0.001435  2.494981
C    -1.532217  0.573993  3.767859
C    -2.721167  1.494512  3.473708
O    -2.803874  2.067434  2.383180
H    -1.426426  0.522468  1.670101
H    -1.805614  -0.262690  4.427099
C    -0.360968  1.348400  4.433966
C    -0.381939  1.360918  5.969415
C    1.016465  1.497613  6.596139
C    1.797523  0.181109  6.714548
N    2.163554  -0.408872  5.420467
H    -0.329618  2.374303  4.037338
H    0.561893  0.863655  4.095557
H    -0.832145  0.422858  6.338219
H    -1.031317  2.172210  6.331649
H    0.914377  1.907678  7.613293
H    1.615178  2.223130  6.022394
H    1.213994  -0.507533  7.361424
H    2.732012  0.392612  7.255508
H    2.901026  -1.100171  5.549888
H    1.382055  -0.909888  4.987966
N    -3.655240  1.700982  4.443255
C    -3.815558  1.064964  5.739391
H    -4.357752  2.380420  4.164673
H    -4.880523  0.871034  5.919700
H    -3.428725  1.685515  6.560729
H    -3.293430  0.103686  5.764366
