33
Energy: -18209.416243 eV PBE+vdW (tier 2 basis)
C    -0.788465  0.296326  0.612359
C    -0.724678  0.499154  2.115272
O    -0.464224  1.585852  2.619655
H    0.131300  0.687273  0.161508
H    -1.623132  0.888035  0.214594
H    -0.921144  -0.750556  0.311023
N    -0.965557  -0.630471  2.867503
C    -1.133071  -0.572562  4.316796
C    0.050076  -1.151465  5.121076
O    -0.012078  -1.233475  6.346217
H    -1.305563  -1.453907  2.384028
H    -1.132042  0.503347  4.553418
C    -2.471619  -1.174973  4.790252
C    -2.574860  -2.706662  4.843763
C    -2.386374  -3.462539  3.523779
C    -2.718478  -4.965831  3.613204
N    -4.108145  -5.334473  3.884222
H    -3.264944  -0.759350  4.149161
H    -2.651477  -0.790481  5.802588
H    -3.572941  -2.942525  5.247472
H    -1.853340  -3.087662  5.583054
H    -1.336611  -3.382776  3.189637
H    -3.014767  -3.012087  2.732946
H    -2.094753  -5.425213  4.396371
H    -2.425320  -5.450098  2.669155
H    -4.411292  -4.995031  4.796694
H    -4.736313  -4.924431  3.191868
N    1.127440  -1.540505  4.387231
C    2.356820  -2.009340  4.993838
H    1.091498  -1.356158  3.390894
H    2.675465  -2.961754  4.549216
H    2.163426  -2.157205  6.061889
H    3.168160  -1.275455  4.881318
