33
Energy: -18209.4200785 eV PBE+vdW (tier 2 basis)
C    1.426593  2.487843  1.565370
C    0.859218  1.929700  2.856863
O    1.471815  2.066975  3.924012
H    1.605958  3.562026  1.695626
H    0.786582  2.334161  0.688203
H    2.399554  2.014898  1.381537
N    -0.343065  1.302466  2.737663
C    -1.153363  0.555685  3.723915
C    -1.604176  1.289257  5.011909
O    -2.699566  0.990856  5.493564
H    -0.731618  1.296991  1.802684
H    -2.107594  0.395739  3.206130
C    -0.602484  -0.851925  4.051534
C    0.635453  -0.930606  4.947310
C    1.036341  -2.374778  5.256477
C    2.269323  -2.502410  6.168322
N    2.156473  -1.972781  7.530596
H    -0.406737  -1.362714  3.094645
H    -1.430937  -1.396416  4.530848
H    0.429143  -0.397353  5.888750
H    1.481292  -0.404571  4.481167
H    1.245075  -2.909396  4.313305
H    0.187216  -2.903358  5.724492
H    3.127789  -2.002310  5.691819
H    2.543691  -3.565527  6.248335
H    1.359206  -2.390821  8.012864
H    1.991976  -0.966086  7.516826
N    -0.757385  2.190220  5.554517
C    -1.076365  2.867754  6.796715
H    0.184788  2.261821  5.146703
H    -0.421671  3.739328  6.905101
H    -0.942801  2.211040  7.670848
H    -2.122381  3.196545  6.786100
