33
Energy: -18209.2044711 eV PBE+vdW (tier 2 basis)
C    -1.257490  -1.562286  0.395486
C    -1.137963  -1.431574  1.897232
O    -0.078938  -1.665739  2.474072
H    -0.678546  -0.757190  -0.077556
H    -2.278718  -1.515873  0.007356
H    -0.802393  -2.517800  0.108650
N    -2.252920  -1.093076  2.650228
C    -3.552126  -0.519626  2.281605
C    -4.385889  -1.401268  1.318991
O    -5.222329  -0.919197  0.559497
H    -1.993009  -0.988998  3.628354
H    -4.140355  -0.590332  3.213351
C    -3.547396  0.987748  1.942690
C    -2.649456  1.517983  0.817202
C    -3.194054  1.374281  -0.607424
C    -2.259295  1.954855  -1.671325
N    -1.044920  1.134939  -1.829685
H    -3.256894  1.496323  2.874952
H    -4.593283  1.269374  1.749345
H    -1.643532  1.080421  0.883296
H    -2.500965  2.593628  1.008844
H    -4.167871  1.884290  -0.674590
H    -3.408633  0.322405  -0.847092
H    -1.937723  2.962260  -1.362789
H    -2.822923  2.081725  -2.615107
H    -0.344616  1.634030  -2.377646
H    -1.264783  0.286308  -2.353333
N    -4.188371  -2.739859  1.474704
C    -4.897061  -3.733425  0.694569
H    -3.433391  -3.026492  2.088625
H    -5.347282  -4.494217  1.346052
H    -4.231045  -4.233399  -0.024600
H    -5.690537  -3.219688  0.141462
