33
Energy: -18209.1949962 eV PBE+vdW (tier 2 basis)
C    -0.002284  -0.518758  -0.305322
C    0.227315  -0.237189  1.170397
O    1.351821  -0.073722  1.635835
H    0.974984  -0.551549  -0.793482
H    -0.610899  0.262883  -0.781614
H    -0.514005  -1.478703  -0.460809
N    -0.884522  -0.157245  1.974772
C    -2.273269  -0.458037  1.621254
C    -3.116655  0.572151  2.400072
O    -3.519870  0.354796  3.543816
H    -0.671869  -0.056537  2.965115
H    -2.382240  -0.268757  0.544742
C    -2.664571  -1.916610  1.905399
C    -3.910600  -2.406753  1.148879
C    -5.275692  -1.825332  1.558017
C    -5.915831  -2.438658  2.808595
N    -5.049866  -2.358400  3.988699
H    -2.789576  -2.063809  2.985445
H    -1.807726  -2.533059  1.593460
H    -3.956077  -3.502373  1.252186
H    -3.757187  -2.215426  0.072285
H    -5.982398  -1.983971  0.728404
H    -5.214000  -0.732537  1.680648
H    -6.116417  -3.505608  2.612320
H    -6.905933  -1.957038  2.945864
H    -5.543808  -2.684076  4.818410
H    -4.759299  -1.392601  4.159707
N    -3.357833  1.764173  1.781535
C    -2.803690  2.245435  0.525487
H    -3.832077  2.435047  2.378427
H    -3.196591  3.250268  0.339168
H    -3.104554  1.613438  -0.321631
H    -1.705611  2.306707  0.552343
