33
Energy: -18209.5616988 eV PBE+vdW (tier 2 basis)
C    -2.083056  -1.742634  -0.601965
C    -1.553099  -0.668289  0.329057
O    -0.395363  -0.253918  0.253880
H    -1.472331  -2.645860  -0.479438
H    -1.960322  -1.403319  -1.637904
H    -3.136460  -1.994680  -0.430092
N    -2.455834  -0.188389  1.235338
C    -2.092048  0.730944  2.295971
C    -2.733032  0.209374  3.591097
O    -3.772674  -0.451228  3.569577
H    -3.340236  -0.670385  1.382382
H    -0.994390  0.713969  2.371539
C    -2.577317  2.176270  2.023502
C    -1.979641  2.819908  0.768185
C    -0.475329  3.085670  0.849341
C    0.086109  3.711179  -0.425087
N    1.534186  3.926902  -0.297692
H    -2.341031  2.794496  2.905049
H    -3.675214  2.150679  1.945686
H    -2.512097  3.767774  0.586507
H    -2.194986  2.180919  -0.102824
H    0.052863  2.134904  1.022888
H    -0.246989  3.748171  1.700179
H    -0.384219  4.693034  -0.595357
H    -0.194358  3.070523  -1.285103
H    1.901233  4.380553  -1.134546
H    2.010335  3.025518  -0.229761
N    -2.090723  0.567859  4.735153
C    -2.589327  0.243680  6.058743
H    -1.222872  1.083932  4.651298
H    -1.869190  -0.373358  6.613346
H    -3.517883  -0.322238  5.931558
H    -2.800706  1.153045  6.638491
