33
Energy: -18209.2182851 eV PBE+vdW (tier 2 basis)
C    -0.200882  0.207601  -0.384748
C    0.138791  0.050054  1.088266
O    1.299126  0.003799  1.488429
H    -0.762521  1.132691  -0.577346
H    -0.806127  -0.631388  -0.755101
H    0.739330  0.243196  -0.940787
N    -0.912732  -0.025921  1.969357
C    -2.339690  -0.113621  1.663195
C    -3.070596  0.696311  2.757845
O    -3.480042  0.163034  3.786744
H    -0.633126  -0.206498  2.931238
H    -2.497027  0.371005  0.690299
C    -2.862445  -1.552041  1.590941
C    -4.274992  -1.644123  1.011092
C    -4.817735  -3.074875  0.997746
C    -6.222970  -3.208637  0.407116
N    -7.202413  -2.428893  1.176062
H    -2.840981  -1.977887  2.605097
H    -2.158239  -2.136579  0.977964
H    -4.276870  -1.247395  -0.019816
H    -4.963494  -1.009174  1.586483
H    -4.820989  -3.470338  2.028539
H    -4.138504  -3.729775  0.427620
H    -6.471110  -4.285695  0.330484
H    -6.223272  -2.814198  -0.621870
H    -7.296506  -2.810301  2.118837
H    -8.125241  -2.487076  0.746531
N    -3.200337  2.038839  2.545076
C    -2.641807  2.827167  1.458403
H    -3.614297  2.532452  3.329682
H    -2.930909  3.872636  1.607605
H    -3.036643  2.514819  0.480962
H    -1.543093  2.777810  1.430381
