33
Energy: -18209.2133914 eV PBE+vdW (tier 2 basis)
C    0.682093  1.154751  1.148597
C    0.094810  -0.082595  1.806227
O    0.757136  -1.105291  1.968272
H    1.727601  0.937476  0.915538
H    0.640863  2.034103  1.805130
H    0.153384  1.409087  0.220859
N    -1.212766  -0.028365  2.225531
C    -2.200632  1.039186  2.071487
C    -2.901323  1.201804  3.440339
O    -3.957873  0.626928  3.693945
H    -1.548733  -0.908045  2.612691
H    -1.653310  1.959426  1.827532
C    -3.236636  0.765317  0.973533
C    -2.636978  0.645185  -0.427222
C    -3.664376  0.278698  -1.507060
C    -4.784759  1.302046  -1.718948
N    -4.241630  2.628999  -2.043783
H    -3.968282  1.586472  1.004754
H    -3.794137  -0.145280  1.240517
H    -1.850314  -0.124717  -0.426920
H    -2.157795  1.597148  -0.704062
H    -4.126576  -0.692438  -1.266728
H    -3.134541  0.130313  -2.463241
H    -5.375512  1.405298  -0.796298
H    -5.477634  0.904054  -2.485557
H    -3.784001  2.609845  -2.956753
H    -4.992304  3.315575  -2.112749
N    -2.279056  1.986008  4.371330
C    -0.967936  2.607446  4.293570
H    -2.746943  1.977187  5.272462
H    -0.154722  1.867926  4.242333
H    -0.820534  3.215285  5.192485
H    -0.888731  3.281200  3.429055
