33
Energy: -18209.2776837 eV PBE+vdW (tier 2 basis)
C    -0.722115  -0.411816  -0.078747
C    -0.632350  0.207170  1.305185
O    0.246509  1.006382  1.610671
H    -1.600760  -1.052601  -0.224430
H    0.184880  -1.003055  -0.258237
H    -0.740109  0.393339  -0.822936
N    -1.614070  -0.184412  2.185749
C    -1.567388  0.182745  3.604853
C    -2.499900  -0.719071  4.419930
O    -2.156794  -1.210566  5.493327
H    -2.164417  -0.998050  1.933982
H    -0.552355  0.007142  3.989422
C    -1.931817  1.668608  3.834256
C    -1.710190  2.138325  5.288608
C    -2.898440  2.898435  5.896530
C    -4.140559  2.044212  6.173424
N    -3.889649  1.043623  7.215196
H    -2.980675  1.819815  3.531654
H    -1.319488  2.259277  3.142883
H    -0.821196  2.782857  5.322436
H    -1.467187  1.280200  5.933080
H    -3.182575  3.728715  5.228635
H    -2.583666  3.348723  6.849724
H    -4.514910  1.614720  5.218616
H    -4.939507  2.707713  6.536145
H    -4.762250  0.620020  7.527150
H    -3.299040  0.282240  6.875871
N    -3.746801  -0.904949  3.884533
C    -4.796705  -1.601541  4.607615
H    -4.018752  -0.309363  3.109118
H    -5.457033  -2.120627  3.902929
H    -5.395490  -0.912855  5.223671
H    -4.326177  -2.332792  5.272550
