33
Energy: -18209.1154553 eV PBE+vdW (tier 2 basis)
C    0.586938  -1.039175  0.568612
C    0.101100  -0.165157  1.712458
O    0.817441  0.138012  2.661445
H    -0.192047  -1.294041  -0.161087
H    1.006360  -1.963260  0.984231
H    1.400393  -0.516771  0.049269
N    -1.198101  0.257175  1.619502
C    -1.807428  1.165240  2.583399
C    -1.787187  0.695079  4.055369
O    -1.587261  1.524988  4.938070
H    -1.743713  -0.012544  0.809413
H    -1.217651  2.093611  2.621058
C    -3.239004  1.493359  2.120674
C    -3.933086  2.586246  2.937476
C    -5.371301  2.880307  2.486070
C    -5.526220  3.387373  1.049383
N    -4.846777  4.674873  0.857353
H    -3.852231  0.575856  2.138875
H    -3.173661  1.800802  1.063202
H    -3.328802  3.506789  2.905489
H    -3.947804  2.297350  3.997494
H    -5.801052  3.632776  3.163784
H    -5.980160  1.967627  2.597329
H    -6.596315  3.548917  0.852930
H    -5.200535  2.600353  0.338127
H    -3.834291  4.568208  0.927285
H    -5.033109  5.043278  -0.074932
N    -2.089043  -0.601898  4.373730
C    -2.297668  -1.766395  3.531176
H    -2.003508  -0.765765  5.372215
H    -2.775229  -2.544840  4.138108
H    -1.359081  -2.174353  3.125229
H    -2.972173  -1.546197  2.695710
