33
Energy: -18209.0798453 eV PBE+vdW (tier 2 basis)
C    -0.660470  0.082361  -0.025157
C    -0.483479  0.465140  1.435786
O    0.495781  1.109731  1.810919
H    -1.662704  -0.287525  -0.275625
H    0.070854  -0.700256  -0.269183
H    -0.429669  0.953740  -0.647776
N    -1.478590  0.011569  2.259211
C    -1.620571  0.064004  3.722392
C    -2.682333  1.088051  4.203743
O    -3.618092  0.677853  4.893974
H    -2.231967  -0.481307  1.794565
H    -2.109517  -0.882896  3.993644
C    -0.323972  0.145892  4.556433
C    0.403807  -1.192517  4.753112
C    1.007968  -1.838408  3.502779
C    1.862491  -3.083168  3.803058
N    3.101690  -2.883691  4.560720
H    -0.629215  0.511628  5.548240
H    0.359751  0.890005  4.133646
H    -0.284564  -1.908096  5.235646
H    1.209057  -1.011072  5.484315
H    1.621988  -1.099636  2.962806
H    0.205412  -2.137595  2.808630
H    2.134188  -3.562769  2.850163
H    1.256751  -3.822999  4.351484
H    2.906795  -2.525316  5.495624
H    3.693136  -2.189618  4.100916
N    -2.568730  2.410187  3.897331
C    -1.577544  3.122996  3.110569
H    -3.345063  2.949762  4.270183
H    -1.341768  4.076764  3.600251
H    -1.940246  3.335770  2.092413
H    -0.650433  2.549643  3.019226
