33
Energy: -18209.1338686 eV PBE+vdW (tier 2 basis)
C    0.278108  -1.710901  1.923731
C    0.020345  -0.394074  2.631244
O    0.837317  0.089241  3.411215
H    -0.296392  -2.508715  2.414969
H    -0.001001  -1.700801  0.862900
H    1.343710  -1.936936  2.016177
N    -1.173614  0.248538  2.401402
C    -2.285371  -0.107874  1.526505
C    -2.802951  -1.539646  1.840882
O    -3.010977  -1.884897  2.998972
H    -1.290052  1.063605  2.993823
H    -3.120340  0.528753  1.861124
C    -2.025044  0.235691  0.045333
C    -1.666714  1.710248  -0.172832
C    -1.446219  2.091595  -1.641527
C    -0.204808  1.463468  -2.277617
N    -0.058281  1.913480  -3.666783
H    -2.933813  0.011835  -0.538462
H    -1.219960  -0.402209  -0.351754
H    -0.765724  1.952979  0.411113
H    -2.476026  2.334427  0.239868
H    -1.351833  3.188291  -1.706486
H    -2.327205  1.827102  -2.247883
H    0.673376  1.681739  -1.636056
H    -0.306472  0.367512  -2.302588
H    0.125004  2.917733  -3.696169
H    0.742409  1.461871  -4.108484
N    -3.034523  -2.346685  0.766460
C    -3.537095  -3.700566  0.905036
H    -2.794010  -2.008190  -0.156278
H    -4.435512  -3.850864  0.291523
H    -3.790384  -3.852275  1.959425
H    -2.779008  -4.441784  0.613231
