33
Energy: -18209.1960793 eV PBE+vdW (tier 2 basis)
C    1.178494  -0.086480  0.536197
C    0.711482  -1.275370  1.359396
O    1.463761  -2.198260  1.658969
H    1.078747  0.858457  1.088937
H    0.605342  0.012725  -0.396157
H    2.232225  -0.243608  0.292591
N    -0.599122  -1.274105  1.774862
C    -1.657938  -0.335538  1.403303
C    -2.533442  -0.184856  2.666040
O    -3.485919  -0.932705  2.884268
H    -0.882481  -2.126453  2.253703
H    -1.178382  0.626544  1.178269
C    -2.461871  -0.782973  0.172034
C    -3.217960  0.352589  -0.537670
C    -4.346236  1.029690  0.253334
C    -5.562461  0.135171  0.501415
N    -6.484577  0.781490  1.448307
H    -3.142919  -1.590165  0.476505
H    -1.745767  -1.225284  -0.536070
H    -3.630895  -0.048138  -1.477649
H    -2.486864  1.120775  -0.841823
H    -4.677805  1.932288  -0.281370
H    -3.969804  1.391786  1.224260
H    -5.227399  -0.860800  0.840814
H    -6.099299  -0.010494  -0.449132
H    -7.362166  0.262452  1.489965
H    -6.085092  0.725177  2.387499
N    -2.169181  0.785985  3.553522
C    -0.991484  1.638313  3.507900
H    -2.720612  0.780522  4.405892
H    -0.057818  1.056696  3.518092
H    -0.999108  2.282719  4.392975
H    -0.994513  2.293662  2.625305
