33
Energy: -18209.4659747 eV PBE+vdW (tier 2 basis)
C    -0.074783  -0.064316  -0.010318
C    -0.067221  0.128717  1.492250
O    0.993405  0.176424  2.130162
H    -1.034601  0.179787  -0.481834
H    0.157939  -1.116920  -0.224515
H    0.717124  0.548479  -0.453901
N    -1.292883  0.216654  2.075522
C    -1.601405  0.207496  3.515560
C    -1.247389  1.519401  4.263703
O    -2.091440  2.054759  4.984085
H    -2.092747  0.194806  1.455674
H    -2.697018  0.176174  3.569942
C    -1.051840  -1.013209  4.282989
C    -1.667609  -2.371194  3.913062
C    -1.189320  -2.995335  2.594525
C    -1.613876  -4.454254  2.421656
N    -3.072437  -4.578124  2.275889
H    -1.260510  -0.811525  5.344300
H    0.041773  -1.052379  4.180804
H    -2.766661  -2.276869  3.911032
H    -1.425425  -3.073677  4.728815
H    -0.089449  -2.940829  2.550841
H    -1.573807  -2.428401  1.734761
H    -1.199096  -5.051497  3.259777
H    -1.159725  -4.849277  1.501127
H    -3.322210  -5.531224  2.012878
H    -3.539623  -4.399643  3.165458
N    0.022468  1.962362  4.097238
C    0.523176  3.151623  4.755893
H    0.636066  1.406874  3.489879
H    1.332605  2.906032  5.458789
H    -0.302722  3.606342  5.313238
H    0.905505  3.875827  4.022904
