33
Energy: -18209.1035275 eV PBE+vdW (tier 2 basis)
C    -0.204702  -0.180768  -0.213069
C    -0.211551  0.135220  1.273151
O    0.690181  0.792922  1.792263
H    -0.247403  0.763714  -0.770162
H    -1.030601  -0.824368  -0.539468
H    0.746824  -0.665444  -0.462703
N    -1.272746  -0.381064  1.964361
C    -1.592457  -0.165267  3.382737
C    -2.364924  1.177149  3.545236
O    -3.580333  1.155799  3.330098
H    -2.019132  -0.786671  1.412725
H    -2.397481  -0.884946  3.587551
C    -0.445033  -0.510095  4.340970
C    -0.897910  -0.494157  5.805354
C    0.235529  -0.725955  6.815015
C    0.976127  -2.059062  6.677412
N    0.075748  -3.200956  6.893706
H    0.417097  0.147673  4.192126
H    -0.099527  -1.517187  4.059001
H    -1.693937  -1.242068  5.958059
H    -1.370183  0.473521  6.036794
H    -0.180289  -0.664757  7.831935
H    0.973439  0.087766  6.720232
H    1.753508  -2.103762  7.454061
H    1.508563  -2.090067  5.706095
H    -0.577312  -3.299660  6.115538
H    0.608081  -4.070052  6.928018
N    -1.747004  2.342303  3.884599
C    -0.350398  2.662181  4.152543
H    -2.416950  3.103259  3.951540
H    -0.053972  2.405724  5.181879
H    -0.223196  3.743247  4.025580
H    0.308539  2.156687  3.438388
