33
Energy: -18209.251394 eV PBE+vdW (tier 2 basis)
C    0.908788  -0.583433  0.528793
C    0.798581  -0.843939  2.020710
O    1.651734  -1.502676  2.617468
H    0.373822  0.312211  0.189300
H    0.518622  -1.448493  -0.025256
H    1.971412  -0.491155  0.282920
N    -0.267209  -0.312617  2.691127
C    -1.503012  0.240877  2.170567
C    -2.226338  0.866342  3.378540
O    -1.974574  0.498780  4.526065
H    -0.290110  -0.489019  3.696532
H    -1.269701  1.034301  1.442089
C    -2.427904  -0.789068  1.460539
C    -3.057891  -1.888812  2.333409
C    -2.099228  -2.894081  2.994298
C    -1.252948  -3.724441  2.013129
N    -0.148095  -4.489199  2.590466
H    -1.850969  -1.235377  0.638551
H    -3.239779  -0.229927  0.970929
H    -3.765085  -2.440411  1.691798
H    -3.673560  -1.420140  3.117221
H    -2.698628  -3.582477  3.612375
H    -1.429649  -2.377215  3.694475
H    -0.812799  -3.071868  1.245416
H    -1.912573  -4.419252  1.465988
H    -0.468144  -5.044561  3.385036
H    0.568765  -3.849725  2.940867
N    -3.178003  1.811604  3.134850
C    -3.614160  2.379538  1.871460
H    -3.653166  2.116137  3.979339
H    -3.976701  3.399386  2.045533
H    -4.424910  1.799990  1.403441
H    -2.781199  2.444212  1.161845
