33
Energy: -18209.3766729 eV PBE+vdW (tier 2 basis)
C    -0.747142  -0.675576  -0.271250
C    -0.569977  -0.691591  1.234622
O    0.330958  -1.312570  1.790070
H    -0.787195  0.346641  -0.671856
H    -1.680821  -1.179326  -0.561751
H    0.095311  -1.209792  -0.717420
N    -1.472267  0.045942  1.974106
C    -2.651528  0.754944  1.497676
C    -2.410960  2.224071  1.094651
O    -3.300662  2.847237  0.511837
H    -1.368525  -0.079237  2.978494
H    -2.993830  0.275136  0.570594
C    -3.783605  0.667044  2.540167
C    -4.479781  -0.704344  2.583136
C    -5.694677  -0.879476  1.655941
C    -5.488442  -0.670137  0.145424
N    -5.670170  0.724144  -0.269103
H    -4.513035  1.460903  2.331718
H    -3.347770  0.907566  3.524354
H    -4.821663  -0.891465  3.612065
H    -3.737262  -1.493403  2.376012
H    -6.502191  -0.199943  1.971146
H    -6.071358  -1.902414  1.811363
H    -6.255584  -1.254531  -0.383166
H    -4.515241  -1.120616  -0.154130
H    -4.916568  1.350352  0.027700
H    -5.715306  0.790923  -1.284992
N    -1.201025  2.740299  1.420310
C    -0.811540  4.101247  1.107571
H    -0.540995  2.111037  1.865954
H    -0.549343  4.655569  2.018961
H    -1.665364  4.589040  0.625290
H    0.046613  4.121597  0.421443
