33
Energy: -18209.1926475 eV PBE+vdW (tier 2 basis)
C    0.002969  0.783380  1.462775
C    0.004851  -0.197637  2.623309
O    1.040338  -0.536292  3.189877
H    1.040183  1.063675  1.262719
H    -0.570866  1.691130  1.697358
H    -0.431121  0.341158  0.555333
N    -1.212482  -0.688206  3.032040
C    -2.517292  -0.500633  2.400184
C    -3.550083  -0.399058  3.545675
O    -4.174606  -1.382048  3.938938
H    -1.147109  -1.397271  3.759337
H    -2.486110  0.455875  1.860632
C    -2.879574  -1.615200  1.412972
C    -4.118480  -1.286897  0.572691
C    -4.579753  -2.420425  -0.351292
C    -3.592262  -2.787886  -1.458679
N    -4.190546  -3.773086  -2.370792
H    -3.047377  -2.542347  1.981121
H    -2.003742  -1.781374  0.768943
H    -3.922922  -0.382370  -0.030342
H    -4.949809  -1.033847  1.247860
H    -5.531286  -2.140469  -0.827599
H    -4.793401  -3.315572  0.258203
H    -2.636042  -3.125424  -1.013441
H    -3.362441  -1.885967  -2.049342
H    -3.536859  -4.011759  -3.116860
H    -4.381895  -4.642830  -1.870300
N    -3.705535  0.827967  4.124717
C    -2.942326  2.038964  3.868432
H    -4.330689  0.818344  4.924636
H    -1.873506  1.914170  4.096747
H    -3.336651  2.836089  4.507055
H    -3.045579  2.373735  2.826381
