33
Energy: -18208.9808094 eV PBE+vdW (tier 2 basis)
C    -0.091817  0.268307  -0.344519
C    0.151310  0.118245  1.140249
O    1.285951  0.027391  1.603950
H    0.881816  0.258931  -0.841239
H    -0.600726  1.212844  -0.578341
H    -0.705059  -0.560943  -0.716715
N    -0.922992  0.121508  2.012615
C    -2.365480  0.019603  1.826009
C    -2.804306  -1.389347  1.353711
O    -2.122758  -2.090687  0.614893
H    -0.599026  -0.058630  2.958484
H    -2.761876  0.145339  2.844176
C    -3.009176  1.153609  0.961039
C    -3.538155  0.772382  -0.429527
C    -3.878526  1.979663  -1.311762
C    -5.019123  2.858048  -0.797055
N    -5.363568  3.882524  -1.792187
H    -2.259744  1.953312  0.871273
H    -3.830934  1.588680  1.547388
H    -4.433348  0.137982  -0.323187
H    -2.800029  0.154795  -0.956392
H    -4.152220  1.629032  -2.317953
H    -2.973494  2.600203  -1.440120
H    -4.754857  3.278331  0.193413
H    -5.912601  2.230938  -0.643648
H    -4.574198  4.514999  -1.934465
H    -6.136199  4.459890  -1.459970
N    -4.033581  -1.764494  1.819868
C    -4.684845  -2.996477  1.415363
H    -4.533926  -1.127210  2.427826
H    -4.963154  -3.601018  2.288970
H    -3.970338  -3.559022  0.805332
H    -5.585636  -2.798814  0.816366
