33
Energy: -18209.165209 eV PBE+vdW (tier 2 basis)
C    1.461083  0.954278  1.653121
C    0.578715  -0.272169  1.812068
O    1.006020  -1.413971  1.675691
H    0.924338  1.906769  1.749381
H    1.947100  0.914262  0.670651
H    2.254300  0.916954  2.410384
N    -0.733025  -0.016071  2.115135
C    -1.702590  -1.073315  2.354359
C    -2.163297  -1.892627  1.126519
O    -2.485863  -3.065543  1.297635
H    -1.028852  0.946921  2.219262
H    -1.215634  -1.837829  2.977186
C    -2.931511  -0.524573  3.096721
C    -2.641330  -0.061753  4.527504
C    -3.885885  0.452572  5.253789
C    -3.631907  0.899228  6.704766
N    -3.213206  -0.126154  7.663092
H    -3.683051  -1.326554  3.117190
H    -3.379189  0.299677  2.512820
H    -1.870580  0.727609  4.529303
H    -2.206158  -0.909832  5.081119
H    -4.664363  -0.329851  5.250123
H    -4.309505  1.305845  4.695992
H    -4.549430  1.363282  7.097447
H    -2.865618  1.691556  6.713338
H    -2.322066  -0.542792  7.393809
H    -3.893231  -0.886844  7.698711
N    -2.263962  -1.314508  -0.108694
C    -2.041445  0.052329  -0.548125
H    -2.563276  -1.984294  -0.810378
H    -2.507169  0.170750  -1.533521
H    -0.974784  0.302634  -0.642283
H    -2.515948  0.780792  0.122136
