33
Energy: -18209.4332983 eV PBE+vdW (tier 2 basis)
C    0.167064  0.729868  0.015866
C    0.105219  0.707643  1.529612
O    1.133478  0.830054  2.211663
H    0.651238  1.660905  -0.303259
H    -0.811371  0.647417  -0.472487
H    0.802069  -0.100055  -0.319184
N    -1.134349  0.553853  2.067835
C    -1.471911  0.408655  3.494661
C    -1.358845  1.710399  4.328684
O    -2.278712  2.007687  5.094323
H    -1.911610  0.522974  1.420150
H    -2.550372  0.208257  3.516479
C    -0.752246  -0.819338  4.104370
C    -0.915439  -1.025319  5.618797
C    0.005735  -0.224480  6.557029
C    1.516908  -0.450723  6.381570
N    2.142956  0.491191  5.438087
H    0.309780  -0.786024  3.833262
H    -1.162137  -1.696352  3.580249
H    -0.743395  -2.095645  5.816805
H    -1.960970  -0.830820  5.904771
H    -0.264483  -0.517368  7.583440
H    -0.196665  0.852540  6.493818
H    1.695452  -1.517093  6.129571
H    2.004186  -0.282640  7.353001
H    3.157873  0.396000  5.476741
H    1.879506  0.298122  4.470200
N    -0.221804  2.425528  4.170418
C    0.111598  3.554506  5.015938
H    0.513833  2.003886  3.598796
H    0.367853  4.435435  4.411422
H    0.966079  3.300281  5.660100
H    -0.758726  3.787235  5.638267
