33
Energy: -18209.3089072 eV PBE+vdW (tier 2 basis)
C    -0.278531  2.840222  -0.984269
C    0.007689  1.750462  0.030465
O    1.132904  1.580614  0.493471
H    -1.077530  2.591693  -1.691905
H    0.648844  3.043264  -1.528245
H    -0.567180  3.758433  -0.454449
N    -1.029913  0.925207  0.419788
C    -2.469523  1.023706  0.159400
C    -2.875107  0.590873  -1.266162
O    -4.009139  0.811698  -1.699524
H    -0.745402  0.290541  1.161034
H    -2.925505  0.237938  0.787213
C    -3.100206  2.372648  0.582381
C    -4.576141  2.325795  1.008612
C    -4.887004  1.410844  2.217394
C    -5.779439  0.209015  1.896394
N    -5.140165  -0.709323  0.940916
H    -2.995729  3.105007  -0.230038
H    -2.499571  2.746709  1.426088
H    -5.185968  2.037784  0.141847
H    -4.869941  3.358017  1.248681
H    -5.384449  1.997682  3.003712
H    -3.951280  1.039752  2.666921
H    -6.765255  0.580176  1.551093
H    -5.964063  -0.352084  2.824540
H    -5.157097  -0.312897  -0.002970
H    -5.660334  -1.584777  0.893167
N    -1.930505  -0.094804  -1.959990
C    -2.166669  -0.647664  -3.277886
H    -1.035877  -0.233669  -1.502185
H    -1.449143  -0.249091  -4.008362
H    -3.180492  -0.364771  -3.580812
H    -2.089730  -1.744113  -3.269156
