33
Energy: -18209.4246004 eV PBE+vdW (tier 2 basis)
C    0.200625  -0.361030  0.777582
C    -0.279982  -0.050578  2.182761
O    0.472024  -0.057702  3.153483
H    -0.070169  0.427495  0.062220
H    -0.234539  -1.302276  0.412001
H    1.287863  -0.466674  0.809556
N    -1.614261  0.262386  2.332898
C    -2.669248  0.238413  1.326877
C    -2.922345  1.604234  0.638838
O    -3.818550  1.725491  -0.199114
H    -1.889711  0.388561  3.303949
H    -2.359461  -0.435956  0.515643
C    -3.992604  -0.294146  1.896767
C    -4.620642  0.596225  2.984774
C    -6.143145  0.421971  3.118882
C    -6.973706  1.242457  2.122174
N    -6.789818  0.831208  0.724392
H    -3.823061  -1.308234  2.288126
H    -4.689038  -0.396927  1.056959
H    -4.411601  1.658629  2.769028
H    -4.146399  0.389309  3.957655
H    -6.450371  0.729477  4.130581
H    -6.406913  -0.643098  3.018771
H    -6.755242  2.317194  2.295257
H    -8.035628  1.100244  2.372015
H    -7.548781  1.197410  0.151375
H    -5.924477  1.212039  0.331741
N    -2.099928  2.613528  1.017584
C    -2.195501  3.954884  0.477344
H    -1.417139  2.401406  1.737792
H    -1.252119  4.257806  0.002999
H    -2.445944  4.682105  1.262206
H    -2.991173  3.954349  -0.275333
