33
Energy: -18209.5164417 eV PBE+vdW (tier 2 basis)
C    -5.839747  2.613482  1.914972
C    -4.382035  2.207153  1.850485
O    -3.855711  1.831804  0.796646
H    -6.008764  3.427585  1.199331
H    -6.163763  2.940397  2.910528
H    -6.458260  1.764935  1.597151
N    -3.687110  2.292748  3.020182
C    -2.267552  1.944530  3.119121
C    -2.146065  0.405991  3.305329
O    -2.015517  -0.117282  4.410757
H    -4.184665  2.508018  3.876863
H    -1.826406  2.216243  2.148286
C    -1.590714  2.725131  4.247944
C    -0.084498  2.950190  4.047291
C    0.776670  1.682933  3.992811
C    2.278582  1.969372  3.970603
N    2.685807  2.666412  2.740683
H    -1.770171  2.191736  5.194415
H    -2.079496  3.708741  4.319281
H    0.273127  3.586039  4.874803
H    0.058925  3.536592  3.124103
H    0.528686  1.089527  3.099022
H    0.548534  1.050524  4.864101
H    2.819065  1.012050  3.996411
H    2.554339  2.511829  4.898845
H    2.369735  3.636481  2.753145
H    3.702742  2.701687  2.674204
N    -2.227535  -0.275480  2.132072
C    -2.273105  -1.723584  2.077979
H    -2.522157  0.266073  1.317423
H    -3.301683  -2.097148  1.956267
H    -1.872231  -2.113965  3.019189
H    -1.664029  -2.091744  1.242758
