33
Energy: -18209.3987492 eV PBE+vdW (tier 2 basis)
C    -0.358368  0.290464  -0.134460
C    -0.559790  0.211898  1.368447
O    -0.347013  1.160574  2.113770
H    -1.106293  0.976943  -0.552502
H    -0.442843  -0.676752  -0.645921
H    0.629008  0.721145  -0.337374
N    -0.989241  -1.008897  1.842582
C    -1.418797  -1.196638  3.226144
C    -0.262860  -1.478596  4.208231
O    -0.434689  -1.366595  5.420560
H    -1.279111  -1.706842  1.165708
H    -1.852609  -0.247555  3.571270
C    -2.480542  -2.317375  3.255670
C    -3.137973  -2.610211  4.608981
C    -3.907363  -1.431974  5.209707
C    -4.626547  -1.800863  6.505161
N    -5.361728  -0.644948  7.037019
H    -2.015379  -3.243173  2.875545
H    -3.261696  -2.033700  2.530489
H    -2.375325  -2.948381  5.324479
H    -3.827419  -3.457662  4.460276
H    -4.648194  -1.044305  4.491587
H    -3.205986  -0.609413  5.421653
H    -3.886766  -2.224735  7.213424
H    -5.361166  -2.597052  6.303291
H    -5.860379  -0.901444  7.889265
H    -4.705810  0.092390  7.300909
N    0.902652  -1.891712  3.640945
C    2.101494  -2.138059  4.416554
H    0.961973  -1.831457  2.630585
H    2.549082  -3.104506  4.148579
H    1.815020  -2.154327  5.473644
H    2.849199  -1.345080  4.267941
