33
Energy: -18209.1998712 eV PBE+vdW (tier 2 basis)
C    0.436173  0.040697  1.613309
C    -0.580521  -1.086221  1.690277
O    -0.248004  -2.267842  1.658161
H    0.429173  0.658505  2.522470
H    0.246175  0.704551  0.758606
H    1.425068  -0.411120  1.502092
N    -1.902833  -0.731564  1.813569
C    -2.487731  0.606481  1.747063
C    -3.642010  0.633907  2.774322
O    -4.802656  0.399465  2.445756
H    -2.545106  -1.520627  1.784203
H    -1.712685  1.319002  2.061128
C    -2.970555  0.987266  0.343549
C    -3.362624  2.461096  0.216184
C    -3.784722  2.841103  -1.206633
C    -4.083172  4.329393  -1.394241
N    -5.275997  4.743513  -0.643648
H    -3.825640  0.347120  0.081838
H    -2.159541  0.752027  -0.363578
H    -2.511016  3.095447  0.523103
H    -4.185430  2.670814  0.917171
H    -4.678401  2.263811  -1.490463
H    -2.982593  2.558220  -1.908247
H    -4.287196  4.516497  -2.458740
H    -3.171915  4.911674  -1.141994
H    -5.099206  4.725640  0.360975
H    -5.525941  5.704928  -0.873356
N    -3.303155  0.894522  4.072109
C    -1.970191  1.039057  4.634963
H    -4.085054  0.811198  4.714398
H    -2.068979  1.249044  5.705013
H    -1.427048  1.882550  4.185404
H    -1.366475  0.126776  4.518780
