33
Energy: -18209.493736 eV PBE+vdW (tier 2 basis)
C    0.066840  2.030256  0.113444
C    -0.160525  0.846973  1.034319
O    -0.077665  -0.317834  0.622654
H    -0.070864  3.001391  0.603889
H    -0.623240  1.953979  -0.735805
H    1.086620  1.973955  -0.288117
N    -0.447258  1.155371  2.323598
C    -0.706133  0.149744  3.337970
C    -1.647017  0.807807  4.353147
O    -1.579212  2.024434  4.562940
H    -0.551802  2.118686  2.635829
H    -1.175308  -0.711030  2.845663
C    0.600396  -0.324593  4.048120
C    0.714211  -1.829343  4.333957
C    1.013221  -2.715373  3.100457
C    -0.127973  -3.603236  2.599263
N    -1.254961  -2.815348  2.082212
H    0.721861  0.243822  4.982413
H    1.439767  -0.027086  3.402987
H    -0.186456  -2.193736  4.849914
H    1.531624  -1.953201  5.059541
H    1.856585  -3.381734  3.334657
H    1.353248  -2.081353  2.265930
H    -0.497332  -4.227847  3.430283
H    0.290995  -4.299394  1.846971
H    -1.959450  -3.426768  1.670049
H    -0.925807  -2.183072  1.343903
N    -2.511391  0.022409  5.049252
C    -2.862903  -1.375912  4.857575
H    -3.040601  0.549687  5.738897
H    -3.950078  -1.474013  4.726833
H    -2.564099  -1.983870  5.724704
H    -2.377089  -1.785696  3.962451
