33
Energy: -18209.2781646 eV PBE+vdW (tier 2 basis)
C    -0.260267  0.002147  -0.268618
C    -0.644617  0.453456  1.127046
O    -0.898417  1.627876  1.389154
H    0.612056  0.578909  -0.599637
H    -1.085142  0.237225  -0.952711
H    -0.031359  -1.068395  -0.341220
N    -0.668719  -0.534470  2.076142
C    -1.114764  -0.301043  3.443864
C    -0.058718  -0.812047  4.449178
O    -0.294574  -1.703759  5.264996
H    -0.494768  -1.489237  1.784920
H    -1.147704  0.796271  3.529958
C    -2.541526  -0.828223  3.725156
C    -2.970483  -2.117302  3.005012
C    -2.240782  -3.412028  3.393460
C    -2.613583  -3.941196  4.788257
N    -1.832932  -5.079981  5.276875
H    -3.237513  -0.032934  3.421627
H    -2.642300  -0.940769  4.812664
H    -2.889005  -1.958257  1.917793
H    -4.048720  -2.252346  3.190555
H    -1.148535  -3.269474  3.366102
H    -2.472065  -4.189422  2.645576
H    -3.678759  -4.226919  4.790236
H    -2.499556  -3.135835  5.525424
H    -0.863661  -4.791577  5.418450
H    -1.818208  -5.832070  4.585856
N    1.167540  -0.211073  4.410494
C    1.648619  0.865864  3.560930
H    1.818592  -0.613102  5.078215
H    2.393794  1.449120  4.115136
H    0.836130  1.543271  3.275344
H    2.115931  0.491256  2.636768
