33
Energy: -18209.099086 eV PBE+vdW (tier 2 basis)
C    -0.092074  0.609483  -0.009670
C    -0.156024  0.057715  1.404446
O    0.710608  -0.678537  1.865748
H    0.771387  1.282905  -0.084573
H    -0.992891  1.155580  -0.317242
H    0.080720  -0.220854  -0.704551
N    -1.253730  0.432139  2.131888
C    -1.441652  0.071966  3.534207
C    -1.338574  -1.450198  3.807080
O    -0.714173  -1.856070  4.784134
H    -1.930753  1.057030  1.710634
H    -0.608014  0.486808  4.121186
C    -2.779370  0.671331  4.035210
C    -2.798762  1.146056  5.498916
C    -2.497553  0.102152  6.580611
C    -3.455108  -1.089086  6.615208
N    -2.951743  -2.097989  7.554870
H    -3.597286  -0.041807  3.855162
H    -3.004069  1.551963  3.410446
H    -3.790626  1.591705  5.682345
H    -2.076443  1.971583  5.601739
H    -2.513423  0.593375  7.564809
H    -1.476398  -0.283119  6.444896
H    -3.596829  -1.485901  5.590226
H    -4.448070  -0.759523  6.962264
H    -2.067585  -2.467763  7.198168
H    -3.594814  -2.888062  7.609631
N    -2.016823  -2.330267  3.007401
C    -2.761503  -2.122822  1.778116
H    -1.823725  -3.291598  3.271035
H    -3.403345  -2.997065  1.615288
H    -2.109684  -2.004555  0.898557
H    -3.415842  -1.246528  1.845777
