33
Energy: -18209.0213227 eV PBE+vdW (tier 2 basis)
C    -2.181217  0.490943  0.794737
C    -1.302243  0.660439  2.024576
O    -0.076481  0.633922  1.942124
H    -1.897125  1.249197  0.054602
H    -3.257813  0.568623  0.991528
H    -1.972628  -0.490662  0.351083
N    -1.988953  0.862707  3.191300
C    -1.498658  0.928386  4.574338
C    -1.411595  2.331185  5.217561
O    -1.559553  2.406644  6.442127
H    -2.998209  0.870673  3.107330
H    -2.308473  0.472313  5.160875
C    -0.228343  0.109789  4.916378
C    1.135623  0.816483  4.812898
C    2.162988  0.280654  5.824948
C    2.090262  0.918934  7.218595
N    0.825052  0.656616  7.921239
H    -0.228299  -0.799273  4.299570
H    -0.367577  -0.221243  5.953468
H    1.020830  1.899147  4.989371
H    1.511182  0.719795  3.787970
H    3.177022  0.463512  5.435990
H    2.058405  -0.812385  5.921506
H    2.311636  2.001686  7.112822
H    2.900823  0.496732  7.831532
H    0.929500  0.871228  8.912271
H    0.075817  1.264578  7.579275
N    -1.192299  3.453497  4.478555
C    -0.752504  3.614799  3.098677
H    -1.183572  4.282388  5.066090
H    -0.189673  4.552783  3.028285
H    -1.598254  3.669697  2.397109
H    -0.088443  2.800934  2.787212
