33
Energy: -18209.4294662 eV PBE+vdW (tier 2 basis)
C    -0.075898  0.257639  -0.275493
C    -0.064609  0.508541  1.217861
O    0.942789  0.957982  1.785090
H    0.305432  1.147872  -0.788471
H    -1.063996  0.001574  -0.676328
H    0.615506  -0.567826  -0.493986
N    -1.205404  0.183282  1.879083
C    -1.444012  0.223745  3.332932
C    -1.605859  1.655357  3.908351
O    -2.590882  1.931697  4.593370
H    -1.985097  -0.128515  1.313882
H    -2.439486  -0.218561  3.466692
C    -0.445881  -0.585067  4.186778
C    -0.438886  -2.106794  3.951082
C    0.345522  -2.650499  2.743016
C    1.873150  -2.771813  2.915560
N    2.663049  -1.559689  3.142521
H    -0.746534  -0.395847  5.228482
H    0.558528  -0.162955  4.072236
H    -1.485028  -2.449103  3.882984
H    -0.038403  -2.585976  4.860306
H    0.127847  -2.058608  1.842313
H    -0.028464  -3.664508  2.521883
H    2.270597  -3.268054  2.014570
H    2.083460  -3.459975  3.750263
H    2.519042  -1.202444  4.085784
H    2.389016  -0.809269  2.504742
N    -0.586900  2.508494  3.636825
C    -0.563335  3.873351  4.123567
H    0.186549  2.150700  3.067645
H    0.298330  4.042824  4.785108
H    -1.484659  4.048701  4.689016
H    -0.510796  4.589101  3.290952
