33
Energy: -18209.3247545 eV PBE+vdW (tier 2 basis)
C    0.143775  -0.749163  0.222435
C    0.000529  -0.099851  1.584100
O    0.948064  0.450932  2.138547
H    1.178028  -1.091978  0.120295
H    -0.035900  0.009253  -0.552440
H    -0.544053  -1.583596  0.046552
N    -1.229807  -0.149969  2.212512
C    -2.537883  -0.559729  1.687788
C    -2.678497  -2.093005  1.494246
O    -3.538666  -2.566312  0.755861
H    -1.233155  0.406754  3.062462
H    -3.242190  -0.330436  2.505206
C    -3.031919  0.212074  0.454813
C    -3.068837  1.725023  0.670470
C    -3.584539  2.507599  -0.544315
C    -5.050984  2.251169  -0.908686
N    -5.941689  2.576716  0.213777
H    -4.032566  -0.178592  0.231483
H    -2.413787  -0.035069  -0.421318
H    -2.060499  2.090686  0.918969
H    -3.710064  1.953307  1.536511
H    -2.964080  2.281304  -1.427154
H    -3.451712  3.586022  -0.354259
H    -5.196929  1.186705  -1.145780
H    -5.281263  2.808623  -1.837491
H    -5.957525  3.585152  0.374121
H    -6.900418  2.301512  0.003398
N    -1.826291  -2.843085  2.244821
C    -1.835568  -4.291654  2.231960
H    -1.133075  -2.344054  2.791906
H    -2.011128  -4.695773  3.238589
H    -0.886342  -4.694279  1.850514
H    -2.648778  -4.612506  1.572003
