33
Energy: -18209.1498665 eV PBE+vdW (tier 2 basis)
C    -0.288517  -1.100029  -0.406041
C    -0.231628  -0.653028  1.039772
O    0.833771  -0.564211  1.648576
H    -1.202197  -1.637054  -0.683287
H    0.588169  -1.725060  -0.599491
H    -0.218432  -0.211850  -1.050433
N    -1.404661  -0.311455  1.674287
C    -2.793361  -0.336040  1.204639
C    -3.234623  -1.744641  0.733314
O    -3.689803  -1.941695  -0.391996
H    -1.236781  0.040319  2.611695
H    -3.390519  -0.115640  2.105832
C    -3.131791  0.734734  0.160156
C    -2.830786  2.153743  0.640574
C    -3.174746  3.220080  -0.402081
C    -2.960612  4.654890  0.085827
N    -3.870642  4.980772  1.194535
H    -4.198796  0.632456  -0.086362
H    -2.596503  0.517564  -0.775275
H    -1.763072  2.240184  0.900223
H    -3.389979  2.368912  1.564957
H    -4.225845  3.103175  -0.720338
H    -2.568793  3.064051  -1.309353
H    -3.050438  5.342789  -0.777259
H    -1.931073  4.759233  0.463082
H    -3.635128  5.887332  1.597330
H    -4.829449  5.058224  0.851591
N    -3.105649  -2.768651  1.629266
C    -2.631613  -2.739765  3.003265
H    -3.384983  -3.664846  1.243088
H    -1.535359  -2.694809  3.072285
H    -2.976980  -3.649701  3.506929
H    -3.049397  -1.885397  3.552896
