33
Energy: -18209.1088368 eV PBE+vdW (tier 2 basis)
C    -0.175925  0.335812  -0.390677
C    0.204438  0.287098  1.078496
O    1.373818  0.402040  1.444101
H    -0.966002  1.069703  -0.597078
H    -0.530313  -0.646865  -0.730503
H    0.719831  0.606800  -0.955537
N    -0.789071  0.077021  1.999827
C    -2.242109  0.076433  1.860311
C    -2.710393  -0.945774  0.796367
O    -2.400730  -2.129851  0.888251
H    -0.448638  0.084371  2.957368
H    -2.593006  -0.377796  2.796505
C    -2.824828  1.504691  1.817548
C    -4.284001  1.644363  2.282500
C    -4.590992  1.195674  3.723509
C    -3.729693  1.828736  4.825553
N    -2.444527  1.123118  4.993394
H    -2.182733  2.108426  2.472167
H    -2.706373  1.951620  0.815303
H    -4.563929  2.705788  2.185169
H    -4.959475  1.095680  1.606727
H    -4.524514  0.098451  3.810345
H    -5.645772  1.436516  3.925324
H    -4.319599  1.868866  5.760103
H    -3.503708  2.873702  4.560723
H    -1.820675  1.661781  5.594746
H    -2.598534  0.234306  5.472476
N    -3.506143  -0.463300  -0.201593
C    -4.006504  -1.306122  -1.269709
H    -3.653543  0.536054  -0.260543
H    -5.067316  -1.098660  -1.460777
H    -3.889329  -2.348118  -0.954086
H    -3.441544  -1.160457  -2.203148
