33
Energy: -18209.4932853 eV PBE+vdW (tier 2 basis)
C    2.803800  -1.854677  1.643334
C    1.302332  -1.656386  1.551165
O    0.627453  -2.156842  0.650464
H    3.262483  -1.505534  0.710015
H    3.013414  -2.928277  1.728801
H    3.265506  -1.332161  2.489900
N    0.750866  -0.898126  2.542983
C    -0.646919  -0.524294  2.539050
C    -0.750697  0.795968  3.320819
O    0.188603  1.228603  3.992118
H    1.327459  -0.366598  3.193119
H    -0.947642  -0.345082  1.492741
C    -1.565081  -1.652509  3.081583
C    -1.286882  -2.126770  4.514675
C    -1.781593  -1.230972  5.664155
C    -3.288870  -0.966458  5.690223
N    -4.056939  -2.209522  5.840197
H    -1.430670  -2.494712  2.388961
H    -2.616118  -1.339245  2.968396
H    -0.202600  -2.278284  4.628384
H    -1.725986  -3.129815  4.632139
H    -1.255989  -0.265330  5.650273
H    -1.507748  -1.717801  6.612523
H    -3.579822  -0.372180  4.799412
H    -3.513134  -0.334369  6.562197
H    -5.047281  -2.005507  5.971462
H    -3.991255  -2.781272  4.997522
N    -1.947178  1.432080  3.216325
C    -2.282554  2.611601  3.991039
H    -2.673949  0.990671  2.665687
H    -1.355158  3.004736  4.419374
H    -2.975907  2.370643  4.811263
H    -2.737943  3.378422  3.351704
