33
Energy: -18209.1894295 eV PBE+vdW (tier 2 basis)
C    -2.154945  1.457186  -0.849019
C    -1.423111  0.313313  -0.175696
O    -0.641449  -0.421248  -0.777521
H    -1.832771  2.428471  -0.447498
H    -3.241166  1.392441  -0.696500
H    -1.933780  1.420322  -1.918521
N    -1.670039  0.121662  1.162582
C    -2.444665  0.963684  2.060902
C    -1.884830  2.374967  2.344335
O    -2.673873  3.319912  2.410938
H    -1.144488  -0.650135  1.564112
H    -3.406288  1.196808  1.582816
C    -2.731306  0.223991  3.381072
C    -3.873692  -0.801102  3.280411
C    -5.265745  -0.221195  2.980166
C    -5.943476  0.570564  4.103766
N    -5.190308  1.770968  4.491868
H    -2.990305  0.963519  4.148542
H    -1.808992  -0.281327  3.713770
H    -3.917491  -1.356205  4.231001
H    -3.630810  -1.546127  2.505559
H    -5.935662  -1.055004  2.719838
H    -5.230105  0.407195  2.073455
H    -6.023867  -0.072218  4.996034
H    -6.981894  0.785353  3.780595
H    -5.036410  2.389354  3.692219
H    -5.707677  2.310135  5.185278
N    -0.546018  2.563008  2.525938
C    0.538725  1.592983  2.592681
H    -0.315782  3.535105  2.706508
H    0.291779  0.749132  3.249900
H    1.412651  2.093250  3.024474
H    0.819338  1.202401  1.605001
