33
Energy: -18209.0518621 eV PBE+vdW (tier 2 basis)
C    -0.683784  0.189261  0.086196
C    -0.824772  -0.565377  1.394964
O    -0.163434  -1.569230  1.642118
H    0.185224  0.856719  0.170448
H    -1.563353  0.793900  -0.169333
H    -0.484828  -0.525440  -0.718810
N    -1.762877  -0.040189  2.257922
C    -1.824521  -0.381221  3.672846
C    -0.571334  0.205343  4.394887
O    0.347976  0.736516  3.782485
H    -2.096084  0.885953  2.016767
H    -2.664603  0.205308  4.075554
C    -2.193217  -1.892732  3.864534
C    -1.514909  -2.717378  4.969369
C    -0.019173  -2.986929  4.747601
C    0.248923  -4.082863  3.711676
N    1.650920  -4.033313  3.279840
H    -1.982722  -2.382724  2.908638
H    -3.282928  -1.940997  4.002987
H    -2.050305  -3.680417  5.019134
H    -1.677512  -2.269863  5.963608
H    0.464080  -3.264186  5.696158
H    0.485279  -2.072150  4.404852
H    -0.463758  -3.972830  2.872867
H    0.062199  -5.069288  4.165575
H    1.857717  -4.824868  2.669911
H    1.780435  -3.195476  2.707656
N    -0.636832  0.192356  5.759099
C    0.492450  0.596671  6.578299
H    -1.360275  -0.365441  6.196182
H    0.134474  0.951134  7.551899
H    1.019050  1.409184  6.067625
H    1.204605  -0.229004  6.734193
