33
Energy: -18209.5334136 eV PBE+vdW (tier 2 basis)
C    2.506117  1.340866  1.091478
C    1.070446  1.191098  1.560736
O    0.253038  2.109079  1.475865
H    2.503415  1.590242  0.023026
H    3.116978  0.443310  1.247715
H    2.963756  2.184281  1.623068
N    0.749438  -0.028986  2.077803
C    -0.566967  -0.329299  2.605749
C    -0.368879  -1.389413  3.698194
O    0.519565  -2.239153  3.606596
H    1.440434  -0.766725  2.188418
H    -0.975106  0.602948  3.027575
C    -1.523716  -0.828272  1.495488
C    -2.982103  -0.986300  1.925548
C    -3.904488  -1.370136  0.765611
C    -5.360575  -1.593477  1.180417
N    -5.480568  -2.712119  2.128284
H    -1.131974  -1.781608  1.106659
H    -1.454512  -0.094699  0.678414
H    -3.338900  -0.036816  2.363443
H    -3.079612  -1.749289  2.710762
H    -3.523860  -2.287921  0.283407
H    -3.876583  -0.589103  -0.010844
H    -5.974689  -1.718417  0.267529
H    -5.735443  -0.690427  1.688004
H    -5.263924  -3.593739  1.660127
H    -6.439761  -2.794244  2.464481
N    -1.245571  -1.326311  4.734948
C    -1.295140  -2.319699  5.791241
H    -1.951407  -0.600007  4.714233
H    -1.217510  -1.845721  6.778761
H    -0.444884  -2.994784  5.650526
H    -2.226017  -2.903156  5.746735
