33
Energy: -18209.4904511 eV PBE+vdW (tier 2 basis)
C    2.053746  1.436507  0.965836
C    0.973643  0.488068  1.452140
O    0.563380  -0.448056  0.765083
H    1.722093  1.894898  0.026006
H    2.958673  0.856592  0.745500
H    2.302084  2.227727  1.683821
N    0.493575  0.742035  2.704114
C    -0.569419  -0.043397  3.301148
C    -1.402615  0.912085  4.163838
O    -0.871775  1.821524  4.803518
H    0.799144  1.549113  3.240817
H    -1.164382  -0.452761  2.471723
C    0.006859  -1.206150  4.147911
C    -1.019124  -2.148328  4.788814
C    -1.854395  -2.960883  3.792249
C    -2.937121  -3.819320  4.449520
N    -2.360198  -4.856202  5.314497
H    0.640793  -0.762113  4.929947
H    0.670416  -1.776926  3.481274
H    -1.687449  -1.578638  5.457103
H    -0.464023  -2.842858  5.438018
H    -1.189924  -3.610808  3.202207
H    -2.349769  -2.293222  3.067381
H    -3.508601  -4.331264  3.661792
H    -3.653319  -3.151532  4.974463
H    -1.991164  -4.450809  6.174713
H    -3.076397  -5.524187  5.597208
N    -2.739233  0.658194  4.183765
C    -3.672939  1.395354  5.013907
H    -3.085239  -0.104558  3.613811
H    -3.106287  2.172213  5.537495
H    -4.150673  0.739403  5.755541
H    -4.453359  1.871299  4.404841
