33
Energy: -18209.450891 eV PBE+vdW (tier 2 basis)
C    1.935756  0.231024  3.687995
C    0.886280  -0.709625  4.251097
O    1.094353  -1.411876  5.234003
H    1.658330  0.683062  2.727252
H    2.877843  -0.316828  3.570451
H    2.114252  1.032433  4.417016
N    -0.311904  -0.724699  3.568707
C    -1.500323  -1.396671  4.081800
C    -2.003783  -2.546122  3.179491
O    -3.121197  -3.031133  3.340852
H    -0.452100  -0.020422  2.851047
H    -1.170335  -1.880177  5.016919
C    -2.626770  -0.401966  4.388679
C    -2.325042  0.500866  5.587119
C    -3.386852  1.578357  5.842541
C    -3.461583  2.689647  4.778631
N    -2.264240  3.517957  4.593910
H    -3.539866  -0.986040  4.566201
H    -2.821951  0.196672  3.481849
H    -1.339614  0.981897  5.462305
H    -2.225248  -0.128574  6.484627
H    -3.191357  2.046808  6.821320
H    -4.379341  1.103521  5.924525
H    -4.293013  3.364657  5.030578
H    -3.718705  2.259558  3.798200
H    -1.463474  2.941725  4.331887
H    -2.009594  3.973502  5.472089
N    -1.116144  -2.982841  2.244848
C    -1.376184  -4.126064  1.393313
H    -0.202538  -2.543653  2.237001
H    -0.733014  -4.978572  1.656079
H    -1.216519  -3.873750  0.336280
H    -2.422124  -4.416674  1.539388
