33
Energy: -18209.429859 eV PBE+vdW (tier 2 basis)
C    -1.222512  2.103329  -0.285898
C    -1.076624  1.012400  0.758548
O    -0.143701  0.993146  1.562787
H    -2.090325  1.969768  -0.943149
H    -0.310032  2.132423  -0.893974
H    -1.306358  3.071143  0.224199
N    -2.057649  0.063889  0.753703
C    -2.005144  -1.094255  1.621505
C    -2.722793  -2.231342  0.880921
O    -3.487286  -1.994707  -0.058363
H    -2.744919  0.004977  0.004943
H    -0.942337  -1.337288  1.778009
C    -2.633042  -0.820449  3.011804
C    -4.130924  -0.515138  2.987104
C    -4.686533  -0.177831  4.372245
C    -6.183222  0.126887  4.359925
N    -6.657495  0.474868  5.705898
H    -2.077654  0.025982  3.441666
H    -2.437869  -1.679992  3.671583
H    -4.682449  -1.372607  2.567358
H    -4.317630  0.327781  2.302756
H    -4.154822  0.687585  4.797553
H    -4.496428  -1.021354  5.059844
H    -6.721606  -0.727867  3.901854
H    -6.369043  0.995361  3.708695
H    -7.643553  0.734657  5.682204
H    -6.588253  -0.333821  6.325757
N    -2.513958  -3.506679  1.311994
C    -1.625024  -3.987472  2.355375
H    -3.071956  -4.190924  0.810084
H    -1.254686  -4.982698  2.081552
H    -2.123819  -4.060527  3.334039
H    -0.755772  -3.328701  2.459387
