33
Energy: -18209.5309951 eV PBE+vdW (tier 2 basis)
C    -0.772673  0.663736  -0.359474
C    -0.350738  0.065507  0.970621
O    0.837916  -0.046239  1.284832
H    -1.858671  0.686358  -0.509982
H    -0.309216  0.084703  -1.167710
H    -0.379669  1.686290  -0.425424
N    -1.372509  -0.322945  1.779145
C    -1.213870  -0.890115  3.103645
C    -2.644091  -1.195637  3.596451
O    -3.637913  -0.806728  2.980180
H    -2.346793  -0.178970  1.514414
H    -0.663003  -1.844208  3.025859
C    -0.428427  0.021794  4.079003
C    -0.979154  1.442467  4.194675
C    -0.074998  2.394833  4.987044
C    1.356878  2.569494  4.433729
N    1.502903  2.943163  3.027224
H    0.605936  0.039565  3.715514
H    -0.401518  -0.458371  5.070940
H    -1.980505  1.425363  4.653416
H    -1.124062  1.849840  3.182654
H    0.001692  2.059139  6.036101
H    -0.561593  3.383724  5.022816
H    1.933911  1.644542  4.580897
H    1.862409  3.331384  5.049001
H    1.300182  2.158526  2.406006
H    0.878243  3.710003  2.776901
N    -2.713864  -1.912447  4.748248
C    -3.968308  -2.262853  5.387974
H    -1.846785  -2.192537  5.190852
H    -4.779042  -1.893836  4.751795
H    -4.065359  -3.351729  5.495302
H    -4.053778  -1.797573  6.380002
