33
Energy: -18209.4368871 eV PBE+vdW (tier 2 basis)
C    0.546929  -0.096744  0.262422
C    -0.197870  0.534101  1.424601
O    -0.139737  1.742311  1.657150
H    1.608597  0.166990  0.338638
H    0.170851  0.336246  -0.673929
H    0.448415  -1.188325  0.215787
N    -0.973883  -0.325824  2.148990
C    -1.613828  0.054290  3.396615
C    -1.147977  -0.957960  4.458194
O    -0.863165  -2.117714  4.157415
H    -0.834488  -1.329755  2.050340
H    -1.247958  1.064846  3.638914
C    -3.161458  0.058161  3.333707
C    -3.799346  1.316586  2.723276
C    -3.618115  1.587157  1.221403
C    -4.344537  0.641771  0.261534
N    -3.805426  -0.727624  0.291953
H    -3.534097  -0.033937  4.366491
H    -3.490501  -0.839661  2.793752
H    -3.424520  2.196226  3.273021
H    -4.880882  1.270922  2.935801
H    -2.549558  1.639228  0.965295
H    -4.004888  2.599336  1.022845
H    -4.315501  1.097939  -0.747951
H    -5.408677  0.583646  0.545225
H    -4.247541  -1.299230  -0.428171
H    -2.805898  -0.711244  0.082650
N    -1.114368  -0.480671  5.732222
C    -0.785607  -1.305954  6.879223
H    -1.331050  0.498058  5.878234
H    -1.628949  -1.369332  7.581350
H    0.092100  -0.913569  7.410854
H    -0.556070  -2.309770  6.507158
