33
Energy: -18209.2777413 eV PBE+vdW (tier 2 basis)
C    0.616951  -3.051227  1.371340
C    0.555046  -2.062288  2.526211
O    1.400769  -2.056033  3.412119
H    -0.168680  -2.915086  0.617460
H    0.550494  -4.068413  1.777440
H    1.595652  -2.957642  0.885460
N    -0.504490  -1.181152  2.462869
C    -0.918615  -0.258605  3.527021
C    -1.972775  0.737806  3.015191
O    -2.681787  1.355176  3.808643
H    -1.246735  -1.457385  1.827656
H    -1.409820  -0.818335  4.340033
C    0.223643  0.572054  4.155435
C    0.995120  1.455832  3.167265
C    1.646053  2.689268  3.805985
C    0.654868  3.662219  4.466101
N    -0.460064  4.023536  3.571036
H    0.907415  -0.103743  4.679519
H    -0.275557  1.187203  4.917293
H    0.325810  1.824462  2.375410
H    1.766063  0.854996  2.663394
H    2.196906  3.229488  3.020801
H    2.388055  2.383055  4.561784
H    1.200162  4.582067  4.721299
H    0.304368  3.242115  5.427255
H    -1.237028  3.369399  3.686931
H    -0.829890  4.936515  3.831807
N    -2.034409  0.922584  1.663587
C    -2.822921  2.000888  1.088700
H    -1.257493  0.558341  1.120715
H    -3.064979  1.763969  0.046566
H    -2.285294  2.961196  1.129149
H    -3.749313  2.101327  1.663088
