33
Energy: -18209.541273 eV PBE+vdW (tier 2 basis)
C    0.168988  -1.569996  0.636001
C    -0.308765  -0.909409  1.915671
O    -0.183499  -1.452513  3.014371
H    -0.012552  -0.970281  -0.264083
H    -0.335003  -2.538815  0.531619
H    1.244514  -1.768752  0.722085
N    -0.862831  0.329144  1.757844
C    -1.504798  1.047329  2.842137
C    -2.866303  1.536176  2.325800
O    -3.049906  1.780034  1.132360
H    -1.114967  0.658707  0.828557
H    -1.637897  0.325938  3.662707
C    -0.673494  2.257880  3.329497
C    0.689060  1.903453  3.933846
C    0.650232  1.027655  5.196116
C    -0.210497  1.557517  6.344474
N    0.173734  2.923862  6.728051
H    -1.267048  2.824625  4.063162
H    -0.528167  2.931556  2.471036
H    1.199988  2.850500  4.159402
H    1.301718  1.391560  3.176278
H    1.684670  0.903914  5.559357
H    0.308485  0.014786  4.935913
H    -0.160924  0.828773  7.176661
H    -1.269410  1.592058  6.037008
H    -0.382925  3.245747  7.519754
H    1.147457  2.938814  7.036623
N    -3.815281  1.711562  3.285165
C    -5.130926  2.256634  3.008046
H    -3.579094  1.460581  4.237870
H    -5.288954  3.207980  3.535468
H    -5.920970  1.551305  3.299848
H    -5.193046  2.433448  1.929290
