33
Energy: -18209.4217212 eV PBE+vdW (tier 2 basis)
C    -1.094068  0.776774  0.614094
C    -0.610631  0.375731  1.992121
O    0.050711  1.146626  2.700191
H    -0.228557  1.055538  0.000483
H    -1.726425  1.668229  0.710872
H    -1.661763  -0.008282  0.099677
N    -0.949978  -0.876724  2.399205
C    -0.643689  -1.414516  3.726340
C    0.808170  -1.976926  3.802211
O    1.047206  -3.163424  4.023661
H    -1.424238  -1.487606  1.744885
H    -0.681009  -0.554322  4.413098
C    -1.682375  -2.451238  4.164223
C    -1.959082  -3.596014  3.162259
C    -3.231117  -3.427818  2.312084
C    -4.533055  -3.680176  3.091603
N    -5.785238  -3.522081  2.348853
H    -2.616679  -1.917772  4.395703
H    -1.320392  -2.871918  5.110223
H    -2.041833  -4.540358  3.720538
H    -1.081309  -3.740535  2.516183
H    -3.194841  -4.127333  1.460726
H    -3.286316  -2.415216  1.872298
H    -4.583144  -3.014448  3.967090
H    -4.508633  -4.704542  3.496826
H    -5.792758  -4.126049  1.525534
H    -5.882635  -2.565303  2.006361
N    1.754434  -1.019273  3.623739
C    3.173432  -1.311705  3.615350
H    1.422931  -0.068961  3.432514
H    3.303842  -2.370192  3.864380
H    3.703615  -0.700817  4.359002
H    3.616422  -1.121348  2.626674
