33
Energy: -18209.0808269 eV PBE+vdW (tier 2 basis)
C    -0.111884  0.199863  -0.352203
C    0.174386  -0.190974  1.083869
O    1.317337  -0.344303  1.513813
H    -0.594902  1.186028  -0.408104
H    -0.782950  -0.517097  -0.845204
H    0.838311  0.234948  -0.890636
N    -0.907641  -0.362655  1.911361
C    -2.309893  -0.128324  1.608452
C    -2.780069  1.339827  1.444544
O    -3.793343  1.541764  0.774560
H    -0.648380  -0.605152  2.861556
H    -2.516511  -0.543184  0.611076
C    -3.251047  -0.877107  2.575160
C    -3.320328  -0.404934  4.039269
C    -2.140774  -0.722404  4.974594
C    -1.783452  -2.204637  5.093247
N    -0.761351  -2.400084  6.129391
H    -2.999704  -1.946831  2.522714
H    -4.255347  -0.775530  2.142496
H    -4.222039  -0.862368  4.476551
H    -3.511117  0.679856  4.059131
H    -2.385665  -0.357015  5.983217
H    -1.237885  -0.155727  4.685270
H    -1.488816  -2.606618  4.103623
H    -2.681987  -2.764222  5.398271
H    -0.565337  -3.393586  6.252251
H    0.120292  -1.971147  5.842088
N    -2.100462  2.386199  2.002084
C    -0.971076  2.442043  2.923197
H    -2.549700  3.268946  1.777111
H    -1.124617  1.810601  3.806806
H    -0.882709  3.476168  3.274195
H    -0.020729  2.161219  2.451683
