33
Energy: -18209.5432799 eV PBE+vdW (tier 2 basis)
C    -3.000858  -1.008237  -1.050626
C    -2.263056  -0.373246  0.113897
O    -1.667064  0.699579  0.006446
H    -3.476277  -1.964557  -0.801070
H    -2.292157  -1.161817  -1.873866
H    -3.768056  -0.309135  -1.406220
N    -2.320727  -1.065543  1.288233
C    -1.571169  -0.664640  2.459435
C    -1.353676  -1.941891  3.293897
O    -1.900977  -3.006913  2.996163
H    -2.668288  -2.023252  1.327471
H    -0.589504  -0.285579  2.126831
C    -2.255536  0.490824  3.235812
C    -3.662095  0.208477  3.783494
C    -3.763308  -0.706315  5.014896
C    -3.121314  -0.140531  6.280621
N    -3.082778  -1.157678  7.342348
H    -2.307116  1.329527  2.528039
H    -1.581511  0.828491  4.039550
H    -4.269274  -0.221279  2.972352
H    -4.130177  1.177520  4.020339
H    -3.331791  -1.695337  4.809141
H    -4.832166  -0.888809  5.217373
H    -3.652917  0.788285  6.569774
H    -2.079247  0.152549  6.078495
H    -4.026134  -1.497474  7.537944
H    -2.739263  -0.752952  8.213808
N    -0.532372  -1.800363  4.364724
C    -0.372536  -2.834362  5.375355
H    -0.178709  -0.873238  4.568422
H    0.665429  -2.854219  5.729152
H    -0.613467  -3.797712  4.915130
H    -1.051908  -2.666173  6.225636
