33
Energy: -18209.1921994 eV PBE+vdW (tier 2 basis)
C    -1.016877  -0.181536  -0.025857
C    -0.665725  0.168843  1.410782
O    0.495358  0.273296  1.790110
H    -2.094452  -0.201285  -0.231675
H    -0.588812  -1.163761  -0.262229
H    -0.541365  0.550015  -0.690379
N    -1.747047  0.377049  2.237114
C    -1.623373  0.536615  3.690096
C    -3.002232  0.536170  4.363783
O    -3.148400  0.099347  5.500446
H    -2.639531  0.032197  1.900026
H    -1.095017  -0.331613  4.112450
C    -0.828710  1.799161  4.112357
C    -1.375263  3.129352  3.585264
C    -0.449177  4.340116  3.781284
C    -0.199736  4.776975  5.231356
N    0.890884  4.027267  5.872602
H    0.206301  1.660587  3.775627
H    -0.825645  1.784569  5.212684
H    -2.348090  3.352833  4.055567
H    -1.568478  3.025340  2.504825
H    -0.899267  5.190084  3.244869
H    0.525624  4.149171  3.305703
H    -1.159822  4.737303  5.787526
H    0.109352  5.832504  5.225987
H    0.623456  3.058659  6.045958
H    1.106884  4.431599  6.783787
N    -4.034875  1.058685  3.627402
C    -5.355871  1.240142  4.205268
H    -3.794282  1.609073  2.809472
H    -6.115465  1.199521  3.415987
H    -5.445232  2.197261  4.742299
H    -5.531881  0.432462  4.922832
