33
Energy: -18209.4896954 eV PBE+vdW (tier 2 basis)
C    0.822063  0.431160  0.347717
C    -0.382105  0.651808  1.239007
O    -1.279281  1.449231  0.934680
H    1.542942  -0.291213  0.749610
H    1.326549  1.391936  0.187525
H    0.472921  0.078353  -0.630886
N    -0.414828  -0.076767  2.386688
C    -1.535685  -0.069424  3.328514
C    -1.471434  1.137290  4.312982
O    -1.383894  0.995667  5.532288
H    0.380139  -0.661665  2.615565
H    -2.438605  0.083292  2.716238
C    -1.649124  -1.414855  4.052919
C    -0.379192  -1.902531  4.766162
C    -0.605181  -3.145937  5.635550
C    -0.998317  -4.404509  4.860877
N    -1.118511  -5.550208  5.769698
H    -1.985979  -2.161558  3.318218
H    -2.450811  -1.313437  4.798154
H    0.000835  -1.091431  5.401293
H    0.412825  -2.139240  4.031513
H    -1.375533  -2.937399  6.393732
H    0.322771  -3.355152  6.193746
H    -0.270321  -4.558276  4.036081
H    -1.980769  -4.262963  4.385821
H    -0.210915  -5.776190  6.179485
H    -1.425264  -6.381775  5.265370
N    -1.553883  2.336480  3.681082
C    -1.490080  3.600176  4.386690
H    -1.626213  2.319422  2.659038
H    -2.385878  4.205690  4.190167
H    -0.604222  4.179991  4.088918
H    -1.432020  3.388033  5.459557
