33
Energy: -18209.326069 eV PBE+vdW (tier 2 basis)
C    0.547942  -0.624359  0.989602
C    0.335407  0.855938  1.233013
O    1.262015  1.655146  1.327835
H    0.173985  -1.221235  1.833707
H    1.620100  -0.800709  0.874050
H    0.019682  -0.972405  0.091470
N    -0.972383  1.286993  1.338277
C    -2.184705  0.475385  1.354375
C    -2.565117  -0.095873  -0.029512
O    -3.165445  -1.165221  -0.124357
H    -1.052991  2.265237  1.605102
H    -2.042126  -0.413307  1.988005
C    -3.318362  1.325116  1.969272
C    -4.708816  0.668721  2.017350
C    -5.594366  0.980702  0.803905
C    -6.909016  0.200396  0.787017
N    -7.768607  0.547932  1.930662
H    -3.382156  2.277175  1.414567
H    -2.989475  1.580535  2.987901
H    -5.217138  1.022037  2.926552
H    -4.597627  -0.422435  2.120097
H    -5.053956  0.746870  -0.124800
H    -5.820806  2.059263  0.789568
H    -6.677452  -0.880855  0.716730
H    -7.461049  0.462933  -0.127128
H    -8.703640  0.163997  1.795979
H    -7.413924  0.124866  2.788903
N    -2.218548  0.683783  -1.088552
C    -2.515169  0.326560  -2.461153
H    -1.647562  1.499174  -0.891863
H    -3.115191  1.105672  -2.951333
H    -3.087343  -0.607341  -2.443894
H    -1.595446  0.170262  -3.042417
