33
Energy: -18209.5387997 eV PBE+vdW (tier 2 basis)
C    0.203667  -1.772180  1.084703
C    0.224234  -0.907674  2.330237
O    1.127804  -0.959227  3.168972
H    0.644117  -1.200658  0.252664
H    -0.813104  -2.064468  0.791195
H    0.808113  -2.666759  1.260585
N    -0.810430  -0.026273  2.425823
C    -0.918582  0.975603  3.464465
C    -2.351505  1.528595  3.385986
O    -3.054908  1.365690  2.387690
H    -1.562684  -0.007306  1.740170
H    -0.768300  0.483222  4.440194
C    0.135877  2.110536  3.362181
C    0.019812  3.067848  2.165416
C    0.274404  2.475421  0.770037
C    1.661328  1.860772  0.585673
N    1.752223  1.170486  -0.709913
H    1.120431  1.624958  3.391729
H    0.072912  2.705228  4.287645
H    0.734559  3.889624  2.336922
H    -0.976543  3.537990  2.166466
H    0.140526  3.282022  0.029119
H    -0.480932  1.716869  0.527055
H    1.850400  1.108365  1.364061
H    2.426517  2.651777  0.724547
H    1.623515  1.832947  -1.476786
H    2.681304  0.766888  -0.831909
N    -2.755440  2.231186  4.478339
C    -4.045327  2.889798  4.563487
H    -2.121746  2.295011  5.266073
H    -3.930114  3.974313  4.698823
H    -4.642162  2.488579  5.394169
H    -4.574452  2.701804  3.623714
