33
Energy: -18209.4789646 eV PBE+vdW (tier 2 basis)
C    0.696750  0.046161  0.361431
C    0.466306  -0.028782  1.857632
O    1.408071  -0.190096  2.644325
H    1.403647  0.858842  0.153938
H    -0.216619  0.206026  -0.224084
H    1.168825  -0.888852  0.034553
N    -0.828372  0.092615  2.261016
C    -1.334163  -0.009509  3.642359
C    -0.980373  1.239343  4.498658
O    -1.867770  1.924593  5.015055
H    -1.517790  0.291621  1.547027
H    -2.426405  0.040579  3.546161
C    -0.958565  -1.357230  4.307681
C    -1.967540  -1.876566  5.349049
C    -2.298098  -0.945133  6.525472
C    -1.095288  -0.519936  7.385204
N    -1.331919  0.610355  8.290184
H    0.047518  -1.289845  4.739765
H    -0.886361  -2.104971  3.504214
H    -1.573342  -2.831549  5.733606
H    -2.907952  -2.129936  4.832192
H    -3.041313  -1.443828  7.169055
H    -2.785495  -0.033896  6.148343
H    -0.251207  -0.239652  6.738585
H    -0.738975  -1.373218  7.984314
H    -2.079834  0.385225  8.948573
H    -1.666173  1.407114  7.742631
N    0.340096  1.482751  4.652776
C    0.823368  2.577879  5.473226
H    0.995350  0.880732  4.142748
H    1.883524  2.742385  5.254145
H    0.712531  2.356854  6.546039
H    0.260972  3.495462  5.258363
