33
Energy: -18209.1604899 eV PBE+vdW (tier 2 basis)
C    0.466985  -0.281348  1.003732
C    0.217797  -0.592235  2.465275
O    1.128074  -0.787251  3.268374
H    0.198480  0.758870  0.770616
H    -0.128135  -0.919935  0.337170
H    1.530882  -0.427918  0.801617
N    -1.094213  -0.652440  2.875622
C    -2.289240  -0.306809  2.118867
C    -2.386244  1.174669  1.683219
O    -2.740721  1.441943  0.534880
H    -1.194930  -0.849096  3.867781
H    -2.280226  -0.843664  1.158577
C    -3.535396  -0.760330  2.901013
C    -4.857655  -0.546973  2.158437
C    -6.092732  -0.959228  2.968144
C    -6.196319  -2.456535  3.262106
N    -7.435370  -2.749800  3.991888
H    -3.575204  -0.237525  3.871755
H    -3.392178  -1.827595  3.130000
H    -4.832779  -1.101163  1.206040
H    -4.953918  0.511994  1.879279
H    -6.991636  -0.651218  2.408852
H    -6.127577  -0.409308  3.922262
H    -5.360418  -2.774538  3.903743
H    -6.090401  -3.015285  2.309076
H    -8.247663  -2.555634  3.404175
H    -7.484746  -3.738882  4.235559
N    -2.095263  2.169073  2.574608
C    -1.653008  2.107112  3.961096
H    -2.179062  3.089628  2.154554
H    -2.281238  1.437105  4.561502
H    -1.750681  3.110254  4.390900
H    -0.605576  1.789760  4.060014
