33
Energy: -18209.1793512 eV PBE+vdW (tier 2 basis)
C    0.468486  -1.429004  0.999451
C    -0.107663  -0.742019  2.219636
O    0.600702  -0.409587  3.173358
H    0.309652  -0.831349  0.092679
H    0.014788  -2.417861  0.853331
H    1.543707  -1.543607  1.160809
N    -1.459667  -0.514219  2.263702
C    -2.437822  -0.482505  1.178023
C    -2.523294  -1.868337  0.480787
O    -2.729438  -2.883537  1.137874
H    -1.747173  -0.099323  3.144077
H    -3.414120  -0.414999  1.684871
C    -2.310374  0.751653  0.261712
C    -2.558412  2.104011  0.960834
C    -1.425573  2.736115  1.789063
C    -0.177026  3.168592  1.012243
N    0.671294  2.023794  0.642022
H    -1.321174  0.776807  -0.220064
H    -3.074582  0.656229  -0.526683
H    -2.840293  2.830964  0.181717
H    -3.450628  2.007153  1.603510
H    -1.114194  2.078635  2.614435
H    -1.841103  3.635555  2.270042
H    0.359641  3.924685  1.617323
H    -0.483242  3.675545  0.082327
H    1.037548  1.580742  1.488326
H    1.483168  2.345418  0.114342
N    -2.392501  -1.869911  -0.876125
C    -2.430792  -3.091142  -1.657049
H    -2.140642  -1.003968  -1.335944
H    -3.080451  -2.970631  -2.533646
H    -2.828873  -3.884197  -1.015573
H    -1.426556  -3.387171  -1.996274
