33
Energy: -18209.5165198 eV PBE+vdW (tier 2 basis)
C    -1.167272  0.952349  0.243471
C    -0.726679  0.784006  1.686546
O    0.360173  1.198871  2.094273
H    -1.341779  2.019766  0.052472
H    -2.080550  0.397784  -0.004792
H    -0.353421  0.629328  -0.415689
N    -1.632036  0.174657  2.500439
C    -1.377643  -0.095893  3.900522
C    -2.353503  -1.211909  4.309674
O    -3.321039  -1.515202  3.608516
H    -2.482267  -0.251390  2.136524
H    -0.340780  -0.461189  3.992042
C    -1.506334  1.147791  4.818806
C    -2.919303  1.688423  5.075380
C    -3.666200  2.283612  3.870882
C    -2.944995  3.432477  3.160673
N    -2.678150  4.545585  4.082730
H    -0.856662  1.925969  4.396231
H    -1.054064  0.890750  5.790369
H    -2.827916  2.470046  5.843126
H    -3.545447  0.895340  5.515385
H    -4.645817  2.647623  4.225676
H    -3.893734  1.502532  3.132053
H    -3.541684  3.721791  2.273031
H    -1.973829  3.086577  2.778617
H    -2.087337  5.247208  3.638111
H    -3.548441  5.015243  4.336773
N    -2.080468  -1.804288  5.502185
C    -2.929367  -2.821244  6.093831
H    -1.261956  -1.494337  6.012272
H    -2.371248  -3.751774  6.265045
H    -3.745314  -3.019944  5.391643
H    -3.354913  -2.480068  7.048094
