33
Energy: -18209.2800702 eV PBE+vdW (tier 2 basis)
C    -1.648642  0.182332  -0.944863
C    -0.582307  0.119170  0.139711
O    0.522713  0.645767  -0.026827
H    -1.282366  0.846591  -1.732030
H    -2.606037  0.566828  -0.566603
H    -1.832877  -0.809427  -1.383398
N    -0.888012  -0.523501  1.303366
C    -1.999484  -1.422221  1.529682
C    -2.653735  -1.103555  2.887706
O    -2.004806  -0.675960  3.837683
H    -0.092284  -0.609676  1.956873
H    -2.734771  -1.261897  0.732089
C    -1.568701  -2.915048  1.483284
C    -0.517889  -3.331924  2.541178
C    0.875897  -3.679970  1.995282
C    1.642346  -2.543453  1.308919
N    1.769519  -1.363957  2.173678
H    -1.191596  -3.109508  0.466692
H    -2.471433  -3.534626  1.593602
H    -0.893356  -4.212251  3.081391
H    -0.422307  -2.542389  3.299416
H    0.800485  -4.516975  1.281209
H    1.483715  -4.059384  2.834119
H    1.108547  -2.219607  0.403156
H    2.614090  -2.941207  0.960247
H    2.395223  -1.540398  2.959451
H    2.134462  -0.570493  1.644578
N    -3.991712  -1.375313  3.003819
C    -4.926164  -1.760933  1.959149
H    -4.363978  -1.161604  3.923629
H    -5.012592  -0.999034  1.168910
H    -5.916397  -1.883352  2.410632
H    -4.657605  -2.719701  1.493071
