33
Energy: -18209.4859786 eV PBE+vdW (tier 2 basis)
C    -2.275717  -0.919896  -0.429892
C    -1.959536  -0.570286  1.009159
O    -1.665596  0.581336  1.351308
H    -3.122405  -0.305768  -0.761115
H    -2.520969  -1.977776  -0.584102
H    -1.415369  -0.655281  -1.056931
N    -2.024167  -1.597512  1.901533
C    -1.793149  -1.424013  3.336584
C    -0.273668  -1.489518  3.653258
O    0.248359  -2.457353  4.203687
H    -2.179914  -2.539174  1.559179
H    -2.135636  -0.405351  3.567377
C    -2.582662  -2.461490  4.134346
C    -4.113483  -2.321427  4.046153
C    -4.764783  -1.437671  5.122491
C    -4.393093  0.054138  5.098912
N    -5.122194  0.909686  6.040206
H    -2.252218  -2.407847  5.181518
H    -2.266405  -3.460178  3.795640
H    -4.559256  -3.323969  4.124958
H    -4.397462  -1.950689  3.046652
H    -4.526728  -1.847515  6.119432
H    -5.860139  -1.515817  5.017531
H    -4.552080  0.458245  4.085689
H    -3.321571  0.185096  5.313004
H    -6.128678  0.831712  5.884830
H    -4.956579  0.603567  7.000231
N    0.391667  -0.372139  3.255165
C    1.831654  -0.243354  3.355701
H    -0.144044  0.311484  2.715002
H    2.316206  -0.320486  2.370508
H    2.201760  -1.054002  3.992254
H    2.102853  0.721247  3.804733
