33
Energy: -18208.922594 eV PBE+vdW (tier 2 basis)
C    0.038085  0.758514  0.498588
C    -0.096446  0.407662  1.967137
O    0.874679  0.494895  2.719370
H    -0.615802  1.593313  0.218709
H    -0.203627  -0.087567  -0.155961
H    1.078927  1.048627  0.333346
N    -1.305223  0.005608  2.494391
C    -2.650556  -0.325889  2.004670
C    -3.021150  -1.795706  2.329794
O    -4.045047  -2.030447  2.972492
H    -1.196974  -0.152893  3.494488
H    -3.354568  0.229888  2.642895
C    -2.993922  0.048804  0.555655
C    -4.464285  -0.217775  0.217962
C    -4.819334  0.199561  -1.211349
C    -6.292615  -0.012545  -1.565493
N    -6.652407  -1.437471  -1.551300
H    -2.362129  -0.493423  -0.161233
H    -2.781283  1.119069  0.415501
H    -5.109267  0.317839  0.934217
H    -4.679737  -1.287869  0.355550
H    -4.203142  -0.368899  -1.926587
H    -4.576831  1.265836  -1.353693
H    -6.466736  0.359562  -2.585531
H    -6.916798  0.610182  -0.892225
H    -6.713531  -1.786294  -0.594257
H    -7.575866  -1.573318  -1.961401
N    -2.220562  -2.814265  1.896378
C    -0.965541  -2.784264  1.161203
H    -2.562227  -3.720851  2.199794
H    -0.723750  -3.809885  0.862407
H    -0.132355  -2.394000  1.761619
H    -1.044985  -2.190235  0.242176
