33
Energy: -18209.5390204 eV PBE+vdW (tier 2 basis)
C    -4.561497  3.029718  1.050142
C    -3.683991  1.836743  1.365554
O    -3.768304  0.778800  0.729446
H    -5.613119  2.728942  1.133082
H    -4.387606  3.325904  0.008048
H    -4.382484  3.894569  1.700501
N    -2.796092  2.001290  2.384563
C    -1.837049  0.970963  2.788418
C    -2.500533  -0.039039  3.766069
O    -2.230692  -0.073197  4.965234
H    -2.824459  2.856136  2.929171
H    -1.578520  0.425243  1.867132
C    -0.585728  1.603070  3.390524
C    0.243268  2.401539  2.378569
C    1.524800  3.012907  2.962304
C    1.289461  4.159002  3.959862
N    2.487382  4.815787  4.490604
H    0.023355  0.794381  3.819094
H    -0.881358  2.222455  4.251623
H    -0.368991  3.204669  1.934607
H    0.511611  1.737529  1.541229
H    2.145286  3.397013  2.135810
H    2.122033  2.224468  3.451839
H    0.707587  3.799981  4.821950
H    0.669512  4.933032  3.477182
H    3.057344  4.147676  5.011408
H    3.073529  5.158095  3.727419
N    -3.392071  -0.858870  3.148168
C    -4.202476  -1.817987  3.871785
H    -3.595469  -0.657149  2.165880
H    -4.156903  -2.804187  3.390899
H    -5.255248  -1.501687  3.924222
H    -3.808579  -1.895796  4.890663
