33
Energy: -18209.1542766 eV PBE+vdW (tier 2 basis)
C    -0.597592  -0.514802  0.650500
C    -1.004262  -0.757722  2.089552
O    -0.384238  -1.531027  2.818421
H    -1.216042  -1.132802  -0.016329
H    0.444530  -0.826789  0.540722
H    -0.713842  0.524925  0.325187
N    -2.128909  -0.124832  2.567685
C    -2.994490  0.882009  1.952144
C    -3.510048  0.476157  0.554113
O    -3.365034  1.198328  -0.430927
H    -2.313300  -0.361215  3.538353
H    -3.892885  0.919904  2.591559
C    -2.394634  2.295301  1.935949
C    -1.975033  2.816146  3.317775
C    -3.026491  2.795086  4.439872
C    -4.307546  3.607463  4.212572
N    -5.263958  2.944408  3.303605
H    -3.124360  2.966339  1.461540
H    -1.524004  2.317351  1.265756
H    -1.615971  3.850128  3.191078
H    -1.101586  2.240769  3.662243
H    -2.540490  3.185239  5.348195
H    -3.322573  1.761131  4.682085
H    -4.038167  4.630571  3.885617
H    -4.813926  3.717276  5.182067
H    -6.208518  3.282197  3.484014
H    -5.066012  3.176719  2.330266
N    -4.165203  -0.719979  0.461148
C    -4.522743  -1.653903  1.516999
H    -4.474609  -0.927030  -0.482993
H    -4.885341  -1.125849  2.409000
H    -3.683925  -2.299861  1.812750
H    -5.340901  -2.287350  1.155844
