33
Energy: -18209.4195327 eV PBE+vdW (tier 2 basis)
C    -0.527427  -0.509428  0.337558
C    -0.105358  -0.566461  1.792948
O    0.793171  -1.301055  2.193579
H    -0.513623  0.515952  -0.056462
H    -1.548247  -0.897212  0.208854
H    0.161048  -1.132023  -0.239173
N    -0.771529  0.266505  2.666961
C    -1.915879  1.128111  2.397989
C    -1.553374  2.557470  1.927926
O    -2.435188  3.320562  1.539271
H    -0.501390  0.127619  3.638192
H    -2.498664  0.700835  1.567943
C    -2.834498  1.207483  3.627297
C    -3.537414  -0.110247  3.960567
C    -4.418972  -0.011402  5.208665
C    -5.179803  -1.297496  5.536971
N    -4.266961  -2.390056  5.902493
H    -3.574802  1.994324  3.428222
H    -2.240939  1.551292  4.492733
H    -2.786367  -0.904198  4.100102
H    -4.154687  -0.414404  3.097295
H    -5.150282  0.802000  5.072371
H    -3.797644  0.257533  6.077826
H    -5.852577  -1.544225  4.689953
H    -5.828244  -1.109533  6.404863
H    -3.789175  -2.757497  5.079386
H    -4.788625  -3.170952  6.299161
N    -0.233737  2.875915  1.986548
C    0.280918  4.170163  1.586458
H    0.401207  2.151843  2.305922
H    0.992967  4.075327  0.754760
H    0.781492  4.674803  2.424464
H    -0.569840  4.778514  1.260743
