33
Energy: -18209.4705209 eV PBE+vdW (tier 2 basis)
C    -0.086696  -0.715901  0.105880
C    0.145945  -0.214555  1.514144
O    1.254729  -0.228500  2.043190
H    -0.783538  -0.091246  -0.467510
H    -0.483647  -1.744184  0.140872
H    0.881432  -0.742298  -0.402187
N    -0.942559  0.279434  2.211563
C    -2.359138  0.132080  1.898710
C    -3.101019  1.477042  1.717004
O    -4.322874  1.506516  1.583693
H    -0.710708  0.466599  3.186293
H    -2.430451  -0.355993  0.916932
C    -3.081574  -0.749310  2.933554
C    -2.602172  -2.204837  2.924948
C    -3.072730  -3.006089  1.704228
C    -2.332395  -4.329900  1.505771
N    -0.926337  -4.102010  1.131521
H    -4.159146  -0.686065  2.728808
H    -2.929429  -0.306185  3.931804
H    -2.954856  -2.705327  3.839982
H    -1.501687  -2.213645  2.985782
H    -2.945112  -2.416140  0.783114
H    -4.151991  -3.204810  1.798005
H    -2.804994  -4.878154  0.678361
H    -2.451702  -4.959730  2.409911
H    -0.369060  -3.835538  1.943818
H    -0.509270  -4.960849  0.774314
N    -2.302420  2.576798  1.691255
C    -2.815237  3.914730  1.477986
H    -1.303965  2.417434  1.780436
H    -2.530882  4.582846  2.302421
H    -3.907684  3.847580  1.431317
H    -2.444780  4.340176  0.534387
