33
Energy: -18209.0644315 eV PBE+vdW (tier 2 basis)
C    -0.276077  -1.198618  0.075536
C    -0.139664  -0.928123  1.563130
O    0.881705  -1.203489  2.185145
H    -1.256027  -0.931427  -0.339772
H    -0.087399  -2.263625  -0.105767
H    0.499346  -0.633403  -0.457102
N    -1.227014  -0.324013  2.145631
C    -1.329794  -0.135852  3.594478
C    -2.697943  -0.610019  4.118838
O    -2.763749  -1.479804  4.982141
H    -2.063947  -0.239014  1.582999
H    -0.613770  -0.844284  4.030889
C    -0.966137  1.268985  4.127808
C    0.509139  1.668670  3.957898
C    0.859084  2.295831  2.605000
C    2.343456  2.629885  2.481053
N    2.633035  3.243246  1.176014
H    -1.210215  1.249461  5.201400
H    -1.611025  2.041022  3.681216
H    1.142532  0.785241  4.130608
H    0.761577  2.391214  4.750727
H    0.274000  3.216862  2.450133
H    0.583406  1.613214  1.787448
H    2.930586  1.712559  2.682310
H    2.620181  3.359348  3.258908
H    3.611338  3.529016  1.128677
H    2.504609  2.553400  0.433552
N    -3.849765  -0.072007  3.590022
C    -4.054581  1.146602  2.821724
H    -4.674287  -0.460944  4.040981
H    -4.287616  2.010313  3.464881
H    -4.886174  1.004015  2.119070
H    -3.165851  1.404923  2.238326
