33
Energy: -18209.1336383 eV PBE+vdW (tier 2 basis)
C    0.065259  0.894687  0.172782
C    0.241016  0.120800  1.464333
O    1.341862  -0.002197  1.996388
H    -0.854391  1.493707  0.149133
H    0.038766  0.203083  -0.680566
H    0.933614  1.548872  0.055620
N    -0.867443  -0.465546  2.035521
C    -2.285388  -0.309088  1.695676
C    -3.185234  -0.871114  2.810891
O    -4.278024  -0.364613  3.044668
H    -0.657612  -0.801613  2.971965
H    -2.549188  0.759992  1.661729
C    -2.722675  -0.922857  0.339156
C    -2.692774  -2.449063  0.183983
C    -1.313106  -3.114317  0.233956
C    -1.360428  -4.590110  -0.157533
N    -0.063315  -5.234069  0.078889
H    -2.124808  -0.463334  -0.459977
H    -3.754114  -0.574398  0.181384
H    -3.155681  -2.678644  -0.789874
H    -3.354012  -2.914259  0.933383
H    -0.861356  -3.039670  1.233901
H    -0.619749  -2.578475  -0.437559
H    -1.723267  -4.672537  -1.202570
H    -2.104961  -5.106681  0.469810
H    0.657268  -4.811788  -0.508840
H    -0.099847  -6.221419  -0.174150
N    -2.706292  -1.957192  3.489884
C    -3.506526  -2.637882  4.493538
H    -1.899610  -2.444917  3.114597
H    -2.847997  -3.118084  5.226054
H    -4.166659  -3.398786  4.049166
H    -4.135172  -1.896731  4.997256
