33
Energy: -18209.3805412 eV PBE+vdW (tier 2 basis)
C    0.400106  0.634122  1.289555
C    0.154966  -0.519991  2.239555
O    1.049539  -1.046698  2.896185
H    -0.232060  1.500403  1.529954
H    0.175223  0.338344  0.253776
H    1.452238  0.919281  1.367361
N    -1.147625  -0.963632  2.353961
C    -2.297286  -0.555354  1.554993
C    -3.165587  0.539765  2.206403
O    -4.090179  1.061116  1.582844
H    -1.237732  -1.795347  2.933637
H    -1.919222  -0.118548  0.621613
C    -3.137211  -1.797785  1.182542
C    -4.129358  -1.623768  0.022657
C    -3.576179  -1.038808  -1.286039
C    -2.448829  -1.808510  -1.985902
N    -1.121260  -1.609376  -1.366054
H    -3.686128  -2.143609  2.074042
H    -2.421966  -2.600356  0.941942
H    -4.952896  -0.977899  0.354512
H    -4.568817  -2.613990  -0.182663
H    -3.249247  -0.000039  -1.126548
H    -4.421031  -0.979081  -1.990277
H    -2.373350  -1.430372  -3.015292
H    -2.728785  -2.877180  -2.068924
H    -0.974391  -2.259124  -0.593292
H    -0.388422  -1.818537  -2.043422
N    -2.833500  0.864872  3.485013
C    -3.532157  1.882837  4.242768
H    -2.018683  0.405294  3.877880
H    -2.864402  2.716504  4.502253
H    -3.955469  1.468216  5.168186
H    -4.346636  2.261634  3.615539
