33
Energy: -18209.5520495 eV PBE+vdW (tier 2 basis)
C    -5.834635  2.710388  2.055906
C    -4.405216  2.274330  1.811707
O    -3.978292  2.048067  0.672979
H    -6.017993  3.637501  1.498639
H    -6.071084  2.877656  3.113733
H    -6.511838  1.947328  1.652738
N    -3.619119  2.156126  2.918230
C    -2.206247  1.777790  2.848978
C    -2.084688  0.229689  2.775459
O    -1.796547  -0.457383  3.753933
H    -4.036001  2.266710  3.835733
H    -1.828928  2.198282  1.904317
C    -1.433699  2.361644  4.028200
C    0.084699  2.239001  3.875355
C    0.849139  2.884632  5.035075
C    2.369624  2.853514  4.871870
N    2.896040  1.484846  4.956456
H    -1.747727  1.847995  4.950672
H    -1.709854  3.423993  4.125017
H    0.395561  2.711873  2.927265
H    0.342304  1.171911  3.802659
H    0.586544  2.378805  5.977598
H    0.533709  3.936617  5.134702
H    2.825098  3.428750  5.691522
H    2.638410  3.378973  3.931441
H    3.915432  1.493264  4.935246
H    2.597328  0.930210  4.153811
N    -2.344214  -0.260979  1.533990
C    -2.420097  -1.683176  1.262385
H    -2.730599  0.402838  0.858774
H    -1.928607  -2.214625  2.084061
H    -1.910131  -1.920251  0.319860
H    -3.462373  -2.031320  1.195688
