33
Energy: -18209.1490513 eV PBE+vdW (tier 2 basis)
C    1.122072  -1.562432  0.421938
C    0.722754  -1.567961  1.886219
O    1.288073  -2.287607  2.709176
H    0.592049  -0.814901  -0.181319
H    0.930272  -2.558754  0.003519
H    2.200982  -1.379909  0.351803
N    -0.292442  -0.712688  2.219493
C    -0.921997  -0.710524  3.548521
C    -2.280804  0.004773  3.493673
O    -3.296664  -0.559245  3.889268
H    -0.810515  -0.289911  1.457810
H    -1.171976  -1.747970  3.811009
C    0.011971  -0.147975  4.643844
C    -0.587490  -0.154835  6.056276
C    -1.021787  -1.514483  6.630677
C    0.057944  -2.608417  6.690339
N    0.133444  -3.408030  5.460584
H    0.312885  0.877037  4.385696
H    0.933616  -0.744192  4.616714
H    -1.454933  0.525004  6.090624
H    0.164824  0.288332  6.728858
H    -1.883330  -1.913327  6.075271
H    -1.379917  -1.325486  7.654832
H    -0.209846  -3.301448  7.501000
H    1.024832  -2.149169  6.988164
H    0.638680  -2.938082  4.705281
H    0.633738  -4.278077  5.636573
N    -2.354775  1.273340  2.961824
C    -1.305027  2.261318  2.749911
H    -3.304648  1.632989  3.016944
H    -1.084979  2.841500  3.660325
H    -1.624404  2.958287  1.965030
H    -0.378621  1.783402  2.417104
