33
Energy: -18209.0700734 eV PBE+vdW (tier 2 basis)
C    -0.261899  -1.144783  0.328008
C    -0.477860  0.153165  1.087101
O    0.272980  1.115559  0.958861
H    -0.038534  -0.909920  -0.718587
H    -1.112550  -1.836485  0.372168
H    0.620255  -1.647266  0.747966
N    -1.566846  0.161219  1.918867
C    -1.900570  1.220088  2.876329
C    -1.601984  2.650536  2.351332
O    -0.955574  3.449940  3.019818
H    -2.089824  -0.702367  2.005126
H    -2.999625  1.181568  2.982206
C    -1.301930  1.003361  4.277571
C    0.228590  0.843283  4.347419
C    0.718962  -0.610388  4.285588
C    2.229153  -0.737276  4.082564
N    2.979079  -0.179062  5.218508
H    -1.788426  0.118572  4.721519
H    -1.613802  1.866134  4.880417
H    0.571184  1.292448  5.290799
H    0.691159  1.433162  3.543918
H    0.223798  -1.142914  3.459187
H    0.436632  -1.135978  5.212741
H    2.490517  -0.275781  3.108608
H    2.492204  -1.803503  4.010873
H    3.974006  -0.377132  5.113102
H    2.895607  0.838183  5.232364
N    -2.212736  3.041390  1.189663
C    -2.963062  2.257026  0.228530
H    -1.919451  3.970627  0.904500
H    -3.583092  2.936689  -0.368477
H    -3.638468  1.556004  0.733680
H    -2.316616  1.684805  -0.455933
