33
Energy: -18209.5121108 eV PBE+vdW (tier 2 basis)
C    0.417361  1.840760  0.312621
C    -0.526149  1.097046  1.235874
O    -1.674800  1.497600  1.459215
H    0.499440  2.879955  0.653495
H    -0.018658  1.859360  -0.694370
H    1.418822  1.397113  0.259535
N    -0.034175  -0.039143  1.795489
C    -0.818123  -0.836892  2.713356
C    0.172909  -1.692085  3.514387
O    1.311731  -1.915724  3.099535
H    0.924790  -0.351080  1.656156
H    -1.354571  -0.145833  3.384973
C    -1.876627  -1.702385  1.980368
C    -3.123746  -2.021391  2.821078
C    -4.401524  -2.212329  1.986214
C    -5.099376  -0.910336  1.566722
N    -4.328741  -0.105899  0.610550
H    -1.407077  -2.628807  1.616363
H    -2.179055  -1.141930  1.088826
H    -3.303374  -1.195786  3.534312
H    -2.947496  -2.921026  3.431369
H    -5.126961  -2.796005  2.574735
H    -4.174026  -2.805976  1.086398
H    -5.374015  -0.354888  2.488283
H    -6.047253  -1.182317  1.078812
H    -3.597220  0.446656  1.067190
H    -4.939961  0.566123  0.148917
N    -0.315071  -2.200248  4.677599
C    0.439637  -3.106172  5.523360
H    -1.259617  -1.952394  4.947201
H    0.558222  -2.695122  6.535130
H    1.429140  -3.232746  5.072556
H    -0.049437  -4.088096  5.592748
