33
Energy: -18209.523257 eV PBE+vdW (tier 2 basis)
C    -0.674475  -0.916540  -0.086094
C    -0.475479  -0.860375  1.417436
O    0.401229  -0.168771  1.938533
H    -0.909305  0.092260  -0.448298
H    -1.471866  -1.601507  -0.398920
H    0.269073  -1.221469  -0.555008
N    -1.342105  -1.617158  2.148759
C    -1.238345  -1.740156  3.586626
C    -1.874087  -3.089991  3.962732
O    -2.554759  -3.732857  3.162223
H    -1.981042  -2.277391  1.710108
H    -0.167558  -1.749036  3.850105
C    -1.897956  -0.556390  4.336572
C    -3.404705  -0.430108  4.119275
C    -4.004896  0.783343  4.832904
C    -5.491306  1.003399  4.539674
N    -5.710156  1.323205  3.122002
H    -1.383905  0.355133  3.997686
H    -1.674001  -0.649820  5.412929
H    -3.915113  -1.343332  4.469364
H    -3.619620  -0.353053  3.044218
H    -3.446625  1.692279  4.546525
H    -3.874319  0.683452  5.923206
H    -5.881389  1.773252  5.234139
H    -6.045078  0.076360  4.757461
H    -6.706428  1.348024  2.907339
H    -5.343537  2.251890  2.908090
N    -1.645761  -3.493180  5.241912
C    -2.206478  -4.708815  5.800541
H    -1.057313  -2.912906  5.827669
H    -2.806156  -5.185236  5.018283
H    -2.851947  -4.489837  6.662668
H    -1.415593  -5.403668  6.115341
