33
Energy: -18209.475253 eV PBE+vdW (tier 2 basis)
C    0.781570  -0.008779  0.494494
C    -0.381135  0.052918  1.467437
O    -1.548207  -0.025772  1.100580
H    0.834105  -1.022737  0.076333
H    1.751276  0.237164  0.945516
H    0.585351  0.677033  -0.337664
N    -0.029076  0.217460  2.790973
C    -0.991970  0.074615  3.877072
C    -1.181715  1.359386  4.713972
O    -1.765923  1.327201  5.794608
H    0.953541  0.122137  3.027831
H    -1.959398  -0.094128  3.374498
C    -0.671771  -1.125762  4.776437
C    -0.816057  -2.473458  4.069108
C    -0.508321  -3.665670  4.977048
C    -0.652115  -5.035540  4.290962
N    -1.988683  -5.423345  3.832058
H    -1.346170  -1.068201  5.641593
H    0.349881  -1.013290  5.181633
H    -0.153953  -2.513491  3.186985
H    -1.843537  -2.554090  3.677755
H    -1.167252  -3.635569  5.862003
H    0.522149  -3.576043  5.362773
H    -0.300399  -5.817188  4.981568
H    0.020391  -5.078286  3.418560
H    -2.337466  -4.774248  3.126622
H    -2.655153  -5.398828  4.605270
N    -0.691119  2.497394  4.151294
C    -0.882713  3.806847  4.741304
H    -0.275211  2.412240  3.230664
H    -1.319175  3.661314  5.735370
H    -1.568637  4.422465  4.141319
H    0.073891  4.337252  4.842022
