33
Energy: -18209.5030187 eV PBE+vdW (tier 2 basis)
C    -0.833937  0.056718  0.045316
C    -0.469898  0.154761  1.513637
O    0.703618  0.325828  1.869499
H    -0.464994  0.951778  -0.470075
H    -1.909091  -0.049789  -0.142928
H    -0.311624  -0.807054  -0.385371
N    -1.510327  0.046354  2.385302
C    -1.448149  0.002496  3.856328
C    -1.069484  1.348037  4.528938
O    -1.811180  1.830150  5.388261
H    -2.433964  -0.040106  1.980539
H    -2.485479  -0.150777  4.175347
C    -0.592950  -1.178343  4.364988
C    -0.522848  -1.293389  5.892594
C    -1.866944  -1.531448  6.586569
C    -1.723005  -1.752726  8.090577
N    -3.036872  -1.973969  8.710379
H    0.422181  -1.085195  3.957674
H    -1.021705  -2.099781  3.938939
H    -0.052233  -0.387067  6.306740
H    0.161930  -2.123039  6.131804
H    -2.375315  -2.405971  6.148796
H    -2.526621  -0.663777  6.425077
H    -1.162937  -0.899732  8.524130
H    -1.113895  -2.652729  8.272135
H    -2.933510  -2.160628  9.707986
H    -3.603379  -1.127244  8.635248
N    0.114232  1.881836  4.143267
C    0.620126  3.126181  4.686247
H    0.617486  1.401257  3.387932
H    1.614981  2.983764  5.131201
H    -0.073498  3.467254  5.462134
H    0.693735  3.899868  3.908204
