33
Energy: -18209.3576078 eV PBE+vdW (tier 2 basis)
C    0.155879  0.411798  -0.115719
C    -0.200676  -0.097696  1.267157
O    0.626787  -0.144270  2.178402
H    0.558873  1.427698  -0.022479
H    -0.689791  0.424812  -0.814168
H    0.952213  -0.219664  -0.529177
N    -1.504027  -0.480320  1.432125
C    -1.989771  -1.077595  2.669547
C    -2.087111  -2.601803  2.467147
O    -2.920566  -3.077309  1.693619
H    -2.098713  -0.566952  0.614524
H    -1.238628  -0.821289  3.425832
C    -3.355573  -0.513359  3.082009
C    -3.316226  0.983329  3.400134
C    -4.691625  1.607514  3.677467
C    -5.454502  1.016883  4.866542
N    -4.724153  1.213725  6.127130
H    -3.701049  -1.088929  3.955324
H    -4.082666  -0.727202  2.282469
H    -2.855534  1.516903  2.555036
H    -2.644175  1.163177  4.255562
H    -5.322576  1.504242  2.779321
H    -4.559791  2.685832  3.853413
H    -5.705257  -0.042451  4.658473
H    -6.414387  1.545767  4.958934
H    -5.296891  0.920012  6.918102
H    -3.884965  0.633340  6.153717
N    -1.213227  -3.385909  3.156489
C    -0.134243  -2.977357  4.048583
H    -1.339616  -4.378304  2.980734
H    0.570496  -3.811344  4.140051
H    -0.498279  -2.730494  5.058110
H    0.412199  -2.117321  3.641000
