33
Energy: -18209.474166 eV PBE+vdW (tier 2 basis)
C    -0.389587  0.314826  0.029282
C    -0.259914  0.305259  1.537560
O    0.835862  0.438581  2.099374
H    -1.395407  0.061814  -0.327588
H    0.334332  -0.389284  -0.396822
H    -0.128688  1.317088  -0.335811
N    -1.419961  0.169689  2.233337
C    -1.512370  0.248318  3.693858
C    -1.189733  -1.138956  4.325185
O    -2.041174  -1.830196  4.880506
H    -2.282877  0.016072  1.724540
H    -0.721850  0.944544  4.016226
C    -2.884054  0.766597  4.129848
C    -3.074765  2.290004  4.150789
C    -2.978991  3.037258  2.807536
C    -1.581376  3.556939  2.445659
N    -1.138935  4.570879  3.411125
H    -3.066782  0.370555  5.137559
H    -3.659307  0.291865  3.503243
H    -2.354965  2.746154  4.848316
H    -4.067423  2.475746  4.587336
H    -3.657511  3.906261  2.834161
H    -3.351400  2.405417  1.984600
H    -1.600744  3.918191  1.397968
H    -0.846096  2.742231  2.476352
H    -0.157084  4.802926  3.267258
H    -1.667677  5.436103  3.293864
N    0.118851  -1.481810  4.193169
C    0.637378  -2.764661  4.623405
H    0.706176  -0.853299  3.638444
H    1.547461  -2.632292  5.223527
H    0.873502  -3.414998  3.767402
H    -0.128550  -3.254055  5.234290
