33
Energy: -18209.5457476 eV PBE+vdW (tier 2 basis)
C    -0.108702  0.354502  0.044224
C    -0.105580  0.429344  1.556918
O    0.589295  1.249432  2.167889
H    -0.781100  -0.412625  -0.358819
H    0.912689  0.154675  -0.302761
H    -0.403930  1.332948  -0.354600
N    -0.920383  -0.454436  2.199634
C    -1.044106  -0.496222  3.657074
C    0.107768  -1.351208  4.253419
O    -0.045312  -2.525133  4.589321
H    -1.396766  -1.169666  1.661552
H    -0.913288  0.541679  3.994375
C    -2.420283  -1.023604  4.059677
C    -2.720525  -0.923379  5.561233
C    -2.794489  0.507794  6.105859
C    -3.228761  0.582585  7.570891
N    -2.209686  0.014711  8.464116
H    -2.490033  -2.079173  3.754914
H    -3.177962  -0.460054  3.491498
H    -1.962444  -1.505410  6.105723
H    -3.684867  -1.424170  5.746975
H    -3.508815  1.090513  5.500396
H    -1.816773  1.006399  6.017723
H    -4.226884  0.107369  7.672631
H    -3.355097  1.638941  7.850219
H    -2.465539  0.168706  9.439057
H    -2.143300  -0.996161  8.342086
N    1.279612  -0.668068  4.339217
C    2.518364  -1.295142  4.755421
H    1.306222  0.242927  3.877176
H    3.183134  -1.490922  3.900188
H    2.272917  -2.249764  5.232366
H    3.048622  -0.656884  5.474042
