33
Energy: -18209.2667448 eV PBE+vdW (tier 2 basis)
C    -1.725989  0.083184  0.056813
C    -1.276294  0.031971  1.499931
O    -0.474106  0.846706  1.962934
H    -2.553121  -0.598697  -0.175954
H    -2.023502  1.110101  -0.183266
H    -0.860062  -0.175302  -0.568829
N    -1.771816  -1.004100  2.238571
C    -1.490389  -1.200957  3.661958
C    -1.650743  0.154179  4.407412
O    -2.725856  0.743532  4.363716
H    -2.502593  -1.568467  1.825066
H    -2.345489  -1.776546  4.047137
C    -0.227982  -2.045104  3.945191
C    1.087885  -1.616925  3.260927
C    1.347166  -2.330883  1.921854
C    2.434725  -1.677208  1.066477
N    1.906284  -0.519681  0.331161
H    -0.453354  -3.083305  3.652312
H    -0.105582  -2.077589  5.038760
H    1.931802  -1.833271  3.934399
H    1.085235  -0.529308  3.099698
H    0.423506  -2.367999  1.325202
H    1.626581  -3.375986  2.130179
H    2.792518  -2.405118  0.322437
H    3.305120  -1.438802  1.713444
H    2.655831  -0.036528  -0.163211
H    1.480562  0.163379  0.963076
N    -0.600926  0.568672  5.170649
C    -0.626321  1.870048  5.815085
H    0.306976  0.170624  4.962979
H    0.105907  1.888707  6.630511
H    -1.627847  2.042140  6.222523
H    -0.403064  2.682246  5.105643
