33
Energy: -18209.1144167 eV PBE+vdW (tier 2 basis)
C    0.443293  -2.331389  2.073111
C    -0.211036  -1.025128  2.478401
O    0.451581  -0.045046  2.812914
H    0.020859  -2.756906  1.154265
H    0.320821  -3.072768  2.874970
H    1.509725  -2.140922  1.926864
N    -1.582916  -0.960430  2.481054
C    -2.574153  -1.950470  2.077027
C    -2.401878  -3.263913  2.892996
O    -2.249099  -3.225245  4.109220
H    -1.927475  -0.081677  2.851994
H    -3.529056  -1.555180  2.458776
C    -2.745668  -2.097260  0.549040
C    -2.996214  -0.783354  -0.211365
C    -1.741369  0.002020  -0.612716
C    -2.035943  1.140347  -1.593681
N    -2.537423  0.624590  -2.877105
H    -3.610087  -2.759925  0.381178
H    -1.870118  -2.599532  0.104367
H    -3.548202  -1.014179  -1.133556
H    -3.661371  -0.134831  0.384640
H    -1.015522  -0.688117  -1.079021
H    -1.233765  0.420348  0.266482
H    -1.129508  1.767118  -1.691532
H    -2.818766  1.789822  -1.170770
H    -2.879610  1.386437  -3.461757
H    -1.779670  0.180415  -3.397865
N    -2.464887  -4.427287  2.184309
C    -2.342014  -5.728783  2.813149
H    -2.545648  -4.377698  1.176861
H    -2.328431  -5.571946  3.896699
H    -1.409861  -6.231540  2.517018
H    -3.191673  -6.373551  2.551249
