33
Energy: -18209.5166383 eV PBE+vdW (tier 2 basis)
C    0.025252  0.078695  0.049793
C    0.034972  0.267804  1.553506
O    1.088323  0.490671  2.165549
H    0.640961  0.859053  -0.411023
H    -0.978243  0.097586  -0.392548
H    0.489181  -0.889922  -0.180731
N    -1.176213  0.166149  2.165481
C    -1.443452  0.106153  3.613017
C    -1.276822  1.446422  4.371841
O    -2.170698  1.831211  5.127830
H    -1.973192  -0.001723  1.564912
H    -2.518949  -0.096498  3.693319
C    -0.685171  -1.031345  4.325796
C    -0.999066  -2.418132  3.764804
C    -0.235032  -3.535926  4.477938
C    -0.443676  -4.920720  3.860216
N    0.073175  -4.972363  2.483973
H    -0.963797  -0.976733  5.389737
H    0.395975  -0.841174  4.270583
H    -0.754238  -2.458702  2.693795
H    -2.083117  -2.612768  3.842811
H    -0.528145  -3.576895  5.539375
H    0.844102  -3.301476  4.472808
H    -1.522298  -5.140340  3.815388
H    0.004146  -5.680265  4.530132
H    -0.153839  -5.866507  2.049603
H    1.092318  -4.905024  2.489241
N    -0.100495  2.089509  4.173429
C    0.225444  3.334930  4.837521
H    0.575098  1.644074  3.541498
H    0.481659  4.114244  4.106179
H    1.074139  3.209942  5.526036
H    -0.650381  3.654599  5.412307
