33
Energy: -18209.3292744 eV PBE+vdW (tier 2 basis)
C    -0.558374  -0.727351  -0.133829
C    -0.210248  -0.167602  1.236997
O    0.947451  -0.129866  1.649483
H    -1.024091  0.038621  -0.771014
H    -1.254727  -1.576451  -0.072470
H    0.371148  -1.058412  -0.604280
N    -1.244944  0.321770  1.991018
C    -2.667554  0.243385  1.712580
C    -3.337310  1.380202  2.501459
O    -2.977855  1.659589  3.643634
H    -0.999797  0.680148  2.912980
H    -2.830885  0.400028  0.634019
C    -3.271251  -1.124844  2.107975
C    -4.710495  -1.348936  1.633421
C    -5.189888  -2.806163  1.754555
C    -4.831846  -3.715797  0.574363
N    -3.379324  -3.858961  0.382404
H    -3.204991  -1.227522  3.202194
H    -2.630104  -1.898052  1.667924
H    -4.798133  -1.039582  0.576013
H    -5.393252  -0.697432  2.199775
H    -6.286366  -2.822475  1.850356
H    -4.805608  -3.246276  2.690919
H    -5.238549  -3.271842  -0.348260
H    -5.353388  -4.683308  0.711344
H    -2.972519  -4.388550  1.155750
H    -3.186669  -4.397483  -0.462291
N    -4.358376  2.011117  1.857011
C    -5.160819  3.048248  2.478287
H    -4.581747  1.715594  0.914590
H    -5.118993  3.980635  1.899172
H    -4.747296  3.229829  3.475752
H    -6.210324  2.736698  2.577783
