33
Energy: -18209.5191824 eV PBE+vdW (tier 2 basis)
C    0.058319  0.159695  -0.090543
C    -0.151840  -0.270326  1.345724
O    0.723934  -0.866911  1.983403
H    0.935148  0.817621  -0.134743
H    -0.802261  0.682705  -0.524993
H    0.283637  -0.726475  -0.696631
N    -1.357698  0.049185  1.895956
C    -1.693845  -0.288060  3.278862
C    -2.208600  -1.751496  3.339315
O    -3.403074  -2.038349  3.308641
H    -2.082608  0.449077  1.310523
H    -0.744074  -0.234788  3.826776
C    -2.712048  0.697189  3.850501
C    -2.983494  0.541811  5.357716
C    -2.007427  1.253520  6.309930
C    -0.553654  0.770586  6.317300
N    -0.446530  -0.635773  6.724452
H    -3.657399  0.551928  3.305766
H    -2.360302  1.719320  3.637143
H    -3.058995  -0.526454  5.612141
H    -3.986735  0.944645  5.558819
H    -2.399610  1.151437  7.333492
H    -2.005709  2.331761  6.078490
H    -0.002266  1.366602  7.059896
H    -0.077857  0.994951  5.340617
H    0.532703  -0.904578  6.816758
H    -0.846909  -1.259396  6.022217
N    -1.196118  -2.660728  3.420764
C    -1.437385  -4.089180  3.336040
H    -0.261471  -2.301058  3.215817
H    -2.464681  -4.284606  3.660666
H    -0.740330  -4.628031  3.989354
H    -1.321818  -4.465824  2.307829
