33
Energy: -18209.3634532 eV PBE+vdW (tier 2 basis)
C    -0.354837  1.463762  -0.210491
C    0.027101  0.330163  0.720180
O    1.189128  -0.023332  0.896500
H    -0.958764  1.095235  -1.052164
H    0.563768  1.909161  -0.600079
H    -0.948727  2.233718  0.300662
N    -1.004963  -0.299891  1.386338
C    -2.438173  -0.082895  1.222462
C    -2.962140  1.194114  1.916200
O    -3.990139  1.744436  1.525049
H    -0.704868  -1.115283  1.915333
H    -2.675466  0.054794  0.157371
C    -3.178331  -1.334608  1.740327
C    -4.702472  -1.353895  1.557048
C    -5.215393  -1.204605  0.118366
C    -4.676632  -2.236140  -0.871465
N    -5.385336  -2.129659  -2.153942
H    -2.947589  -1.450801  2.812417
H    -2.729867  -2.201374  1.229576
H    -5.155072  -0.560780  2.168134
H    -5.064984  -2.307897  1.972947
H    -4.993153  -0.187895  -0.244543
H    -6.312542  -1.285874  0.127468
H    -4.853750  -3.250050  -0.476257
H    -3.576939  -2.128000  -0.969384
H    -5.248681  -1.200135  -2.554837
H    -5.007247  -2.793440  -2.830096
N    -2.228604  1.613397  2.982163
C    -2.574031  2.783217  3.764740
H    -1.354167  1.129170  3.156876
H    -2.694798  2.526936  4.826191
H    -3.523564  3.170864  3.380132
H    -1.807142  3.565713  3.675039
