33
Energy: -18209.4176446 eV PBE+vdW (tier 2 basis)
C    -1.873147  0.469499  -0.066617
C    -1.391470  0.591189  1.370933
O    -0.868308  1.617307  1.797363
H    -2.396250  -0.470709  -0.283666
H    -1.007494  0.555494  -0.735772
H    -2.539765  1.311811  -0.287751
N    -1.602838  -0.517486  2.148024
C    -1.056764  -0.665519  3.498799
C    -1.141550  -2.126175  3.976011
O    -0.308009  -2.554797  4.772066
H    -1.866619  -1.377149  1.678620
H    0.024238  -0.460365  3.467969
C    -1.646239  0.339530  4.529529
C    -3.164692  0.542271  4.522332
C    -4.014455  -0.613056  5.102470
C    -5.192852  -1.031123  4.221872
N    -4.737717  -1.519756  2.898908
H    -1.169941  1.306030  4.324887
H    -1.299929  0.013838  5.522089
H    -3.474435  0.769372  3.489907
H    -3.378224  1.462907  5.083326
H    -4.412816  -0.321801  6.085199
H    -3.386067  -1.494549  5.289100
H    -5.907649  -0.192021  4.131773
H    -5.732359  -1.857377  4.706569
H    -5.518139  -1.942782  2.395672
H    -4.426136  -0.731273  2.328473
N    -2.143549  -2.897317  3.455363
C    -2.307221  -4.260464  3.934445
H    -3.012036  -2.434098  3.132189
H    -2.621211  -4.296733  4.990294
H    -1.357890  -4.801934  3.854987
H    -3.062467  -4.761763  3.318634
