33
Energy: -18209.2537911 eV PBE+vdW (tier 2 basis)
C    0.703690  0.803906  0.318047
C    0.359275  0.376111  1.735240
O    1.220813  0.034552  2.538613
H    -0.163472  1.110553  -0.280203
H    1.211441  -0.027782  -0.186176
H    1.413970  1.638258  0.367352
N    -0.981018  0.422223  2.044406
C    -1.533303  -0.124940  3.289401
C    -3.065689  -0.189252  3.223100
O    -3.684779  -1.070772  3.808769
H    -1.618456  0.473349  1.256882
H    -1.202745  -1.167601  3.408508
C    -1.056371  0.645800  4.550122
C    -1.459921  2.125798  4.623441
C    -2.821258  2.384948  5.286044
C    -3.407827  3.751479  4.945604
N    -4.784804  3.869330  5.444802
H    0.034809  0.545945  4.570608
H    -1.445012  0.098433  5.421780
H    -1.449328  2.552861  3.604642
H    -0.680421  2.681147  5.165530
H    -2.713688  2.290467  6.379840
H    -3.553182  1.618305  4.997473
H    -3.447005  3.859843  3.848221
H    -2.726121  4.546597  5.309385
H    -4.804099  3.749841  6.459016
H    -5.155946  4.801508  5.259683
N    -3.676497  0.797922  2.488623
C    -5.119634  0.985199  2.525361
H    -3.111167  1.607554  2.252182
H    -5.474155  1.358594  1.557051
H    -5.417357  1.689774  3.318426
H    -5.581313  0.014779  2.732111
