33
Energy: -18209.5139145 eV PBE+vdW (tier 2 basis)
C    0.332975  1.220085  0.705434
C    0.012689  -0.036282  1.493622
O    0.626118  -1.089329  1.324876
H    -0.265549  2.090348  1.000942
H    0.168928  1.017074  -0.360426
H    1.396678  1.455416  0.832627
N    -0.990634  0.096525  2.415678
C    -1.544287  -1.039832  3.127284
C    -3.074666  -0.923855  3.047429
O    -3.628443  0.172199  2.949792
H    -1.599575  0.912376  2.394637
H    -1.187931  -1.944536  2.609125
C    -1.097168  -1.089494  4.606083
C    0.411042  -1.286011  4.775621
C    0.873448  -1.327295  6.237610
C    0.682765  -0.018832  7.029015
N    1.355875  1.177316  6.514050
H    -1.636046  -1.908556  5.110590
H    -1.431282  -0.157727  5.088907
H    0.946172  -0.485760  4.241496
H    0.712081  -2.216348  4.271206
H    1.942759  -1.595685  6.259267
H    0.346878  -2.137369  6.771989
H    1.032221  -0.179887  8.060279
H    -0.388434  0.220207  7.114926
H    1.004095  1.420162  5.587308
H    2.356816  1.005483  6.405094
N    -3.747268  -2.102969  3.133461
C    -5.195780  -2.189125  3.155624
H    -3.204989  -2.957925  3.168915
H    -5.553645  -2.642188  4.090694
H    -5.570510  -2.778278  2.307500
H    -5.587556  -1.169567  3.080545
