33
Energy: -18209.5516952 eV PBE+vdW (tier 2 basis)
C    0.828003  0.530157  0.311766
C    0.205660  0.426431  1.688328
O    0.333171  1.323769  2.531035
H    1.914168  0.640143  0.420526
H    0.454644  1.440527  -0.173428
H    0.617275  -0.330494  -0.334624
N    -0.501457  -0.709122  1.939319
C    -1.211951  -0.954812  3.196140
C    -0.244160  -1.535152  4.264970
O    -0.292350  -2.706566  4.635223
H    -0.510217  -1.447369  1.244158
H    -1.546305  0.033386  3.549942
C    -2.415656  -1.863356  2.963338
C    -3.521234  -1.215906  2.125710
C    -4.673075  -2.176480  1.817133
C    -5.836428  -1.532995  1.060827
N    -5.428211  -1.068842  -0.274200
H    -2.807059  -2.162625  3.945674
H    -2.074014  -2.801905  2.496364
H    -3.094843  -0.839613  1.181750
H    -3.911188  -0.332480  2.660908
H    -5.060734  -2.594917  2.760495
H    -4.294323  -3.024249  1.224125
H    -6.277066  -0.733236  1.690743
H    -6.624091  -2.286893  0.918098
H    -4.871111  -0.216854  -0.204642
H    -6.248119  -0.824747  -0.829003
N    0.639573  -0.611222  4.728609
C    1.700324  -0.943593  5.658340
H    0.635009  0.300748  4.264519
H    1.722783  -0.228971  6.491892
H    2.685462  -0.941064  5.167680
H    1.506519  -1.947697  6.050287
