33
Energy: -18209.2217226 eV PBE+vdW (tier 2 basis)
C    0.221227  -0.479423  0.103077
C    0.275032  -0.340550  1.615277
O    1.336546  -0.271434  2.225867
H    -0.795848  -0.534406  -0.305029
H    0.774723  -1.380986  -0.187006
H    0.736278  0.379119  -0.345373
N    -0.951067  -0.278283  2.236589
C    -1.097107  -0.320364  3.696166
C    -2.550975  -0.606204  4.089653
O    -2.823841  -1.252014  5.095499
H    -1.747295  -0.590783  1.691785
H    -0.515270  -1.165374  4.093060
C    -0.560647  0.962612  4.385645
C    -1.300066  2.268466  4.057810
C    -2.442063  2.604870  5.027549
C    -3.390818  3.697278  4.535404
N    -2.679902  4.959136  4.289527
H    0.495137  1.034847  4.099671
H    -0.581245  0.772383  5.469438
H    -1.683192  2.233172  3.022106
H    -0.583974  3.100042  4.048850
H    -2.010351  2.907736  5.997410
H    -3.041349  1.709620  5.250489
H    -4.229334  3.789129  5.254267
H    -3.836371  3.380387  3.577051
H    -2.312503  5.331501  5.166806
H    -3.316306  5.665478  3.920900
N    -3.512051  -0.091478  3.251535
C    -4.920773  -0.149639  3.603088
H    -3.220604  0.642088  2.612614
H    -5.532013  -0.130533  2.693355
H    -5.219575  0.687353  4.254721
H    -5.102874  -1.082466  4.145839
