33
Energy: -18209.4707918 eV PBE+vdW (tier 2 basis)
C    -0.218870  -0.501437  -0.260155
C    -0.088448  -0.344932  1.242889
O    1.008240  -0.307613  1.802089
H    -1.257338  -0.526194  -0.611781
H    0.287079  -1.426631  -0.562348
H    0.303685  0.330919  -0.747860
N    -1.270677  -0.225136  1.919290
C    -1.339503  -0.223898  3.367136
C    -2.429641  -1.227176  3.770264
O    -3.362299  -1.480872  3.003873
H    -2.147644  -0.461177  1.459115
H    -0.348468  -0.534623  3.726654
C    -1.694704  1.170309  3.939970
C    -0.677359  2.272536  3.617622
C    0.721723  2.096349  4.225376
C    0.773650  2.011837  5.759647
N    0.255830  3.155571  6.521403
H    -1.828090  1.079645  5.029444
H    -2.679411  1.452807  3.536943
H    -1.107823  3.232228  3.947977
H    -0.578193  2.357058  2.525275
H    1.197397  1.200321  3.796477
H    1.345256  2.945547  3.899719
H    1.819079  1.857572  6.066607
H    0.233104  1.118327  6.110028
H    0.748729  4.009318  6.253715
H    -0.728566  3.318216  6.305837
N    -2.351351  -1.794935  5.005786
C    -1.340974  -1.601327  6.031695
H    -3.149712  -2.382345  5.227844
H    -1.550202  -0.732075  6.674667
H    -0.349377  -1.469566  5.584082
H    -1.300772  -2.494970  6.664958
