33
Energy: -18209.4268524 eV PBE+vdW (tier 2 basis)
C    -1.465713  3.161771  4.494033
C    -0.832114  1.803900  4.735268
O    -0.109166  1.580326  5.699948
H    -2.197844  3.352367  5.289601
H    -1.968729  3.250849  3.522771
H    -0.691582  3.933983  4.571945
N    -1.116228  0.848374  3.783308
C    -0.759694  -0.554704  3.957605
C    0.299582  -1.064079  2.953750
O    0.538436  -2.265375  2.850657
H    -1.823460  1.070316  3.091021
H    -0.268173  -0.599550  4.942737
C    -1.991009  -1.473667  3.972069
C    -2.804527  -1.467714  2.672216
C    -3.946514  -2.491404  2.647536
C    -5.058086  -2.226974  3.664154
N    -6.136587  -3.209743  3.511271
H    -2.615789  -1.181981  4.828666
H    -1.628604  -2.493042  4.163096
H    -2.128372  -1.678253  1.829466
H    -3.232214  -0.465200  2.486852
H    -3.547125  -3.503904  2.811716
H    -4.391031  -2.498258  1.638094
H    -5.391564  -1.172223  3.563155
H    -4.665001  -2.332130  4.686333
H    -6.600030  -3.093596  2.608866
H    -6.852011  -3.076221  4.225519
N    0.942084  -0.099490  2.240826
C    2.041556  -0.392331  1.343922
H    0.700827  0.862756  2.449229
H    1.869730  0.049844  0.353208
H    2.106780  -1.481365  1.245244
H    2.996175  -0.016280  1.739917
