33
Energy: -18209.4419238 eV PBE+vdW (tier 2 basis)
C    -0.688539  -0.197642  0.631240
C    -0.546418  0.031875  2.121236
O    0.012326  1.039617  2.574715
H    -1.199083  -1.134126  0.375391
H    0.308657  -0.195120  0.174116
H    -1.247781  0.642014  0.199792
N    -1.069736  -0.933267  2.923675
C    -1.106313  -0.848149  4.384841
C    0.242304  -1.297645  5.024992
O    0.327961  -2.272792  5.770774
H    -1.454481  -1.765823  2.493618
H    -1.221120  0.221861  4.619633
C    -2.296391  -1.617295  4.964869
C    -2.444576  -3.090443  4.522216
C    -3.475584  -3.327731  3.411774
C    -3.614264  -4.800350  2.985013
N    -4.095897  -5.749452  3.990754
H    -3.215733  -1.063963  4.718155
H    -2.185533  -1.574653  6.055452
H    -2.737552  -3.681584  5.401634
H    -1.463895  -3.496940  4.228519
H    -3.234415  -2.735368  2.509968
H    -4.460195  -2.953793  3.743185
H    -2.639144  -5.168427  2.626457
H    -4.295582  -4.857714  2.122172
H    -3.453495  -5.806578  4.780779
H    -4.998061  -5.452847  4.365560
N    1.280285  -0.489075  4.689636
C    2.637853  -0.731548  5.133746
H    1.078578  0.281383  4.044891
H    3.299067  -0.974195  4.288808
H    2.622791  -1.579427  5.826775
H    3.042965  0.148199  5.652613
