33
Energy: -18209.0398015 eV PBE+vdW (tier 2 basis)
C    -0.418982  -0.175309  -0.079271
C    -0.339653  0.312987  1.351208
O    0.655146  0.908546  1.760328
H    0.048901  0.579580  -0.719955
H    0.163169  -1.102944  -0.149866
H    -1.428117  -0.391647  -0.440103
N    -1.381157  0.067078  2.218896
C    -2.684004  -0.559503  2.053078
C    -2.593885  -1.933966  1.332336
O    -1.582151  -2.623010  1.395863
H    -1.156051  0.391527  3.154425
H    -2.967328  -0.876126  3.072038
C    -3.785129  0.457422  1.638286
C    -3.612793  1.251986  0.336293
C    -3.963841  0.527225  -0.966074
C    -3.734686  1.394772  -2.202228
N    -4.115847  0.670754  -3.421427
H    -3.825088  1.182330  2.465392
H    -4.773495  -0.034341  1.660701
H    -2.583904  1.640689  0.287155
H    -4.252776  2.145542  0.411991
H    -5.020004  0.209765  -0.955389
H    -3.370687  -0.394712  -1.074079
H    -2.683622  1.747787  -2.199174
H    -4.365712  2.294895  -2.137723
H    -4.060898  1.284919  -4.233827
H    -3.462212  -0.094032  -3.597299
N    -3.744759  -2.354962  0.732947
C    -3.855499  -3.643411  0.076525
H    -4.524902  -1.714259  0.671586
H    -4.677204  -4.235300  0.502398
H    -2.911796  -4.176242  0.231935
H    -4.026463  -3.525463  -1.003316
