33
Energy: -18209.029522 eV PBE+vdW (tier 2 basis)
C    0.373216  -1.479416  0.824143
C    0.361089  -0.035621  1.273907
O    1.399684  0.619129  1.350005
H    1.180635  -1.605318  0.096859
H    -0.560727  -1.835007  0.379984
H    0.584795  -2.105584  1.701067
N    -0.830773  0.551015  1.642706
C    -2.211075  0.094030  1.585092
C    -2.382632  -1.331378  2.177062
O    -1.721433  -1.693641  3.143637
H    -0.682877  1.493953  1.989636
H    -2.734542  0.694004  2.349661
C    -2.902814  0.473911  0.244365
C    -2.262049  0.026109  -1.078531
C    -2.593509  -1.389124  -1.566245
C    -1.970085  -1.725287  -2.923610
N    -0.510594  -1.851923  -2.824268
H    -2.922459  1.574318  0.242541
H    -3.967589  0.183506  0.278939
H    -1.172848  0.161139  -0.999510
H    -2.588486  0.732947  -1.858537
H    -3.689563  -1.490720  -1.655597
H    -2.255017  -2.147687  -0.845297
H    -2.307080  -0.975894  -3.669592
H    -2.359381  -2.697374  -3.259437
H    -0.124675  -2.221328  -3.692451
H    -0.071138  -0.942381  -2.680854
N    -3.375131  -2.088375  1.628059
C    -3.703056  -3.413343  2.117883
H    -3.843419  -1.750054  0.798288
H    -4.767745  -3.485368  2.378585
H    -3.100157  -3.592616  3.014066
H    -3.466566  -4.184903  1.370800
