33
Energy: -18209.2860907 eV PBE+vdW (tier 2 basis)
C    0.860223  -0.533424  1.739457
C    0.124475  -0.165504  3.012336
O    0.729928  -0.031429  4.071971
H    1.256222  -1.550184  1.865441
H    1.718562  0.139953  1.638490
H    0.266804  -0.500486  0.822828
N    -1.257742  -0.063728  3.005271
C    -2.216927  0.146271  1.912646
C    -2.179741  -0.958265  0.826467
O    -2.424312  -0.716307  -0.354977
H    -1.589303  0.212135  3.927077
H    -3.199824  -0.007359  2.390398
C    -2.259361  1.562880  1.316793
C    -1.005286  2.055728  0.590670
C    -1.244388  3.320944  -0.243517
C    -2.249602  3.145680  -1.403460
N    -2.019445  2.039792  -2.332328
H    -2.512599  2.260438  2.131095
H    -3.114710  1.571548  0.627261
H    -0.638236  1.269117  -0.083619
H    -0.200379  2.248248  1.315713
H    -0.277783  3.648792  -0.660178
H    -1.592684  4.144831  0.403470
H    -2.273277  4.082891  -1.981344
H    -3.267690  3.024633  -1.002832
H    -2.120287  1.137378  -1.862467
H    -1.075653  2.076478  -2.719311
N    -1.942076  -2.207844  1.306347
C    -1.871289  -3.378291  0.454466
H    -1.685709  -2.283815  2.284995
H    -2.490236  -4.190036  0.858157
H    -0.837357  -3.739512  0.348827
H    -2.247761  -3.096738  -0.534417
