33
Energy: -18209.1805293 eV PBE+vdW (tier 2 basis)
C    -0.313158  -0.565931  -0.855653
C    0.132405  -0.162098  0.530658
O    1.312906  0.046717  0.808384
H    -1.123395  -1.305119  -0.861116
H    -0.674161  0.332538  -1.382405
H    0.556848  -0.960595  -1.387989
N    -0.828131  0.018904  1.503905
C    -2.280077  -0.183946  1.472381
C    -2.653205  -1.669281  1.222348
O    -3.342046  -2.016586  0.264687
H    -0.425825  0.372580  2.365832
H    -2.609575  0.053561  2.497387
C    -3.044359  0.733980  0.507879
C    -2.656152  2.206015  0.629311
C    -3.396660  3.122445  -0.355048
C    -3.230890  2.762113  -1.836185
N    -1.814853  2.620621  -2.206478
H    -4.119470  0.598614  0.701377
H    -2.885783  0.376850  -0.516248
H    -1.574380  2.308344  0.467641
H    -2.849409  2.563654  1.654748
H    -3.050411  4.158025  -0.198501
H    -4.475395  3.129632  -0.129505
H    -3.774099  3.517872  -2.436018
H    -3.719807  1.797906  -2.041713
H    -1.319297  3.503359  -2.069584
H    -1.727242  2.392112  -3.196518
N    -2.185729  -2.587917  2.120358
C    -1.355295  -2.387673  3.295751
H    -2.426715  -3.541139  1.867931
H    -1.437309  -3.275400  3.933087
H    -1.701963  -1.530260  3.888549
H    -0.295994  -2.232192  3.044410
