33
Energy: -18209.4299253 eV PBE+vdW (tier 2 basis)
C    1.015672  -0.485095  0.973699
C    -0.273525  -0.156656  1.702112
O    -1.360408  -0.111690  1.135092
H    1.914930  -0.136898  1.497907
H    0.983061  -0.047888  -0.029382
H    1.083569  -1.576723  0.861314
N    -0.134437  0.070959  3.053505
C    -1.274950  0.133157  3.962388
C    -1.550444  1.553735  4.514779
O    -2.362009  1.727414  5.421413
H    0.767700  -0.137683  3.469281
H    -2.157323  -0.100277  3.342995
C    -1.157796  -0.880011  5.111796
C    -1.585640  -2.317493  4.789580
C    -0.793048  -3.042412  3.695336
C    -1.167695  -4.518874  3.542965
N    -0.793114  -5.306195  4.727457
H    -1.783569  -0.496639  5.928440
H    -0.119372  -0.871442  5.489064
H    -2.655090  -2.316683  4.519150
H    -1.508131  -2.887470  5.729356
H    0.286642  -2.979153  3.911161
H    -0.964965  -2.555031  2.724185
H    -0.614487  -4.934257  2.688114
H    -2.243595  -4.590148  3.283729
H    -0.879009  -6.302741  4.529561
H    -1.428357  -5.118135  5.503307
N    -0.865730  2.558109  3.906782
C    -1.087717  3.955850  4.215712
H    -0.257111  2.298261  3.138852
H    -0.141726  4.461964  4.451498
H    -1.746955  4.001539  5.089340
H    -1.572373  4.480604  3.379511
