33
Energy: -18209.0386811 eV PBE+vdW (tier 2 basis)
C    -0.026449  0.161178  1.378818
C    -0.355064  0.112555  2.855485
O    0.506205  0.288744  3.714461
H    -0.425767  -0.710720  0.849037
H    1.062691  0.185707  1.286215
H    -0.434725  1.074720  0.923534
N    -1.663911  -0.080419  3.259463
C    -2.882009  -0.467564  2.558843
C    -2.864385  -1.950304  2.118616
O    -1.850488  -2.495747  1.693855
H    -1.715493  -0.114830  4.273073
H    -3.675639  -0.335874  3.309504
C    -3.268168  0.414663  1.350921
C    -3.388953  1.902012  1.693953
C    -3.608131  2.812870  0.480366
C    -4.930423  2.597358  -0.256022
N    -5.106097  3.614985  -1.300726
H    -4.223384  0.032400  0.960580
H    -2.540487  0.267763  0.540802
H    -2.475943  2.222094  2.216319
H    -4.211624  2.045303  2.415843
H    -2.772257  2.677208  -0.228843
H    -3.567721  3.864656  0.800344
H    -5.761194  2.709783  0.459655
H    -4.982684  1.559055  -0.639523
H    -4.381276  3.517204  -2.013758
H    -5.997652  3.487392  -1.779721
N    -4.056053  -2.621563  2.185110
C    -5.327178  -2.163462  2.721992
H    -3.992874  -3.580530  1.858049
H    -5.708454  -1.276755  2.194790
H    -5.271505  -1.935985  3.797388
H    -6.063948  -2.963057  2.591552
