33
Energy: -18209.5058071 eV PBE+vdW (tier 2 basis)
C    -0.427498  -0.988309  -0.425032
C    -0.701817  -1.480244  0.980363
O    -0.891702  -2.678173  1.225731
H    -1.267295  -1.273653  -1.070589
H    0.465979  -1.498127  -0.806399
H    -0.275325  0.095757  -0.492044
N    -0.718846  -0.528341  1.954038
C    -0.924796  -0.841974  3.372222
C    -2.451831  -0.954228  3.646554
O    -3.096379  -0.061738  4.197689
H    -0.636443  0.447775  1.692508
H    -0.474058  -1.834003  3.526456
C    -0.225116  0.202307  4.246925
C    0.144973  -0.222175  5.680405
C    -1.020689  -0.422602  6.663250
C    -1.601662  -1.839626  6.678563
N    -2.906129  -1.844156  7.348015
H    -0.858150  1.102834  4.287446
H    0.707201  0.477431  3.729557
H    0.802694  0.566289  6.075307
H    0.768939  -1.132097  5.642883
H    -1.825609  0.284100  6.411724
H    -0.697109  -0.171852  7.683747
H    -0.926205  -2.504700  7.240039
H    -1.639341  -2.244998  5.649175
H    -3.567938  -1.295393  6.794879
H    -3.281622  -2.791221  7.400119
N    -2.981839  -2.122129  3.197786
C    -4.402079  -2.405195  3.249032
H    -2.366933  -2.708924  2.627739
H    -4.875218  -1.660609  3.897843
H    -4.580800  -3.408334  3.658382
H    -4.864499  -2.345708  2.252181
