33
Energy: -18209.5031581 eV PBE+vdW (tier 2 basis)
C    2.132818  0.502411  1.019204
C    1.321061  -0.443843  1.881440
O    1.860269  -1.377397  2.490699
H    2.944549  0.923824  1.624230
H    1.548090  1.319856  0.580490
H    2.595779  -0.075839  0.209280
N    -0.014812  -0.191878  1.936342
C    -1.054789  -1.015505  2.574206
C    -1.067644  -0.989137  4.123512
O    -2.128311  -0.791087  4.718027
H    -0.346894  0.615600  1.424229
H    -2.000439  -0.528099  2.310446
C    -1.091819  -2.469999  2.057523
C    -1.185900  -2.609917  0.534261
C    -2.402515  -1.935823  -0.104879
C    -2.539418  -2.242427  -1.594924
N    -3.649288  -1.482835  -2.184873
H    -1.964941  -2.942246  2.533787
H    -0.204009  -3.007091  2.415678
H    -1.200811  -3.686070  0.298263
H    -0.265128  -2.218892  0.071603
H    -2.355102  -0.841432  0.009658
H    -3.319559  -2.258096  0.419139
H    -2.624080  -3.339880  -1.729482
H    -1.616681  -1.936429  -2.113338
H    -3.712722  -1.661229  -3.187200
H    -4.538060  -1.785659  -1.782973
N    0.121747  -1.237801  4.724168
C    0.268921  -1.287668  6.164565
H    0.923164  -1.432136  4.113189
H    1.071360  -0.615371  6.498168
H    0.501112  -2.306487  6.508688
H    -0.677681  -0.972081  6.616088
