33
Energy: -18209.3085606 eV PBE+vdW (tier 2 basis)
C    -0.141200  1.319312  0.528417
C    0.127434  -0.174926  0.606365
O    1.196619  -0.648952  0.209015
H    -0.395239  1.752590  1.505489
H    -0.971773  1.541253  -0.157100
H    0.764731  1.800738  0.151372
N    -0.841957  -0.982128  1.136844
C    -2.231469  -0.622998  1.389426
C    -2.734603  -1.172880  2.749633
O    -3.810865  -1.760649  2.845393
H    -0.658531  -1.987027  0.960967
H    -2.283182  0.473869  1.474503
C    -3.169889  -1.056943  0.248160
C    -3.211903  -2.578487  -0.036197
C    -2.581018  -3.038836  -1.358513
C    -1.071677  -2.821591  -1.507012
N    -0.317368  -3.405298  -0.385944
H    -2.858063  -0.507833  -0.654796
H    -4.178218  -0.703773  0.498329
H    -4.260795  -2.902092  -0.030447
H    -2.747553  -3.127802  0.793737
H    -3.078781  -2.539059  -2.205927
H    -2.795936  -4.114116  -1.482085
H    -0.842148  -1.746140  -1.521246
H    -0.755289  -3.211621  -2.492000
H    0.667136  -3.141278  -0.448813
H    -0.372743  -4.424163  -0.396281
N    -1.955481  -0.967584  3.855132
C    -0.746928  -0.174221  4.016870
H    -2.377736  -1.354013  4.693213
H    0.138301  -0.665202  3.592871
H    -0.582981  -0.020163  5.089318
H    -0.846233  0.818661  3.556593
