33
Energy: -18209.5224293 eV PBE+vdW (tier 2 basis)
C    -2.719305  -1.444556  -0.973936
C    -1.992049  -0.517810  -0.017248
O    -0.853513  -0.107562  -0.243496
H    -2.773510  -0.963604  -1.958386
H    -3.732706  -1.708379  -0.647837
H    -2.128786  -2.361872  -1.090712
N    -2.700000  -0.161089  1.096279
C    -2.114812  0.590858  2.189306
C    -2.569046  -0.077046  3.495607
O    -3.636314  -0.688521  3.565467
H    -3.565490  -0.641702  1.333000
H    -1.021937  0.523027  2.077129
C    -2.549829  2.076959  2.183333
C    -2.052031  2.870214  0.970410
C    -0.549018  3.158060  0.984861
C    -0.062968  3.832960  -0.296349
N    1.360515  4.182016  -0.196047
H    -2.190991  2.553583  3.110554
H    -3.649433  2.099517  2.226464
H    -2.605676  3.822066  0.929793
H    -2.316028  2.327349  0.049482
H    0.024389  2.228192  1.109326
H    -0.309668  3.802380  1.849915
H    -0.718672  4.698370  -0.525761
H    -0.174138  3.122283  -1.129105
H    1.714546  4.504544  -1.096366
H    1.491786  4.954235  0.458990
N    -1.729805  0.097533  4.551851
C    -2.024451  -0.388780  5.886750
H    -0.854765  0.581315  4.388088
H    -2.077105  0.437728  6.609131
H    -1.265570  -1.108460  6.223228
H    -2.996621  -0.890810  5.847277
