33
Energy: -18209.1332232 eV PBE+vdW (tier 2 basis)
C    -1.010390  2.899311  0.368717
C    -0.075067  1.784152  -0.054994
O    1.062501  1.995877  -0.471704
H    -0.516469  3.852598  0.165543
H    -1.245865  2.836494  1.440911
H    -1.964647  2.860945  -0.174690
N    -0.550264  0.499522  0.054135
C    -1.812320  0.061360  0.623553
C    -1.986220  0.173446  2.159755
O    -3.132989  0.248868  2.601797
H    0.127764  -0.203855  -0.224505
H    -2.610479  0.719058  0.250696
C    -2.170918  -1.363620  0.158012
C    -1.231610  -2.478870  0.633647
C    -1.616356  -3.875460  0.126257
C    -2.916362  -4.429185  0.711155
N    -3.122122  -5.815733  0.270205
H    -2.211976  -1.356256  -0.942980
H    -3.191511  -1.556325  0.513018
H    -1.202686  -2.491319  1.735901
H    -0.199741  -2.275202  0.302575
H    -0.811930  -4.586990  0.364254
H    -1.690491  -3.855254  -0.975321
H    -3.760592  -3.757595  0.462954
H    -2.838460  -4.437908  1.809879
H    -3.959449  -6.205842  0.703043
H    -3.282207  -5.845552  -0.738194
N    -0.913425  0.197577  3.006211
C    0.516490  0.015709  2.780735
H    -1.215372  0.288281  3.971670
H    0.988407  -0.132445  3.758510
H    0.987784  0.884673  2.303443
H    0.730875  -0.874625  2.177606
