33
Energy: -18209.456057 eV PBE+vdW (tier 2 basis)
C    -2.117225  -1.880927  -0.468050
C    -1.564750  -0.743498  0.369434
O    -0.377131  -0.422494  0.326865
H    -1.899766  -1.678825  -1.524057
H    -3.196480  -2.034071  -0.347399
H    -1.590690  -2.804385  -0.196345
N    -2.486788  -0.092458  1.144654
C    -2.117854  0.899059  2.138907
C    -2.443548  0.332613  3.531204
O    -3.451665  -0.347814  3.722746
H    -3.388325  -0.535809  1.300363
H    -1.035235  1.055122  2.030677
C    -2.888659  2.222486  1.942055
C    -2.540884  3.005109  0.669912
C    -1.144882  3.663198  0.675376
C    -0.094157  2.927846  -0.158507
N    1.224748  3.553923  0.004619
H    -2.708536  2.861825  2.821270
H    -3.963420  1.982319  1.954458
H    -3.311330  3.779352  0.544339
H    -2.642832  2.342847  -0.205185
H    -0.767797  3.753968  1.707220
H    -1.226503  4.696700  0.301393
H    -0.444105  2.891066  -1.210708
H    -0.008023  1.882113  0.167599
H    1.245657  4.473041  -0.440400
H    1.940770  2.992863  -0.456340
N    -1.566154  0.682460  4.510500
C    -1.739283  0.304833  5.900596
H    -0.737388  1.199680  4.241566
H    -2.683342  -0.244587  5.977204
H    -1.785061  1.190388  6.549405
H    -0.921359  -0.344941  6.241630
