33
Energy: -18209.4050219 eV PBE+vdW (tier 2 basis)
C    0.676806  0.508447  0.416692
C    0.497384  0.004801  1.836762
O    1.430216  -0.466040  2.490586
H    1.395553  1.337798  0.425350
H    -0.255164  0.850305  -0.049809
H    1.111919  -0.294641  -0.190381
N    -0.761685  0.125512  2.343526
C    -1.111062  -0.365482  3.660461
C    -2.616420  -0.661373  3.632952
O    -3.345681  -0.161328  2.771796
H    -1.550071  0.416445  1.769907
H    -0.535859  -1.290691  3.825042
C    -0.730052  0.612998  4.805389
C    -1.621694  1.844916  5.004188
C    -1.638997  2.863523  3.859783
C    -2.326327  4.191274  4.226341
N    -1.686021  5.027828  5.246561
H    0.308812  0.917757  4.613149
H    -0.703145  0.042221  5.745626
H    -1.265774  2.344463  5.921019
H    -2.657120  1.529897  5.219741
H    -2.161658  2.439447  2.989657
H    -0.605813  3.070717  3.531549
H    -3.355877  3.988915  4.563165
H    -2.423191  4.801151  3.315368
H    -1.645855  4.546941  6.145247
H    -0.721153  5.235824  4.984629
N    -3.127914  -1.467445  4.603786
C    -2.436909  -2.156765  5.679546
H    -4.138343  -1.556992  4.553111
H    -2.981491  -3.076796  5.922386
H    -2.363003  -1.546364  6.592660
H    -1.425133  -2.443426  5.371195
