33
Energy: -18209.2654004 eV PBE+vdW (tier 2 basis)
C    -0.744756  1.923833  0.560808
C    -0.379595  1.206279  1.843592
O    0.578977  1.559936  2.528350
H    -0.354505  2.943432  0.633388
H    -1.821588  1.963107  0.357593
H    -0.257651  1.432875  -0.297395
N    -1.138850  0.126597  2.239158
C    -2.226155  -0.572241  1.557184
C    -3.350920  -0.786819  2.596496
O    -3.455489  -1.838569  3.224492
H    -0.782430  -0.314189  3.085421
H    -2.588922  0.085580  0.757668
C    -1.790803  -1.922016  0.962955
C    -0.702839  -1.816673  -0.109375
C    -1.190056  -1.273171  -1.457217
C    -0.071083  -1.056282  -2.478417
N    0.859796  -0.002849  -2.040565
H    -2.683841  -2.419626  0.552632
H    -1.453550  -2.559102  1.792165
H    -0.268644  -2.816719  -0.268025
H    0.117209  -1.193305  0.281072
H    -1.712714  -0.313523  -1.320850
H    -1.926471  -1.974350  -1.882733
H    -0.516844  -0.725484  -3.427419
H    0.427273  -2.024366  -2.685408
H    1.436951  0.309607  -2.820390
H    1.506052  -0.357229  -1.335025
N    -4.204861  0.258000  2.814521
C    -4.138722  1.603872  2.270246
H    -4.860219  0.082897  3.569946
H    -5.014380  2.160268  2.620678
H    -4.173698  1.600976  1.171720
H    -3.236404  2.144072  2.592764
