33
Energy: -18208.8727609 eV PBE+vdW (tier 2 basis)
C    -0.102314  0.041084  0.150318
C    -0.048562  -0.019227  1.665503
O    1.029127  0.090048  2.251914
H    -0.718369  0.877935  -0.200444
H    -0.504798  -0.879492  -0.289690
H    0.924312  0.182463  -0.197687
N    -1.195270  -0.172116  2.415404
C    -2.622419  -0.438030  2.179594
C    -3.040501  -1.785166  2.825131
O    -3.925566  -1.786437  3.682846
H    -0.950063  -0.172759  3.403830
H    -3.172504  0.281894  2.804837
C    -3.131030  -0.235826  0.744635
C    -4.652163  -0.453731  0.596508
C    -5.101240  -1.892860  0.286201
C    -4.973587  -2.330548  -1.176287
N    -3.578456  -2.380577  -1.662070
H    -2.602213  -0.890672  0.046024
H    -2.888258  0.799221  0.464454
H    -5.019320  0.206663  -0.206166
H    -5.154265  -0.111702  1.513868
H    -6.163743  -1.987815  0.558467
H    -4.564141  -2.610869  0.921202
H    -5.617119  -1.682776  -1.803208
H    -5.381789  -3.347836  -1.262318
H    -3.522835  -2.974573  -2.489318
H    -3.275624  -1.455719  -1.969783
N    -2.410663  -2.942539  2.468588
C    -1.442130  -3.198879  1.411121
H    -2.765102  -3.741464  2.984824
H    -1.220463  -4.271413  1.414367
H    -0.499222  -2.664497  1.582996
H    -1.839924  -2.947198  0.416520
