33
Energy: -18209.2305342 eV PBE+vdW (tier 2 basis)
C    0.005583  -0.157765  -0.043482
C    0.132948  -0.028287  1.467027
O    1.228698  -0.004510  2.022425
H    -0.492339  0.719902  -0.481024
H    -0.570062  -1.046362  -0.336297
H    1.013524  -0.234182  -0.459153
N    -1.027207  0.071305  2.188894
C    -2.391735  0.094777  1.705009
C    -3.210069  0.903117  2.731530
O    -2.801074  1.063937  3.880756
H    -0.925221  0.258278  3.186813
H    -2.424358  0.611052  0.733317
C    -3.002546  -1.320908  1.516953
C    -3.117040  -2.136076  2.808045
C    -3.567026  -3.586415  2.586513
C    -5.004763  -3.739930  2.064690
N    -5.504961  -5.110579  1.924486
H    -2.365098  -1.861146  0.799590
H    -3.984652  -1.220815  1.032101
H    -3.814870  -1.640397  3.502650
H    -2.140244  -2.137184  3.313533
H    -3.485160  -4.131101  3.541255
H    -2.873427  -4.088445  1.889679
H    -5.106092  -3.256637  1.080558
H    -5.691460  -3.200431  2.737875
H    -4.920033  -5.637221  1.273851
H    -5.448892  -5.601367  2.818449
N    -4.416115  1.402584  2.335630
C    -5.064005  1.331450  1.037845
H    -4.918265  1.860531  3.090515
H    -5.703764  2.212456  0.909562
H    -5.688533  0.431769  0.923957
H    -4.324305  1.343314  0.228844
