33
Energy: -18209.2942264 eV PBE+vdW (tier 2 basis)
C    0.411896  -1.283043  0.617149
C    0.283866  0.072978  1.279368
O    1.238454  0.848520  1.328885
H    0.669064  -2.023499  1.386728
H    1.228923  -1.224028  -0.107587
H    -0.499056  -1.631366  0.119226
N    -0.902735  0.426527  1.879144
C    -2.224796  -0.192865  1.917093
C    -2.155598  -1.726274  2.151080
O    -1.450160  -2.183215  3.049180
H    -0.821696  1.326383  2.343628
H    -2.667731  0.150234  2.867043
C    -3.161804  0.314524  0.801919
C    -2.698985  0.078742  -0.640201
C    -3.804038  0.278355  -1.686275
C    -5.047527  -0.594669  -1.476109
N    -4.684517  -1.996569  -1.184142
H    -3.307449  1.395867  0.955770
H    -4.150356  -0.137999  0.973957
H    -2.301790  -0.939693  -0.747839
H    -1.858934  0.749382  -0.870187
H    -3.382415  0.072632  -2.683742
H    -4.128605  1.330739  -1.708816
H    -5.706093  -0.492124  -2.357258
H    -5.624896  -0.227116  -0.615068
H    -4.181789  -2.400314  -1.977644
H    -5.529555  -2.558057  -1.071936
N    -2.951693  -2.509550  1.378298
C    -2.976473  -3.946288  1.582523
H    -3.491364  -2.146605  0.585081
H    -3.702588  -4.381951  0.887325
H    -3.267672  -4.193433  2.612229
H    -1.989296  -4.396382  1.402136
