33
Energy: -18209.3981543 eV PBE+vdW (tier 2 basis)
C    -0.285047  0.499210  -0.768032
C    0.058377  -0.254434  0.502014
O    1.211407  -0.546103  0.808001
H    -0.879448  1.400557  -0.565296
H    -0.868962  -0.131078  -1.454118
H    0.650203  0.781263  -1.257853
N    -0.992176  -0.598381  1.326343
C    -2.417722  -0.399098  1.099775
C    -2.954193  0.992304  1.516437
O    -4.098079  1.325589  1.215458
H    -0.709225  -1.163352  2.122919
H    -2.621550  -0.463794  0.021331
C    -3.247860  -1.498014  1.788947
C    -3.140811  -1.535237  3.316781
C    -4.029725  -2.619127  3.935305
C    -3.869124  -2.769273  5.448896
N    -4.317037  -1.567631  6.166007
H    -2.951599  -2.470167  1.364577
H    -4.295347  -1.327995  1.504414
H    -3.423181  -0.549101  3.718195
H    -2.097586  -1.716159  3.633914
H    -3.797956  -3.588889  3.464779
H    -5.084534  -2.396312  3.711091
H    -2.820309  -3.056271  5.671876
H    -4.498568  -3.604963  5.787345
H    -4.360705  -1.747596  7.168565
H    -3.654943  -0.801269  6.043073
N    -2.089707  1.768270  2.222223
C    -2.431583  3.094829  2.694599
H    -1.164985  1.388449  2.394843
H    -1.767522  3.855667  2.261205
H    -2.369733  3.154872  3.790145
H    -3.461792  3.301030  2.384353
