33
Energy: -18209.2415146 eV PBE+vdW (tier 2 basis)
C    0.404714  0.040801  0.826297
C    0.385841  -0.067523  2.343567
O    1.339406  0.300165  3.025159
H    -0.409421  0.678408  0.452481
H    0.311277  -0.939750  0.341282
H    1.359879  0.488616  0.540427
N    -0.731804  -0.603650  2.931910
C    -1.991482  -0.981509  2.323682
C    -3.127648  -0.280192  3.089356
O    -3.034729  -0.065394  4.295944
H    -0.750528  -0.535143  3.949113
H    -1.984127  -0.655439  1.276705
C    -2.237690  -2.511257  2.389412
C    -1.291312  -3.335446  1.510248
C    -1.570562  -3.259699  0.002249
C    -2.879954  -3.927214  -0.461459
N    -3.013790  -5.368928  -0.246284
H    -3.287221  -2.718194  2.126000
H    -2.129247  -2.808418  3.442829
H    -1.339146  -4.388136  1.832251
H    -0.255672  -3.023375  1.713219
H    -0.731347  -3.727229  -0.538429
H    -1.585324  -2.207564  -0.331677
H    -3.004835  -3.738812  -1.538691
H    -3.744101  -3.445222  0.023508
H    -2.986964  -5.597852  0.747385
H    -2.240409  -5.872585  -0.682978
N    -4.252648  0.034109  2.383437
C    -4.470283  -0.092680  0.951248
H    -4.980829  0.463033  2.945842
H    -3.791514  0.546405  0.366257
H    -5.495346  0.221403  0.729325
H    -4.361345  -1.130093  0.604113
