33
Energy: -18209.4980471 eV PBE+vdW (tier 2 basis)
C    -1.074883  0.110345  0.119615
C    -0.763955  0.227755  1.598769
O    0.403553  0.310543  2.002743
H    -0.588981  0.938115  -0.410602
H    -2.146586  0.112451  -0.113212
H    -0.633380  -0.821895  -0.255666
N    -1.842749  0.235627  2.428122
C    -1.838867  0.210821  3.901123
C    -1.404137  1.535742  4.577897
O    -2.110554  2.028648  5.458454
H    -2.753776  0.201074  1.989048
H    -2.894919  0.117794  4.184571
C    -1.075147  -0.989397  4.494027
C    -1.615133  -2.347200  4.042537
C    -0.859963  -3.522710  4.666383
C    -1.363041  -4.883172  4.187667
N    -0.631462  -5.971866  4.847462
H    -1.152398  -0.899780  5.588441
H    -0.008549  -0.908967  4.242869
H    -1.555985  -2.419679  2.944244
H    -2.686421  -2.421026  4.298409
H    -0.933801  -3.486616  5.764367
H    0.213734  -3.430206  4.427061
H    -1.312234  -4.915573  3.079717
H    -2.426639  -4.990733  4.453589
H    -1.002505  -6.878345  4.563030
H    0.350037  -5.960738  4.565563
N    -0.216796  2.041671  4.163448
C    0.347583  3.254689  4.719634
H    0.287755  1.519114  3.438787
H    0.552412  3.990376  3.929359
H    1.285060  3.048505  5.256497
H    -0.377018  3.676077  5.424508
