33
Energy: -18209.5532906 eV PBE+vdW (tier 2 basis)
C    0.503222  0.862382  0.513765
C    -0.236903  0.730938  1.827351
O    0.138595  1.342768  2.840429
H    0.694946  1.922836  0.315646
H    -0.025805  0.421426  -0.339673
H    1.476250  0.362877  0.618786
N    -1.306234  -0.105862  1.825525
C    -2.072225  -0.569796  2.995796
C    -3.077406  0.470531  3.548753
O    -4.251645  0.153582  3.738751
H    -1.543807  -0.538957  0.942176
H    -2.710396  -1.377101  2.615318
C    -1.189451  -1.132039  4.129514
C    -0.197415  -2.202811  3.669801
C    0.844721  -2.593464  4.725818
C    1.747046  -1.441452  5.195331
N    2.398211  -0.750206  4.070862
H    -1.875058  -1.541727  4.886752
H    -0.657059  -0.301869  4.609986
H    0.344819  -1.848703  2.780307
H    -0.746890  -3.103357  3.351441
H    1.483132  -3.382625  4.300223
H    0.346872  -3.027104  5.609071
H    1.167938  -0.755652  5.843087
H    2.533286  -1.867560  5.834991
H    3.250138  -0.292193  4.391124
H    1.798451  -0.004299  3.710934
N    -2.548551  1.689016  3.827637
C    -3.335721  2.770296  4.384651
H    -1.545609  1.814792  3.660481
H    -2.997224  3.029938  5.398402
H    -4.378639  2.439903  4.435544
H    -3.271966  3.667990  3.754048
