33
Energy: -18209.2695935 eV PBE+vdW (tier 2 basis)
C    0.988703  -0.201617  0.136240
C    0.724353  -0.280294  1.629298
O    1.606341  -0.549335  2.439891
H    0.115766  0.101966  -0.455216
H    1.327974  -1.185850  -0.210501
H    1.805637  0.508232  -0.040424
N    -0.568516  -0.026491  2.009740
C    -1.004915  -0.159718  3.401918
C    -2.468780  -0.633185  3.396309
O    -2.788994  -1.780314  3.689153
H    -1.270249  0.122210  1.294527
H    -0.426782  -0.984502  3.839892
C    -0.715674  1.117711  4.218631
C    -0.851201  0.962646  5.739961
C    -2.269762  0.803645  6.310600
C    -3.184740  2.021066  6.150512
N    -2.623715  3.202940  6.817660
H    -1.324037  1.962443  3.851342
H    0.324877  1.389007  3.993166
H    -0.388800  1.842656  6.208341
H    -0.249090  0.094531  6.050915
H    -2.179640  0.583634  7.388041
H    -2.774075  -0.075093  5.882757
H    -4.196424  1.742816  6.506823
H    -3.297570  2.274889  5.084616
H    -2.574851  3.048748  7.826093
H    -3.222363  4.016349  6.677822
N    -3.373277  0.312638  2.985900
C    -4.804575  0.073613  3.017297
H    -3.052975  1.273499  2.937615
H    -5.292153  0.560471  2.163861
H    -5.259928  0.444316  3.949252
H    -4.967020  -1.007560  2.962002
