33
Energy: -18208.894366 eV PBE+vdW (tier 2 basis)
C    -0.014280  -0.122922  0.382668
C    0.107115  0.102317  1.876476
O    1.172700  -0.063848  2.465925
H    -0.428143  0.750854  -0.135980
H    -0.662528  -0.985224  0.175381
H    0.985733  -0.331109  -0.006061
N    -1.007277  0.502407  2.576157
C    -2.410641  0.670681  2.174573
C    -3.043590  -0.715365  1.846439
O    -3.164658  -1.505973  2.782673
H    -0.836039  0.491888  3.576858
H    -2.916644  0.895559  3.124519
C    -2.659079  1.897365  1.279743
C    -4.115285  2.372870  1.332440
C    -4.381905  3.666426  0.551413
C    -4.227968  3.571278  -0.969271
N    -5.140686  2.567149  -1.537430
H    -2.343957  1.721934  0.244651
H    -2.004571  2.695659  1.663441
H    -4.386799  2.542513  2.386847
H    -4.792177  1.584328  0.971480
H    -3.711527  4.462283  0.914334
H    -5.404790  4.012032  0.777676
H    -3.201564  3.266892  -1.226838
H    -4.365198  4.583643  -1.394576
H    -5.029638  2.517211  -2.550236
H    -6.111052  2.838618  -1.368819
N    -3.450427  -1.088522  0.593981
C    -3.458561  -0.428287  -0.707512
H    -3.833219  -2.029338  0.622483
H    -3.824776  -1.159100  -1.437259
H    -2.452347  -0.129576  -1.028068
H    -4.125294  0.444468  -0.753036
