33
Energy: -18209.5264945 eV PBE+vdW (tier 2 basis)
C    -3.288433  -0.071024  -0.618530
C    -2.185796  -0.053796  0.424593
O    -1.217942  0.704108  0.343510
H    -3.740052  0.927555  -0.671480
H    -4.074605  -0.808413  -0.415643
H    -2.842009  -0.279983  -1.598600
N    -2.351049  -0.923983  1.462031
C    -1.338051  -1.113869  2.478603
C    -1.533852  -2.537617  3.031858
O    -2.518308  -3.217074  2.736366
H    -3.065744  -1.649926  1.442206
H    -0.349896  -1.039385  1.994316
C    -1.401649  -0.038847  3.590622
C    -2.657943  -0.100015  4.457855
C    -2.753752  1.063245  5.447735
C    -3.910370  0.931229  6.442069
N    -3.693287  -0.198831  7.358579
H    -1.317562  0.936326  3.088537
H    -0.503901  -0.128253  4.225701
H    -2.690941  -1.046251  5.018751
H    -3.548102  -0.093827  3.808230
H    -2.862297  2.013058  4.899762
H    -1.809097  1.149981  6.014247
H    -4.842139  0.733752  5.889255
H    -4.051887  1.899229  6.960548
H    -4.536046  -0.391495  7.898892
H    -2.963313  0.031024  8.034400
N    -0.555198  -2.966595  3.872066
C    -0.609938  -4.241383  4.562657
H    0.208773  -2.333808  4.076920
H    0.302461  -4.824909  4.381134
H    -1.471060  -4.792642  4.171736
H    -0.739015  -4.105580  5.646073
