33
Energy: -18209.4801605 eV PBE+vdW (tier 2 basis)
C    -4.902959  4.051786  2.258592
C    -3.799384  3.084023  1.886155
O    -3.604349  2.736124  0.715563
H    -4.750025  4.987290  1.706224
H    -4.951588  4.274874  3.331356
H    -5.864472  3.634491  1.934714
N    -3.030834  2.630045  2.916207
C    -1.913104  1.704936  2.720774
C    -2.450199  0.247112  2.669132
O    -2.392101  -0.513196  3.633970
H    -3.292522  2.862083  3.867942
H    -1.487894  1.951867  1.736035
C    -0.861064  1.892618  3.810660
C    0.448191  1.156133  3.500553
C    1.473774  1.109479  4.642569
C    2.128865  2.437522  5.041310
N    1.291039  3.247507  5.941918
H    -1.266590  1.532030  4.768636
H    -0.682545  2.975229  3.904368
H    0.915964  1.607779  2.608785
H    0.201900  0.118815  3.229787
H    2.277265  0.423202  4.332532
H    1.013782  0.665594  5.539472
H    2.443039  2.974260  4.122229
H    3.051339  2.211504  5.595875
H    0.505035  3.660680  5.440857
H    1.832176  4.028009  6.314257
N    -2.995393  -0.070473  1.464432
C    -3.677100  -1.328165  1.228407
H    -3.126636  0.704032  0.810197
H    -4.771395  -1.213293  1.265113
H    -3.375675  -2.032353  2.010948
H    -3.399542  -1.734544  0.247433
