33
Energy: -18209.0875482 eV PBE+vdW (tier 2 basis)
C    0.621623  -1.207746  -0.109079
C    0.547306  -1.175550  1.408561
O    1.473831  -1.552105  2.118497
H    1.556711  -0.731365  -0.425992
H    -0.221694  -0.715507  -0.609784
H    0.661807  -2.255461  -0.434338
N    -0.622337  -0.680949  1.924306
C    -0.963301  -0.689321  3.348382
C    0.214416  -0.232631  4.253021
O    0.583319  -0.905691  5.208435
H    -1.363233  -0.445288  1.275166
H    -1.753676  0.073471  3.466063
C    -1.520564  -2.044812  3.810759
C    -2.391268  -1.950509  5.068953
C    -2.826967  -3.306329  5.636997
C    -3.720116  -4.136173  4.715549
N    -4.202506  -5.336646  5.414692
H    -0.672856  -2.721714  3.987648
H    -2.104022  -2.458577  2.974858
H    -3.286968  -1.341967  4.849238
H    -1.829135  -1.416229  5.846984
H    -3.369540  -3.149536  6.581512
H    -1.926326  -3.890708  5.893339
H    -3.180396  -4.364151  3.775697
H    -4.602996  -3.538569  4.434396
H    -4.784743  -5.901125  4.795488
H    -3.411701  -5.927002  5.679033
N    0.749753  1.005976  4.018812
C    0.501443  1.932530  2.931460
H    1.544118  1.195614  4.621866
H    -0.569048  1.992098  2.699389
H    1.041578  1.667337  2.008678
H    0.823210  2.932902  3.245389
