33
Energy: -18209.1828775 eV PBE+vdW (tier 2 basis)
C    0.307709  1.301844  2.267056
C    0.481506  -0.177082  2.546023
O    1.405647  -0.622443  3.223196
H    -0.591940  1.697305  2.759495
H    0.199176  1.506380  1.193201
H    1.185663  1.825826  2.652772
N    -0.450466  -1.028773  1.998153
C    -1.688352  -0.683197  1.315426
C    -2.740859  0.045682  2.184668
O    -3.334368  1.019793  1.719568
H    -0.286209  -2.004865  2.229589
H    -1.468884  0.053464  0.529509
C    -2.265042  -1.947504  0.649377
C    -3.570206  -1.750587  -0.135616
C    -3.519384  -0.737231  -1.289694
C    -2.475968  -1.043092  -2.374433
N    -2.474192  -0.149213  -3.537249
H    -2.434470  -2.714788  1.422186
H    -1.478979  -2.348598  -0.008810
H    -4.371577  -1.453217  0.557608
H    -3.864207  -2.735951  -0.531838
H    -3.352876  0.275332  -0.889803
H    -4.515009  -0.711089  -1.762172
H    -2.618003  -2.072332  -2.743862
H    -1.460653  -1.017111  -1.948012
H    -2.303255  0.813166  -3.240888
H    -3.393821  -0.147942  -3.981891
N    -3.013599  -0.399689  3.446914
C    -2.449398  -1.504597  4.210153
H    -3.704342  0.181294  3.912005
H    -3.086284  -1.668230  5.086556
H    -1.427332  -1.302294  4.559331
H    -2.446382  -2.439375  3.635338
