33
Energy: -18209.4144305 eV PBE+vdW (tier 2 basis)
C    -0.289812  0.367211  -0.316187
C    -0.069630  0.381400  1.184937
O    1.045608  0.538634  1.684353
H    -1.334779  0.202881  -0.605862
H    0.334703  -0.420227  -0.755878
H    0.050101  1.324033  -0.731832
N    -1.193380  0.221887  1.942106
C    -1.133305  0.113542  3.384367
C    -2.335112  -0.742358  3.811719
O    -3.267829  -0.963076  3.035705
H    -2.085924  -0.045962  1.531673
H    -0.186877  -0.390904  3.638584
C    -1.133995  1.493536  4.086781
C    -2.422963  2.297077  3.901750
C    -2.454975  3.611730  4.694675
C    -2.367333  3.449900  6.215531
N    -3.482193  2.645516  6.735247
H    -0.272104  2.051366  3.692511
H    -0.928091  1.339737  5.155907
H    -3.296838  1.684927  4.178229
H    -2.557701  2.522415  2.833592
H    -3.388748  4.142792  4.456420
H    -1.625348  4.259656  4.368169
H    -2.437670  4.445913  6.676698
H    -1.368379  3.055034  6.490514
H    -3.452225  2.605776  7.753649
H    -3.422614  1.681913  6.403529
N    -2.361093  -1.217231  5.090073
C    -1.333442  -1.150859  6.115349
H    -3.211419  -1.730546  5.302086
H    -0.336053  -1.099598  5.664532
H    -1.374494  -2.061638  6.724718
H    -1.457359  -0.282883  6.781822
