33
Energy: -18209.2879025 eV PBE+vdW (tier 2 basis)
C    -0.426814  1.197462  -0.215671
C    -0.052838  0.859110  1.219792
O    1.098356  0.989870  1.632076
H    0.490535  1.480776  -0.738009
H    -1.129468  2.042482  -0.255316
H    -0.891318  0.350525  -0.738267
N    -1.044321  0.393433  2.040252
C    -2.459267  0.225310  1.761632
C    -3.241768  0.944924  2.878085
O    -2.854636  0.914007  4.043803
H    -0.781096  0.291693  3.019368
H    -2.678337  0.695820  0.792464
C    -2.920450  -1.250300  1.720706
C    -2.379179  -2.114004  0.571654
C    -0.904571  -2.550339  0.637975
C    -0.482126  -3.231566  1.941388
N    -1.341900  -4.383170  2.251413
H    -4.020121  -1.243830  1.651460
H    -2.690026  -1.714236  2.690869
H    -2.555530  -1.599881  -0.388355
H    -2.998297  -3.021917  0.545118
H    -0.224890  -1.704595  0.471225
H    -0.724152  -3.244907  -0.200485
H    -0.568938  -2.519140  2.775222
H    0.593239  -3.481741  1.866078
H    -1.196441  -5.127691  1.567505
H    -1.097735  -4.776278  3.160010
N    -4.388582  1.563873  2.478228
C    -5.298175  2.213011  3.404739
H    -4.624582  1.545291  1.493597
H    -5.436717  3.271649  3.146518
H    -4.852393  2.145431  4.402587
H    -6.278765  1.716669  3.417365
