33
Energy: -18209.1417102 eV PBE+vdW (tier 2 basis)
C    0.046348  -0.015541  0.076033
C    0.120066  0.162664  1.584945
O    1.202341  0.211770  2.168382
H    0.691142  0.734508  -0.396931
H    -0.965359  0.065220  -0.340747
H    0.453586  -1.002883  -0.177738
N    -1.097957  0.254690  2.203786
C    -1.440299  0.337048  3.631270
C    -1.944464  1.731043  4.083773
O    -3.027098  1.800366  4.669049
H    -1.902392  0.213255  1.589519
H    -2.352186  -0.267661  3.741399
C    -0.410858  -0.239149  4.618100
C    -0.167769  -1.739963  4.445259
C    0.847560  -2.285673  5.450759
C    1.113685  -3.780224  5.284024
N    2.075783  -4.253922  6.288119
H    -0.822822  -0.048855  5.621499
H    0.541729  0.298938  4.550485
H    0.193195  -1.940049  3.425263
H    -1.124653  -2.278906  4.553854
H    0.507552  -2.101179  6.481973
H    1.797209  -1.735616  5.333660
H    1.426477  -3.974092  4.237749
H    0.174939  -4.335961  5.437364
H    2.216798  -5.260502  6.201912
H    2.988021  -3.821838  6.132258
N    -1.195238  2.848169  3.865561
C    0.088281  3.017342  3.206082
H    -1.662601  3.685662  4.201134
H    0.648682  3.812309  3.713763
H    -0.025949  3.296535  2.146320
H    0.686768  2.102056  3.248439
