33
Energy: -18209.1463293 eV PBE+vdW (tier 2 basis)
C    0.056390  0.713637  1.286035
C    -0.372065  -0.133725  2.469229
O    0.435853  -0.532923  3.303357
H    -0.163328  1.772387  1.485029
H    -0.438752  0.431033  0.348598
H    1.138088  0.603386  1.172056
N    -1.711447  -0.412525  2.617500
C    -2.826202  -0.142736  1.717161
C    -2.649616  -0.908768  0.372506
O    -2.218201  -2.055891  0.363018
H    -1.882770  -1.054504  3.383782
H    -3.684325  -0.653714  2.182585
C    -3.205094  1.350189  1.618841
C    -3.346527  2.037949  2.978633
C    -3.795182  3.497007  2.861592
C    -3.921812  4.216305  4.206311
N    -2.614927  4.375454  4.857679
H    -4.168201  1.426780  1.086456
H    -2.464840  1.901168  1.017360
H    -2.380523  1.980360  3.500767
H    -4.067406  1.478869  3.600393
H    -4.770238  3.541083  2.348358
H    -3.077637  4.054238  2.237820
H    -4.670551  3.685268  4.829874
H    -4.323445  5.224498  4.029010
H    -2.279528  3.486829  5.229988
H    -2.688109  5.007848  5.653815
N    -3.038329  -0.245611  -0.755641
C    -2.979545  -0.850792  -2.073399
H    -3.343418  0.715679  -0.673613
H    -3.968808  -0.855195  -2.551362
H    -2.637055  -1.882992  -1.946408
H    -2.272169  -0.319329  -2.725614
