33
Energy: -18209.0775727 eV PBE+vdW (tier 2 basis)
C    0.269720  -0.143513  0.989291
C    0.247601  0.461394  2.376532
O    1.284123  0.747074  2.973209
H    -0.372200  -1.029036  0.928208
H    1.304810  -0.417769  0.768319
H    -0.062489  0.589856  0.241272
N    -0.963406  0.744820  2.980898
C    -2.347744  0.436556  2.644763
C    -2.679285  -1.063902  2.819715
O    -1.867608  -1.948926  2.566263
H    -0.811090  1.102422  3.919026
H    -2.933138  1.001201  3.384873
C    -2.811767  0.907741  1.246831
C    -2.498282  2.372580  0.920670
C    -3.064082  3.415914  1.894575
C    -4.583589  3.395678  2.086144
N    -5.288827  3.506911  0.802786
H    -3.896865  0.739247  1.176399
H    -2.366357  0.261043  0.479555
H    -2.889090  2.572686  -0.086910
H    -1.408969  2.512719  0.868432
H    -2.767209  4.415549  1.535682
H    -2.588608  3.314244  2.883194
H    -4.849796  4.186657  2.814543
H    -4.893234  2.443728  2.545584
H    -6.298559  3.491559  0.944245
H    -5.074130  4.400923  0.357830
N    -3.941915  -1.372400  3.253311
C    -5.039130  -0.482645  3.591529
H    -4.113992  -2.372523  3.284995
H    -5.463977  0.024555  2.711194
H    -4.737040  0.280933  4.322002
H    -5.836129  -1.075949  4.052372
