33
Energy: -18209.4734354 eV PBE+vdW (tier 2 basis)
C    -0.010066  -0.474065  0.511902
C    -0.329194  -0.203292  1.971015
O    0.089502  -0.914070  2.876475
H    -0.188606  -1.534486  0.300369
H    1.058602  -0.283306  0.346769
H    -0.589760  0.138033  -0.190697
N    -1.136523  0.893214  2.198986
C    -1.346263  1.441655  3.532688
C    -2.805410  1.382350  4.022534
O    -3.145097  1.977652  5.046694
H    -1.301682  1.516745  1.414690
H    -0.799774  0.768737  4.214615
C    -0.785741  2.866601  3.652803
C    0.742677  2.941888  3.730596
C    1.397770  2.212901  4.916200
C    0.893870  2.600910  6.316767
N    -0.281116  1.824989  6.740207
H    -1.243090  3.330304  4.536386
H    -1.143339  3.461448  2.794033
H    1.022206  4.007274  3.767460
H    1.181725  2.551802  2.797051
H    2.478017  2.421070  4.865562
H    1.293527  1.122435  4.807840
H    0.745532  3.700703  6.358415
H    1.693604  2.375665  7.036901
H    -0.404355  1.894946  7.749224
H    -1.153008  2.157118  6.321923
N    -3.645386  0.615830  3.280206
C    -5.014795  0.346985  3.670172
H    -3.235847  0.124520  2.493141
H    -5.147456  -0.701083  3.975499
H    -5.708127  0.567806  2.847448
H    -5.250395  0.993721  4.522125
