33
Energy: -18209.420047 eV PBE+vdW (tier 2 basis)
C    1.047732  -1.237030  2.590635
C    -0.415543  -1.275164  2.189637
O    -1.241068  -1.968114  2.786594
H    1.448999  -2.257337  2.553932
H    1.119194  -0.894463  3.630480
H    1.662040  -0.586231  1.956418
N    -0.749867  -0.487614  1.127216
C    -2.101824  -0.431528  0.596507
C    -1.947280  -0.251653  -0.919590
O    -1.104680  0.539141  -1.356905
H    -0.054314  0.051844  0.619708
H    -2.578862  -1.384401  0.860406
C    -2.902894  0.714019  1.263489
C    -4.403128  0.770809  0.939255
C    -4.764766  1.513761  -0.352252
C    -6.262729  1.520742  -0.661672
N    -6.775281  0.160608  -0.911125
H    -2.417278  1.669679  1.011027
H    -2.772460  0.564371  2.344188
H    -4.918049  1.266519  1.778296
H    -4.799863  -0.257363  0.915521
H    -4.235674  1.081455  -1.212782
H    -4.419599  2.556968  -0.269358
H    -6.431025  2.106542  -1.576573
H    -6.802703  2.044835  0.151849
H    -6.920004  -0.333906  -0.030241
H    -7.690404  0.206316  -1.358509
N    -2.728703  -0.983978  -1.758635
C    -3.812007  -1.911641  -1.464320
H    -2.570445  -0.750411  -2.735460
H    -3.814005  -2.704911  -2.222334
H    -4.795235  -1.414394  -1.464274
H    -3.655231  -2.388244  -0.491273
