33
Energy: -18208.9311378 eV PBE+vdW (tier 2 basis)
C    0.333474  0.756060  1.353229
C    0.570161  -0.190511  2.513003
O    1.711927  -0.390629  2.930004
H    -0.319928  1.590874  1.633261
H    -0.123687  0.251123  0.493492
H    1.309889  1.147266  1.055804
N    -0.479851  -0.830875  3.135789
C    -1.931622  -0.976646  2.953770
C    -2.326591  -2.456993  2.726761
O    -3.164467  -2.977456  3.465085
H    -0.117753  -1.392831  3.903962
H    -2.377830  -0.773949  3.938282
C    -2.617115  -0.038368  1.948977
C    -4.147163  -0.177599  1.911233
C    -4.885145  0.112553  3.227528
C    -4.572769  1.466016  3.871057
N    -4.797535  2.574970  2.931974
H    -2.237377  -0.207342  0.932971
H    -2.361465  0.998673  2.206547
H    -4.422642  -1.188676  1.575176
H    -4.505247  0.516792  1.138579
H    -4.682264  -0.682056  3.960598
H    -5.968437  0.055524  3.027930
H    -3.513937  1.504858  4.173512
H    -5.158762  1.546631  4.806958
H    -4.568294  3.466983  3.369947
H    -5.785506  2.625598  2.677447
N    -1.756825  -3.170079  1.710251
C    -0.737623  -2.789826  0.744247
H    -2.081708  -4.131777  1.692550
H    -0.675735  -3.580175  -0.011702
H    0.254668  -2.669246  1.200239
H    -0.998262  -1.861111  0.221549
