33
Energy: -18209.0722713 eV PBE+vdW (tier 2 basis)
C    -0.159812  -0.415105  1.004961
C    0.012352  0.188433  2.382299
O    1.079401  0.118568  2.989058
H    -1.064768  -1.029723  0.945786
H    0.721796  -1.029820  0.804098
H    -0.213473  0.374416  0.241870
N    -1.035114  0.880226  2.961708
C    -2.439626  1.051899  2.610534
C    -3.266220  -0.236841  2.832344
O    -2.820085  -1.352633  2.582919
H    -0.776954  1.193613  3.892390
H    -2.798226  1.820504  3.311385
C    -2.708705  1.594005  1.189797
C    -1.975528  2.898883  0.878156
C    -2.285906  3.426858  -0.525192
C    -1.493162  4.678100  -0.907784
N    -1.833338  5.821833  -0.048008
H    -3.794995  1.750926  1.093908
H    -2.456520  0.825296  0.446546
H    -0.889713  2.746609  0.984468
H    -2.255729  3.653615  1.631914
H    -3.361175  3.652761  -0.607860
H    -2.066204  2.638709  -1.264436
H    -1.751511  4.955937  -1.939836
H    -0.411880  4.431832  -0.909117
H    -1.400777  5.723761  0.870882
H    -1.459652  6.683972  -0.443705
N    -4.547384  -0.070360  3.285268
C    -5.212215  1.154393  3.700401
H    -5.051602  -0.945690  3.386159
H    -5.262043  1.897773  2.891745
H    -4.730956  1.617875  4.575048
H    -6.241561  0.908499  3.981750
