33
Energy: -18208.8699233 eV PBE+vdW (tier 2 basis)
C    0.242498  0.423958  0.388952
C    0.098450  0.024430  1.839811
O    1.096251  -0.103835  2.548611
H    0.814748  1.359779  0.351388
H    0.844511  -0.351557  -0.099613
H    -0.690088  0.519717  -0.165792
N    -1.138734  -0.209504  2.411104
C    -2.529467  -0.140237  1.975019
C    -2.835710  -1.080487  0.783335
O    -1.963829  -1.539190  0.051782
H    -1.010376  -0.487196  3.379692
H    -3.080172  -0.581696  2.821452
C    -3.099980  1.304695  1.872644
C    -2.624541  2.236980  0.754227
C    -3.075254  1.854015  -0.657656
C    -2.594725  2.841775  -1.718441
N    -3.078693  2.448583  -3.047915
H    -2.867260  1.773940  2.840314
H    -4.197567  1.238499  1.830011
H    -1.530900  2.340399  0.790548
H    -3.017684  3.240312  0.987291
H    -4.174561  1.792498  -0.702850
H    -2.703013  0.852183  -0.923624
H    -1.491083  2.928237  -1.650448
H    -3.000053  3.842053  -1.498018
H    -2.802631  3.137901  -3.747236
H    -2.649127  1.566012  -3.330542
N    -4.148390  -1.422017  0.586198
C    -5.340595  -1.073639  1.336951
H    -4.267479  -2.013630  -0.230549
H    -5.790303  -0.123811  1.007575
H    -5.129621  -1.002624  2.411398
H    -6.085222  -1.867384  1.204324
