33
Energy: -18208.8203792 eV PBE+vdW (tier 2 basis)
C    -0.159636  0.318773  0.177794
C    -0.199779  0.684325  1.645320
O    0.525258  1.568565  2.110365
H    0.242966  -0.694997  0.051418
H    0.489326  1.040299  -0.324071
H    -1.148205  0.355781  -0.294200
N    -1.023379  -0.018280  2.490658
C    -2.192079  -0.862181  2.243504
C    -1.885865  -1.930446  1.156049
O    -0.933914  -2.683232  1.354058
H    -0.906057  0.287754  3.452919
H    -2.241378  -1.529258  3.119510
C    -3.519558  -0.061319  2.257484
C    -3.553631  1.270494  1.487159
C    -3.175553  2.497766  2.328758
C    -2.874245  3.741715  1.488824
N    -1.732543  3.502291  0.597159
H    -4.329221  -0.731023  1.934584
H    -3.742691  0.147906  3.316683
H    -4.564111  1.423014  1.076284
H    -2.879636  1.245379  0.621067
H    -2.288352  2.276079  2.941830
H    -3.985968  2.730193  3.038119
H    -2.734254  4.600237  2.174352
H    -3.747085  3.982589  0.859664
H    -0.881861  3.330094  1.139254
H    -1.554335  4.318234  0.013322
N    -2.680515  -2.131030  0.058782
C    -3.726268  -1.343909  -0.578423
H    -2.343749  -2.933970  -0.464483
H    -3.865572  -1.736187  -1.591536
H    -3.456242  -0.285689  -0.668933
H    -4.690942  -1.415861  -0.056620
