33
Energy: -18209.574967 eV PBE+vdW (tier 2 basis)
C    0.111752  -0.263600  -0.151882
C    0.046573  -0.427622  1.351882
O    1.066566  -0.618176  2.029281
H    0.739485  0.606623  -0.381855
H    -0.868687  -0.128966  -0.624653
H    0.602612  -1.143921  -0.584525
N    -1.191705  -0.354289  1.906454
C    -1.454260  -0.377792  3.348396
C    -1.444391  -1.823450  3.929454
O    -2.410295  -2.321207  4.516303
H    -1.993220  -0.254887  1.294439
H    -0.606344  0.144170  3.820376
C    -2.749290  0.365876  3.677194
C    -3.991631  -0.077679  2.880312
C    -5.320077  0.316813  3.552494
C    -5.844625  -0.700175  4.573785
N    -4.944112  -0.885165  5.718033
H    -2.582461  1.442420  3.518149
H    -2.940880  0.238009  4.749471
H    -3.978665  -1.170019  2.738225
H    -3.963679  0.371397  1.872699
H    -6.095159  0.433146  2.779037
H    -5.211705  1.298988  4.040478
H    -6.065184  -1.645244  4.034499
H    -6.807294  -0.330303  4.958046
H    -5.429811  -1.381182  6.464383
H    -4.146292  -1.470345  5.450903
N    -0.268368  -2.467316  3.759535
C    -0.061556  -3.823917  4.230278
H    0.479086  -1.962421  3.271437
H    -0.765024  -4.522486  3.755533
H    0.961731  -4.127138  3.986671
H    -0.206849  -3.892378  5.317403
