33
Energy: -18209.3497449 eV PBE+vdW (tier 2 basis)
C    -0.176699  -0.899400  -0.037007
C    -0.042045  -0.744875  1.467706
O    1.012979  -0.934729  2.060407
H    0.393948  -0.097664  -0.524024
H    -1.212690  -0.862822  -0.396930
H    0.276769  -1.851121  -0.336878
N    -1.196028  -0.386471  2.129655
C    -1.195296  -0.000522  3.539975
C    -1.028288  -1.201262  4.496224
O    -0.544607  -1.051848  5.616823
H    -1.995909  -0.103553  1.573256
H    -0.313619  0.626584  3.738502
C    -2.479104  0.816726  3.805627
C    -2.658755  1.349750  5.234784
C    -3.392255  0.389888  6.182409
C    -3.228746  0.742000  7.662752
N    -1.809657  0.820236  8.025706
H    -3.353923  0.205876  3.519424
H    -2.447829  1.664996  3.103278
H    -3.218934  2.296200  5.188145
H    -1.678878  1.597777  5.665098
H    -3.025825  -0.637019  6.035382
H    -4.466425  0.370190  5.937128
H    -3.688374  1.725104  7.864295
H    -3.803390  0.000806  8.253401
H    -1.298308  0.013036  7.661625
H    -1.689237  0.837270  9.036873
N    -1.507863  -2.384877  4.028974
C    -1.385903  -3.623549  4.770752
H    -1.761952  -2.414531  3.047623
H    -2.335839  -4.174162  4.766277
H    -1.120627  -3.369266  5.802440
H    -0.596456  -4.268293  4.356878
