33
Energy: -18209.3082639 eV PBE+vdW (tier 2 basis)
C    0.662489  0.636401  0.306160
C    0.067816  -0.172093  1.450288
O    0.080774  -1.402590  1.455338
H    0.364633  0.178394  -0.643732
H    1.758412  0.584976  0.364923
H    0.356676  1.690499  0.313491
N    -0.469224  0.568433  2.459952
C    -1.010741  -0.045561  3.658756
C    -2.285402  -0.903160  3.476486
O    -2.462998  -1.860653  4.226494
H    -0.428948  1.596167  2.423540
H    -0.288572  -0.783928  4.040095
C    -1.273262  1.013802  4.746034
C    -0.036461  1.526658  5.501751
C    0.984731  2.405721  4.758865
C    0.421503  3.698343  4.145026
N    0.006558  3.510536  2.734900
H    -1.937634  0.547592  5.486607
H    -1.843116  1.851406  4.310462
H    0.492985  0.656548  5.921232
H    -0.399401  2.099883  6.371097
H    1.496930  1.828174  3.973596
H    1.766894  2.679051  5.482837
H    1.163047  4.509274  4.246262
H    -0.466041  4.019738  4.710587
H    -0.583987  4.286809  2.433864
H    0.832258  3.539908  2.133322
N    -3.232962  -0.561588  2.550862
C    -3.291395  0.529963  1.593732
H    -3.993019  -1.234355  2.532261
H    -4.335124  0.647850  1.277413
H    -2.678866  0.345636  0.698236
H    -2.974116  1.479287  2.040525
