33
Energy: -18209.0503231 eV PBE+vdW (tier 2 basis)
C    0.712870  -0.207240  -0.027580
C    0.521747  0.440683  1.335409
O    1.386762  1.166717  1.823104
H    0.914901  0.580789  -0.763311
H    -0.140604  -0.805834  -0.369411
H    1.601784  -0.848992  0.014420
N    -0.673079  0.148148  1.938499
C    -1.176993  0.517857  3.269237
C    -2.347535  1.532393  3.209513
O    -3.434101  1.217184  3.699392
H    -1.300141  -0.445599  1.408309
H    -1.682499  -0.382350  3.648564
C    -0.100380  0.893431  4.302223
C    -0.645424  0.869053  5.734864
C    0.327600  1.410847  6.792915
C    1.698644  0.722323  6.873052
N    2.683068  1.322369  5.958718
H    0.333486  1.875841  4.081000
H    0.716574  0.165368  4.197237
H    -0.928888  -0.165150  5.993485
H    -1.576985  1.453097  5.789037
H    -0.165887  1.321205  7.772678
H    0.502023  2.486330  6.629709
H    1.562167  -0.371042  6.734426
H    2.097170  0.854092  7.889532
H    3.605772  0.918348  6.118583
H    2.453755  1.137111  4.981784
N    -2.162846  2.761881  2.649809
C    -1.026569  3.314993  1.931677
H    -3.017879  3.311282  2.660646
H    -0.945934  4.386092  2.155664
H    -1.132892  3.194673  0.841556
H    -0.089094  2.836166  2.229927
