33
Energy: -18208.8416298 eV PBE+vdW (tier 2 basis)
C    -0.355509  -1.028001  -0.316469
C    -0.198008  -0.964588  1.190914
O    0.852079  -1.287184  1.743571
H    -1.074511  -1.809944  -0.597015
H    -0.706216  -0.078533  -0.741437
H    0.619950  -1.271956  -0.744755
N    -1.268962  -0.545654  1.939796
C    -2.607285  -0.107819  1.536503
C    -3.347913  -1.271772  0.808392
O    -3.488449  -2.324803  1.426874
H    -1.105149  -0.661395  2.934128
H    -3.171886  -0.083928  2.481556
C    -2.665145  1.324696  0.978731
C    -2.336782  2.428827  1.998283
C    -0.869791  2.593623  2.431598
C    0.141611  2.762066  1.295442
N    -0.249152  3.841479  0.375598
H    -3.694478  1.503381  0.634465
H    -2.023931  1.446359  0.096054
H    -2.954772  2.280565  2.899768
H    -2.669691  3.377536  1.554189
H    -0.539816  1.745492  3.046874
H    -0.814523  3.478146  3.089193
H    0.201439  1.834014  0.708554
H    1.143189  2.897894  1.745512
H    -0.244562  4.739072  0.863542
H    0.430685  3.925712  -0.380017
N    -3.877638  -1.156525  -0.450608
C    -3.781851  -0.139984  -1.488116
H    -4.365780  -2.011337  -0.702318
H    -4.097366  -0.597937  -2.432123
H    -2.755730  0.218470  -1.625117
H    -4.432900  0.725363  -1.299627
