33
Energy: -18209.5052623 eV PBE+vdW (tier 2 basis)
C    0.088398  -1.391568  0.363659
C    0.249422  -0.496103  1.573942
O    1.046201  0.453135  1.577680
H    -0.229554  -0.775790  -0.487087
H    -0.636834  -2.201779  0.507054
H    1.063983  -1.822972  0.107985
N    -0.525306  -0.801739  2.647421
C    -0.612703  0.007473  3.863711
C    0.565997  -0.271161  4.845361
O    0.416217  -0.631738  6.015784
H    -1.128975  -1.613528  2.591979
H    -0.462080  1.049400  3.537352
C    -2.009185  -0.093096  4.505457
C    -2.720130  -1.459237  4.493510
C    -2.071813  -2.618893  5.271838
C    -2.441507  -2.683076  6.758427
N    -2.169294  -1.421527  7.451989
H    -2.659644  0.619811  3.976855
H    -1.927506  0.254269  5.542159
H    -2.894723  -1.774250  3.448789
H    -3.731325  -1.289405  4.895046
H    -0.976269  -2.582446  5.178185
H    -2.386001  -3.572706  4.819695
H    -1.919810  -3.558853  7.196122
H    -3.521835  -2.890756  6.844536
H    -2.337798  -1.518489  8.452226
H    -1.189763  -1.156192  7.319277
N    1.779681  -0.033716  4.298052
C    3.007184  -0.217884  5.048664
H    1.805632  0.299735  3.328339
H    3.093407  -1.248599  5.419764
H    3.855652  -0.002741  4.391092
H    3.048564  0.453423  5.918309
