33
Energy: -18209.5004145 eV PBE+vdW (tier 2 basis)
C    -0.520683  0.554622  -0.152713
C    -0.700624  -0.560439  0.860796
O    -0.352323  -1.719467  0.631227
H    -0.895512  1.526387  0.190936
H    -1.038302  0.275084  -1.078610
H    0.546561  0.647037  -0.390044
N    -1.261550  -0.186487  2.047226
C    -1.596096  -1.146612  3.077026
C    -2.741518  -0.530725  3.899942
O    -3.052710  0.656258  3.789506
H    -1.673782  0.735600  2.178389
H    -1.947874  -2.067602  2.582932
C    -0.382040  -1.523469  3.961958
C    0.180128  -0.360049  4.782422
C    1.490107  -0.677170  5.513772
C    1.367412  -1.722700  6.622185
N    2.638401  -1.851219  7.348697
H    0.388649  -1.923270  3.286297
H    -0.674877  -2.357942  4.618433
H    -0.572207  -0.017728  5.512957
H    0.352836  0.492028  4.107958
H    1.891708  0.243288  5.963263
H    2.242854  -1.014473  4.779603
H    1.005487  -2.679944  6.197653
H    0.603940  -1.390850  7.344632
H    2.554909  -2.538385  8.098105
H    3.367018  -2.198128  6.722450
N    -3.351398  -1.386345  4.763195
C    -4.411162  -0.978031  5.666174
H    -3.043688  -2.351376  4.776888
H    -5.337334  -1.535241  5.469095
H    -4.595765  0.087831  5.498164
H    -4.120320  -1.129613  6.715063
