33
Energy: -18209.391584 eV PBE+vdW (tier 2 basis)
C    -1.893887  -3.084882  0.370269
C    -1.782187  -2.715256  1.836752
O    -1.155518  -3.408568  2.643108
H    -0.887668  -3.100207  -0.067495
H    -2.524539  -2.399612  -0.209064
H    -2.299744  -4.100856  0.292690
N    -2.416597  -1.566814  2.204055
C    -2.385790  -1.090020  3.574307
C    -3.671879  -0.287837  3.791737
O    -4.104569  0.443977  2.897581
H    -2.931711  -0.994583  1.541010
H    -2.339030  -1.981999  4.210906
C    -1.135126  -0.210691  3.847535
C    -0.688698  -0.143728  5.314266
C    -0.256721  -1.489684  5.915503
C    1.029161  -2.065538  5.316580
N    1.219972  -3.451796  5.767010
H    -1.327486  0.799841  3.457855
H    -0.325271  -0.630928  3.236462
H    -1.489380  0.297689  5.928706
H    0.149564  0.568732  5.382071
H    -1.053243  -2.239422  5.783282
H    -0.125261  -1.388834  7.003128
H    1.888996  -1.471289  5.663693
H    0.998684  -1.975455  4.215378
H    0.555490  -4.052262  5.273626
H    2.146331  -3.782704  5.495906
N    -4.297790  -0.379263  4.998071
C    -4.028682  -1.285100  6.105628
H    -5.110338  0.226010  5.068180
H    -4.932505  -1.355134  6.720745
H    -3.204994  -0.940947  6.746755
H    -3.792818  -2.294870  5.748294
