33
Energy: -18209.6450573 eV PBE+vdW (tier 2 basis)
C    -1.569311  0.806393  1.107841
C    -0.811454  0.258082  2.300902
O    0.180980  0.854353  2.753396
H    -2.413720  0.177033  0.804376
H    -0.875356  0.911712  0.264611
H    -1.935525  1.810945  1.355420
N    -1.279889  -0.905263  2.809565
C    -0.819100  -1.496647  4.071863
C    0.548390  -2.239884  3.982898
O    0.688909  -3.384390  4.418769
H    -2.175702  -1.267727  2.443974
H    -0.658234  -0.665538  4.781684
C    -1.912922  -2.416484  4.619683
C    -2.233251  -3.663131  3.757166
C    -3.729988  -3.913353  3.500143
C    -4.269731  -3.312558  2.201372
N    -4.076707  -1.848548  2.131031
H    -2.817251  -1.803656  4.755779
H    -1.605091  -2.738053  5.622171
H    -1.791508  -4.537854  4.246692
H    -1.715813  -3.595765  2.787544
H    -4.326463  -3.548795  4.354679
H    -3.922402  -4.995668  3.450388
H    -5.328647  -3.605303  2.077651
H    -3.718489  -3.748566  1.353793
H    -4.614562  -1.391512  2.870853
H    -4.454848  -1.492885  1.251710
N    1.544180  -1.498435  3.441129
C    2.898228  -1.994004  3.308091
H    1.314225  -0.527709  3.188867
H    3.267997  -1.842134  2.284700
H    2.897368  -3.065013  3.537639
H    3.583686  -1.487643  4.004618
