33
Energy: -18209.2370946 eV PBE+vdW (tier 2 basis)
C    -0.020212  -0.653937  0.097593
C    0.116017  -0.195359  1.537662
O    1.135820  -0.382390  2.193387
H    0.864355  -1.243671  -0.155612
H    -0.077617  0.209970  -0.580000
H    -0.920248  -1.264766  -0.059562
N    -0.978804  0.422434  2.100786
C    -2.166987  0.894085  1.417232
C    -1.854832  2.099911  0.493930
O    -0.911325  2.859517  0.708257
H    -0.771771  0.831757  3.008191
H    -2.563222  0.070541  0.801682
C    -3.249076  1.271569  2.459270
C    -3.030467  2.631780  3.156749
C    -3.926423  3.757391  2.600157
C    -3.362194  5.167782  2.787080
N    -2.419027  5.496422  1.708548
H    -3.277497  0.450012  3.189284
H    -4.231166  1.271160  1.963353
H    -1.972651  2.923556  3.065911
H    -3.219858  2.528803  4.234271
H    -4.916073  3.687714  3.077164
H    -4.094927  3.611580  1.521868
H    -2.929059  5.250847  3.805420
H    -4.185027  5.897192  2.740009
H    -1.961740  6.389439  1.891494
H    -1.676870  4.795590  1.632683
N    -2.721101  2.278317  -0.536653
C    -2.664767  3.457488  -1.390614
H    -3.485855  1.625021  -0.652642
H    -2.791386  4.373741  -0.795729
H    -3.463186  3.389865  -2.136693
H    -1.697420  3.512535  -1.906706
