33
Energy: -18209.1380584 eV PBE+vdW (tier 2 basis)
C    0.026689  0.910957  -0.077691
C    -0.005531  0.926039  1.436783
O    0.928872  1.344263  2.117569
H    -0.676253  1.646361  -0.494121
H    -0.256264  -0.067700  -0.488077
H    1.039703  1.166104  -0.398524
N    -1.142292  0.441412  2.042379
C    -2.399226  0.053713  1.417941
C    -3.137983  1.196169  0.681484
O    -3.619983  0.979132  -0.431023
H    -1.107075  0.489778  3.057149
H    -2.195372  -0.658548  0.604668
C    -3.267801  -0.679598  2.460474
C    -4.635494  -1.172333  1.958711
C    -5.776737  -0.160469  2.121372
C    -7.101913  -0.627891  1.517565
N    -7.618752  -1.829761  2.191819
H    -3.412562  -0.034981  3.343753
H    -2.665940  -1.534452  2.803611
H    -4.889524  -2.082998  2.521084
H    -4.553170  -1.469187  0.900461
H    -5.508620  0.793059  1.644066
H    -5.929181  0.041770  3.194217
H    -6.969412  -0.753393  0.424555
H    -7.848237  0.168325  1.652529
H    -8.585252  -1.999503  1.914850
H    -7.095971  -2.657659  1.904706
N    -3.240325  2.429220  1.260664
C    -2.820042  2.894728  2.575014
H    -3.720781  3.093203  0.661588
H    -3.319844  3.849841  2.770904
H    -1.734876  3.053592  2.641455
H    -3.126052  2.202068  3.369300
