33
Energy: -18209.24672 eV PBE+vdW (tier 2 basis)
C    -0.029155  -0.289370  -0.020405
C    0.011217  0.018738  1.466307
O    1.082222  0.119068  2.068258
H    -0.000361  -1.377107  -0.174353
H    0.872475  0.132907  -0.474616
H    -0.917278  0.103502  -0.531300
N    -1.175992  0.200402  2.116667
C    -2.519896  -0.140113  1.688494
C    -3.467505  0.495682  2.723392
O    -3.070858  0.781246  3.852859
H    -1.108996  0.436736  3.107648
H    -2.712783  0.311579  0.701851
C    -2.792158  -1.666688  1.565230
C    -2.802596  -2.490047  2.865549
C    -1.501780  -2.548092  3.681677
C    -0.296322  -3.143665  2.948962
N    0.935139  -2.884034  3.701170
H    -2.053026  -2.073969  0.861488
H    -3.765649  -1.795838  1.067956
H    -3.098790  -3.515998  2.589953
H    -3.605893  -2.117425  3.520543
H    -1.682543  -3.139585  4.591352
H    -1.237598  -1.544400  4.041150
H    -0.256970  -2.757498  1.910945
H    -0.425699  -4.234216  2.861802
H    1.710149  -3.413052  3.301112
H    1.188479  -1.897384  3.599242
N    -4.765994  0.699319  2.360480
C    -5.422444  0.439181  1.091620
H    -5.335149  1.053201  3.123709
H    -6.254672  1.142408  0.970323
H    -5.822312  -0.584373  1.022736
H    -4.733941  0.598538  0.253571
