33
Energy: -18209.4541111 eV PBE+vdW (tier 2 basis)
C    -0.363921  -1.253501  -0.089062
C    -0.223788  -0.911639  1.381312
O    0.856126  -1.053328  1.969585
H    0.385615  -0.687760  -0.655614
H    -1.358453  -1.048272  -0.503192
H    -0.137907  -2.319155  -0.221603
N    -1.351810  -0.447374  1.986628
C    -1.527762  -0.119555  3.411942
C    -0.799881  1.178504  3.852856
O    -1.443760  2.108632  4.340536
H    -2.163604  -0.313071  1.397248
H    -2.588128  0.143000  3.516217
C    -1.233855  -1.320429  4.331618
C    -1.560704  -1.035901  5.801289
C    -1.202912  -2.181468  6.756150
C    -2.019277  -3.459410  6.563992
N    -1.687210  -4.440622  7.607110
H    -0.178978  -1.612523  4.233242
H    -1.829431  -2.167126  3.957788
H    -2.631242  -0.790084  5.903105
H    -1.019930  -0.133304  6.122723
H    -1.341070  -1.847163  7.795162
H    -0.129435  -2.418729  6.650777
H    -1.876682  -3.846487  5.536011
H    -3.090185  -3.218963  6.663047
H    -2.245344  -5.286891  7.492508
H    -0.710876  -4.728188  7.520029
N    0.547515  1.166165  3.700601
C    1.379341  2.298677  4.054263
H    0.952293  0.359434  3.212182
H    2.202626  1.985565  4.710798
H    0.756143  3.028968  4.581254
H    1.807668  2.778029  3.161346
