33
Energy: -18209.4247282 eV PBE+vdW (tier 2 basis)
C    1.422694  0.031596  2.635944
C    0.001701  0.303607  3.084423
O    -0.363844  0.096751  4.249377
H    2.105124  0.625549  3.256696
H    1.604274  0.268221  1.580258
H    1.656578  -1.025497  2.813110
N    -0.837466  0.787228  2.130326
C    -2.221158  1.191985  2.393192
C    -3.193955  -0.023830  2.356652
O    -4.108304  -0.131140  1.540253
H    -0.498487  0.859195  1.179470
H    -2.220661  1.542496  3.437907
C    -2.663873  2.364118  1.508044
C    -2.731766  2.187877  -0.020720
C    -1.411006  2.058304  -0.800742
C    -0.360352  3.145752  -0.547846
N    -0.907201  4.480702  -0.815223
H    -2.030517  3.229378  1.757070
H    -3.676368  2.628694  1.844298
H    -3.255983  3.073875  -0.405533
H    -3.367593  1.323524  -0.249208
H    -1.658221  2.058511  -1.876192
H    -0.944025  1.069905  -0.642285
H    0.542416  2.902164  -1.143202
H    -0.045174  3.131079  0.507890
H    -0.217610  5.202103  -0.607218
H    -1.142259  4.577905  -1.804211
N    -2.932854  -0.927797  3.338067
C    -3.676174  -2.162322  3.484018
H    -2.136765  -0.730949  3.951895
H    -4.475174  -2.167856  2.734908
H    -4.124518  -2.235939  4.484752
H    -3.031483  -3.039192  3.324831
