33
Energy: -18209.3766842 eV PBE+vdW (tier 2 basis)
C    0.144663  1.213619  0.157530
C    0.202694  0.309382  1.372153
O    1.243077  0.078048  1.981082
H    -0.151670  0.650541  -0.739080
H    1.139754  1.636586  -0.000455
H    -0.583970  2.025976  0.284299
N    -0.989185  -0.251049  1.786273
C    -2.291831  -0.166318  1.135188
C    -3.021333  1.175920  1.362657
O    -3.887175  1.559873  0.578099
H    -0.876800  -0.924385  2.540408
H    -2.171339  -0.245187  0.045278
C    -3.156502  -1.347755  1.628331
C    -4.534692  -1.500979  0.976316
C    -4.496563  -1.807866  -0.522688
C    -5.885500  -2.059533  -1.107339
N    -5.801501  -2.353903  -2.543361
H    -3.279007  -1.247520  2.719750
H    -2.569559  -2.265587  1.458171
H    -5.129488  -0.591537  1.145671
H    -5.057090  -2.317008  1.501465
H    -3.862262  -2.694746  -0.701619
H    -4.041134  -0.974812  -1.077026
H    -6.491936  -1.148312  -0.990090
H    -6.389605  -2.852184  -0.516700
H    -5.351353  -3.257781  -2.695382
H    -6.733972  -2.424367  -2.950255
N    -2.658433  1.847010  2.489126
C    -3.244804  3.115323  2.873030
H    -1.875581  1.472189  3.014746
H    -2.495164  3.919268  2.871576
H    -3.697207  3.056065  3.872543
H    -4.024300  3.354822  2.141641
