33
Energy: -18209.5001665 eV PBE+vdW (tier 2 basis)
C    0.896404  0.202405  0.682583
C    0.382152  0.171133  2.110341
O    1.089262  -0.183915  3.052188
H    1.215580  -0.809138  0.401970
H    1.782411  0.847890  0.641089
H    0.157665  0.561037  -0.044592
N    -0.912190  0.586452  2.269458
C    -1.616411  0.471226  3.532107
C    -2.974095  -0.185836  3.241442
O    -3.545240  -0.026373  2.161547
H    -1.517009  0.692287  1.458001
H    -0.997022  -0.167457  4.181597
C    -1.833680  1.839254  4.218263
C    -0.536071  2.516679  4.657734
C    -0.766912  3.910334  5.247284
C    0.493829  4.539437  5.847572
N    0.927371  3.810585  7.048445
H    -2.487922  1.691409  5.093420
H    -2.391862  2.485507  3.520794
H    0.146035  2.597640  3.797191
H    -0.018528  1.889538  5.398046
H    -1.544830  3.862509  6.030403
H    -1.164042  4.584589  4.470844
H    0.308536  5.616515  6.026633
H    1.311583  4.480887  5.112464
H    1.861421  4.103361  7.332524
H    0.306747  4.017041  7.832160
N    -3.497490  -0.905151  4.271233
C    -4.804694  -1.532057  4.215715
H    -2.934447  -1.017058  5.105955
H    -4.727601  -2.622521  4.326447
H    -5.236961  -1.305038  3.235689
H    -5.467993  -1.140170  4.999451
