33
Energy: -18209.1289118 eV PBE+vdW (tier 2 basis)
C    -1.442165  -1.483125  -0.989795
C    -0.884245  -1.204271  0.393931
O    0.270408  -1.482737  0.705347
H    -2.474090  -1.138188  -1.131366
H    -1.397484  -2.563757  -1.174860
H    -0.798679  -0.997150  -1.733160
N    -1.755592  -0.602168  1.269309
C    -1.408143  -0.442306  2.686036
C    -2.673465  -0.332753  3.549697
O    -2.852260  -1.100579  4.491225
H    -2.736998  -0.588593  1.016799
H    -0.930426  -1.374793  3.019309
C    -0.396406  0.698223  2.929807
C    0.181112  0.672873  4.346611
C    1.240829  1.750621  4.606052
C    2.494545  1.680966  3.711138
N    3.255227  0.429856  3.714222
H    -0.850151  1.678408  2.721252
H    0.402812  0.557978  2.190255
H    0.614463  -0.322979  4.535356
H    -0.627243  0.781770  5.085993
H    1.557137  1.682509  5.660206
H    0.789501  2.751766  4.490584
H    3.175967  2.492211  4.012033
H    2.225788  1.894551  2.665522
H    3.464776  0.131906  4.667982
H    2.726614  -0.325492  3.277107
N    -3.620416  0.615919  3.237604
C    -3.518656  1.803859  2.400904
H    -4.388882  0.597316  3.903630
H    -3.166892  2.682482  2.964887
H    -4.505853  2.035721  1.981028
H    -2.830196  1.637025  1.567192
