33
Energy: -18209.5072351 eV PBE+vdW (tier 2 basis)
C    2.120228  1.185862  0.994777
C    1.016233  0.308520  1.555622
O    0.591506  -0.678286  0.952043
H    1.806935  1.560607  0.012544
H    3.015242  0.570438  0.839930
H    2.377828  2.035815  1.638499
N    0.531626  0.685408  2.773111
C    -0.549594  -0.023349  3.430408
C    -1.325866  1.014375  4.250034
O    -0.752303  1.964535  4.785473
H    0.851517  1.528601  3.242220
H    -1.178988  -0.454756  2.637919
C    -0.005403  -1.162688  4.329920
C    -1.047396  -2.092704  4.959065
C    -1.895587  -2.877763  3.952041
C    -2.736643  -3.986953  4.591428
N    -1.880411  -5.025622  5.179117
H    0.609677  -0.701812  5.117514
H    0.674342  -1.752617  3.696984
H    -1.708108  -1.527335  5.637294
H    -0.520234  -2.818711  5.594212
H    -1.238385  -3.319317  3.182991
H    -2.578999  -2.212972  3.397011
H    -3.450337  -4.372743  3.837575
H    -3.342760  -3.559787  5.406587
H    -2.435567  -5.691928  5.714639
H    -1.414907  -5.558836  4.443331
N    -2.663095  0.787255  4.356244
C    -3.543346  1.607292  5.166844
H    -3.048433  -0.011094  3.866054
H    -2.941996  2.419821  5.587449
H    -3.984878  1.026956  5.989501
H    -4.351898  2.037786  4.560618
