33
Energy: -18208.8961061 eV PBE+vdW (tier 2 basis)
C    -0.019473  0.325401  2.841767
C    -0.755274  -0.974370  2.581732
O    -0.281553  -2.044600  2.964680
H    0.242614  0.847847  1.913656
H    0.899556  0.070677  3.375928
H    -0.612516  1.013800  3.455773
N    -1.972244  -0.985729  1.933823
C    -2.843959  -0.028585  1.237871
C    -3.040077  -0.430985  -0.246416
O    -4.178821  -0.613869  -0.676377
H    -2.315716  -1.943161  1.884608
H    -3.854548  -0.178289  1.647903
C    -2.527864  1.464790  1.396401
C    -3.590361  2.355824  0.740111
C    -3.373297  3.851617  0.995488
C    -2.105860  4.426969  0.361195
N    -2.023442  5.872008  0.601254
H    -1.540309  1.704506  0.982407
H    -2.483672  1.697949  2.470793
H    -4.583609  2.066321  1.115050
H    -3.618559  2.168019  -0.344754
H    -3.353420  4.060252  2.076948
H    -4.241870  4.400974  0.596137
H    -2.085187  4.144840  -0.712262
H    -1.214499  3.972192  0.820545
H    -1.157794  6.253373  0.220192
H    -2.787319  6.354939  0.125822
N    -1.954555  -0.570756  -1.065731
C    -0.532545  -0.458027  -0.780383
H    -2.220697  -0.869681  -1.998749
H    0.007780  -0.496399  -1.732408
H    -0.162613  -1.271256  -0.140950
H    -0.285614  0.500659  -0.306901
