33
Energy: -18208.8166212 eV PBE+vdW (tier 2 basis)
C    -0.143963  -0.579621  0.316840
C    0.046871  -0.182243  1.767311
O    1.161662  -0.146267  2.282097
H    -0.708624  -1.519073  0.243354
H    0.846223  -0.727838  -0.121294
H    -0.677622  0.190043  -0.254991
N    -1.062326  0.146333  2.512814
C    -2.496960  0.085630  2.206556
C    -2.951082  -1.399564  2.069328
O    -2.885023  -2.099252  3.078529
H    -0.825693  0.263790  3.493133
H    -2.970361  0.347527  3.164108
C    -2.967220  1.158048  1.209936
C    -4.475559  1.425226  1.306358
C    -5.023788  2.342884  0.207983
C    -4.451475  3.761191  0.221639
N    -5.068405  4.570568  -0.835128
H    -2.691714  0.918068  0.175242
H    -2.409197  2.071200  1.461953
H    -4.695780  1.859631  2.296157
H    -5.028786  0.472954  1.278619
H    -6.119592  2.405282  0.314617
H    -4.840521  1.903125  -0.785816
H    -3.370416  3.731366  0.018765
H    -4.567438  4.183912  1.241229
H    -6.058253  4.722867  -0.635936
H    -4.637018  5.493459  -0.880495
N    -3.401728  -1.954418  0.898476
C    -3.611354  -1.438744  -0.447302
H    -3.652062  -2.927432  1.050620
H    -2.699409  -1.011626  -0.880908
H    -4.413221  -0.689668  -0.497202
H    -3.908275  -2.282421  -1.079486
