33
Energy: -18208.9226585 eV PBE+vdW (tier 2 basis)
C    -1.922004  1.451712  1.030678
C    -2.894141  1.315643  2.180873
O    -3.161269  2.262754  2.917246
H    -2.421865  1.301093  0.064624
H    -1.108396  0.723004  1.123241
H    -1.514230  2.465432  1.061649
N    -3.541347  0.110626  2.388424
C    -3.346587  -1.234952  1.861729
C    -2.030218  -1.875002  2.366311
O    -1.040131  -1.210588  2.653561
H    -4.105386  0.163538  3.231556
H    -4.168930  -1.803954  2.316529
C    -3.526491  -1.376936  0.314819
C    -2.278032  -1.682767  -0.523379
C    -2.557762  -1.720427  -2.031404
C    -2.854407  -0.355822  -2.656204
N    -3.098605  -0.495114  -4.096653
H    -4.005808  -0.450388  -0.026984
H    -4.264442  -2.172110  0.128906
H    -1.864904  -2.657204  -0.221640
H    -1.484699  -0.951003  -0.315307
H    -3.397889  -2.398464  -2.252441
H    -1.678726  -2.150282  -2.539679
H    -2.026482  0.338430  -2.404894
H    -3.766167  0.073181  -2.213404
H    -3.358977  0.402234  -4.505389
H    -2.246237  -0.793092  -4.573793
N    -2.024908  -3.240066  2.487960
C    -3.057767  -4.191813  2.116907
H    -1.118229  -3.607358  2.761013
H    -4.040556  -3.889446  2.502033
H    -2.817247  -5.161170  2.566585
H    -3.140437  -4.333070  1.027328
