33
Energy: -18209.3766708 eV PBE+vdW (tier 2 basis)
C    -0.155077  -0.414520  -0.212461
C    -0.053164  -0.196805  1.284845
O    1.057001  -0.129137  1.832495
H    0.492775  0.309911  -0.719365
H    -1.173188  -0.331009  -0.611275
H    0.230864  -1.416799  -0.442519
N    -1.241074  -0.102023  1.936505
C    -1.580008  0.008400  3.374240
C    -0.948601  1.160406  4.197737
O    -1.638420  1.670789  5.083901
H    -2.055204  -0.152852  1.336322
H    -2.637694  0.301316  3.360429
C    -1.528398  -1.321036  4.168375
C    -0.155110  -1.945393  4.461028
C    0.333065  -2.948119  3.409309
C    1.783403  -3.395437  3.607008
N    2.696005  -2.246024  3.598515
H    -2.174460  -2.048860  3.649650
H    -2.033193  -1.088278  5.117095
H    -0.213587  -2.466281  5.429667
H    0.603084  -1.162935  4.595748
H    0.239716  -2.518816  2.400680
H    -0.313884  -3.840455  3.419520
H    2.016027  -4.157431  2.836051
H    1.882288  -3.899310  4.583315
H    2.544645  -1.676154  2.763478
H    3.667268  -2.553621  3.591055
N    0.325740  1.510921  3.924928
C    1.017321  2.524768  4.696865
H    0.836158  0.947561  3.231888
H    1.747960  3.035822  4.058796
H    1.545505  2.091076  5.560357
H    0.287659  3.249633  5.074095
