33
Energy: -18209.4070056 eV PBE+vdW (tier 2 basis)
C    1.304091  -0.042652  0.330756
C    0.190105  -0.989664  0.735181
O    0.147592  -2.154388  0.337287
H    1.205631  0.962113  0.759019
H    1.321581  0.031732  -0.763585
H    2.263605  -0.472452  0.644311
N    -0.739609  -0.461651  1.587697
C    -1.954173  -1.166308  1.948600
C    -3.128925  -0.207253  1.706881
O    -2.974905  1.013205  1.793048
H    -0.778992  0.544933  1.733631
H    -2.009442  -2.045744  1.294058
C    -1.958814  -1.594686  3.438365
C    -0.875350  -2.608782  3.839995
C    -1.254088  -4.089856  3.697780
C    -1.433714  -4.609112  2.271526
N    -1.705253  -6.056157  2.296009
H    -2.952857  -1.994269  3.697001
H    -1.841679  -0.672587  4.027655
H    -0.627923  -2.430800  4.897151
H    0.048998  -2.400184  3.279532
H    -2.171852  -4.299769  4.271456
H    -0.459967  -4.688244  4.176888
H    -0.558931  -4.318923  1.662483
H    -2.307457  -4.132382  1.801283
H    -1.822884  -6.405963  1.344518
H    -0.897748  -6.551833  2.678926
N    -4.345584  -0.759795  1.445243
C    -4.661315  -2.164565  1.236034
H    -5.089850  -0.077430  1.342613
H    -5.714325  -2.240651  0.946348
H    -4.519544  -2.766481  2.145470
H    -4.059036  -2.604091  0.428535
