33
Energy: -18209.1568911 eV PBE+vdW (tier 2 basis)
C    -0.341007  0.149275  -0.384530
C    -0.084390  0.100014  1.111708
O    1.056554  0.041177  1.566795
H    -1.031343  0.949583  -0.679862
H    -0.766512  -0.801159  -0.735017
H    0.621539  0.305220  -0.878423
N    -1.167939  0.105089  1.954208
C    -2.596422  0.061637  1.641329
C    -3.271468  1.117900  2.547583
O    -3.732502  0.819340  3.647132
H    -0.914967  0.004255  2.935333
H    -2.706863  0.354362  0.589000
C    -3.260736  -1.308162  1.844657
C    -2.746147  -2.450931  0.957916
C    -1.465531  -3.147095  1.435788
C    -1.123219  -4.404738  0.632151
N    -2.161982  -5.434921  0.780354
H    -4.335584  -1.160850  1.656389
H    -3.188099  -1.579602  2.908161
H    -2.608581  -2.092716  -0.077508
H    -3.530608  -3.218512  0.897324
H    -1.583883  -3.423895  2.498327
H    -0.597971  -2.474220  1.403179
H    -0.112451  -4.747354  0.925486
H    -1.065808  -4.147147  -0.437856
H    -1.985585  -6.216973  0.150568
H    -2.145504  -5.817246  1.727125
N    -3.299920  2.406417  2.091297
C    -2.665048  2.954279  0.904476
H    -3.674190  3.059432  2.772949
H    -3.024208  2.465740  -0.012263
H    -1.567976  2.877296  0.941479
H    -2.929294  4.014422  0.830673
