33
Energy: -18209.6119504 eV PBE+vdW (tier 2 basis)
C    0.753508  2.054139  1.145379
C    0.287682  1.633154  2.522871
O    0.838743  2.049410  3.551486
H    0.195698  1.582699  0.327239
H    1.818524  1.813653  1.041223
H    0.654845  3.143824  1.061007
N    -0.766646  0.776093  2.559686
C    -1.428167  0.340294  3.791187
C    -0.672499  -0.831401  4.490123
O    -1.198046  -1.925456  4.711455
H    -1.134614  0.417010  1.686415
H    -1.369775  1.194700  4.484362
C    -2.896590  -0.001338  3.529303
C    -3.148183  -0.980212  2.371115
C    -4.531050  -1.646860  2.412486
C    -4.750159  -2.568913  3.619238
N    -3.716351  -3.605577  3.692696
H    -3.449723  0.933990  3.353577
H    -3.287701  -0.427700  4.462203
H    -2.384597  -1.771825  2.373983
H    -3.055375  -0.455332  1.404831
H    -4.653850  -2.243762  1.496335
H    -5.320509  -0.876596  2.404681
H    -5.725765  -3.062522  3.497524
H    -4.830725  -1.959585  4.542746
H    -2.848348  -3.210625  4.065765
H    -4.001010  -4.339983  4.339321
N    0.590580  -0.505474  4.854058
C    1.489083  -1.438324  5.503893
H    0.906351  0.444330  4.628394
H    2.386774  -1.612989  4.893859
H    0.958981  -2.386831  5.638880
H    1.802918  -1.061992  6.487678
