33
Energy: -18209.302943 eV PBE+vdW (tier 2 basis)
C    -0.249699  0.575814  0.120739
C    -0.393596  0.629680  1.631243
O    -0.003428  1.586672  2.294469
H    -0.720378  1.467342  -0.310802
H    -0.689673  -0.319191  -0.336965
H    0.817969  0.614312  -0.129600
N    -0.990265  -0.464476  2.202370
C    -1.129113  -0.600493  3.652108
C    -0.975634  -2.082529  4.036451
O    0.027203  -2.512477  4.596069
H    -1.254529  -1.245124  1.613470
H    -0.265355  -0.088732  4.093213
C    -2.422887  0.053846  4.176239
C    -2.628455  -0.065635  5.690259
C    -1.522026  0.580632  6.532176
C    -1.871563  0.675092  8.019398
N    -3.026269  1.559071  8.240202
H    -3.293324  -0.368254  3.643782
H    -2.382971  1.114226  3.885009
H    -2.720061  -1.128038  5.975299
H    -3.586263  0.404421  5.954960
H    -1.310455  1.593935  6.147705
H    -0.582034  0.016837  6.434870
H    -0.966115  0.980948  8.577765
H    -2.144998  -0.324858  8.392310
H    -2.766816  2.528910  8.053068
H    -3.324832  1.523431  9.214405
N    -2.024264  -2.884436  3.664570
C    -2.067359  -4.297763  3.995284
H    -2.888721  -2.431668  3.388590
H    -1.037108  -4.649248  4.112087
H    -2.556260  -4.860078  3.190399
H    -2.602721  -4.485167  4.938857
