33
Energy: -18209.2957123 eV PBE+vdW (tier 2 basis)
C    0.328581  0.592287  0.355886
C    0.109770  0.040225  1.755193
O    1.007985  -0.541246  2.360106
H    -0.534489  1.129608  -0.056430
H    0.583130  -0.240071  -0.312175
H    1.192164  1.268035  0.378220
N    -1.140624  0.264844  2.271079
C    -1.684625  -0.301920  3.514472
C    -3.072750  0.293078  3.804375
O    -3.934548  -0.368213  4.373529
H    -1.834859  0.592337  1.607731
H    -1.861628  -1.380655  3.382900
C    -0.771802  -0.134789  4.752412
C    -0.313759  1.297199  5.056026
C    0.802144  1.381762  6.113519
C    2.229518  1.196542  5.583544
N    2.507615  -0.164521  5.111717
H    0.092579  -0.793191  4.628964
H    -1.343624  -0.529865  5.605464
H    -1.175997  1.889947  5.400574
H    0.043451  1.784172  4.132145
H    0.618218  0.644214  6.911059
H    0.759168  2.375057  6.587763
H    2.924410  1.408704  6.410036
H    2.415753  1.976474  4.814267
H    2.120539  -0.317779  4.176994
H    3.513701  -0.305616  5.029913
N    -3.263948  1.589306  3.403125
C    -4.472819  2.320509  3.739203
H    -2.443714  2.116128  3.121566
H    -4.725851  3.021888  2.935011
H    -4.368044  2.878867  4.682190
H    -5.284707  1.596327  3.860897
