33
Energy: -18209.1163935 eV PBE+vdW (tier 2 basis)
C    0.796518  -1.710699  0.543701
C    0.410779  -0.461137  1.306797
O    0.983588  0.612850  1.131274
H    -0.062479  -2.302118  0.207925
H    1.409895  -2.365811  1.178649
H    1.396626  -1.401706  -0.316271
N    -0.588821  -0.546781  2.251818
C    -1.471807  -1.655848  2.624158
C    -0.682747  -2.950950  2.941079
O    -0.865422  -3.995601  2.320612
H    -0.772485  0.352450  2.687090
H    -1.928394  -1.338968  3.577598
C    -2.614765  -1.903290  1.628680
C    -3.792327  -2.681279  2.221806
C    -4.949400  -2.844377  1.231148
C    -6.178854  -3.539942  1.817622
N    -5.908219  -4.950372  2.125582
H    -2.225764  -2.440592  0.752379
H    -2.958501  -0.917698  1.278898
H    -4.159706  -2.157142  3.122988
H    -3.433250  -3.668641  2.547055
H    -4.606130  -3.417672  0.355705
H    -5.255207  -1.850206  0.865192
H    -6.986550  -3.518828  1.071151
H    -6.540167  -2.953063  2.688349
H    -6.761586  -5.419928  2.427133
H    -5.246222  -5.034124  2.897377
N    0.226430  -2.884308  3.959731
C    0.585028  -1.752671  4.798825
H    0.728622  -3.755767  4.097150
H    -0.306874  -1.209508  5.138851
H    1.249102  -1.040302  4.288670
H    1.095737  -2.131571  5.691187
