33
Energy: -18209.2041154 eV PBE+vdW (tier 2 basis)
C    -0.768568  0.107431  -0.663787
C    -0.181042  0.340491  0.715538
O    1.010321  0.585648  0.888838
H    -1.598555  0.796965  -0.872723
H    -1.159051  -0.913977  -0.768085
H    0.024254  0.263375  -1.399522
N    -1.041310  0.266867  1.787610
C    -2.498820  0.107386  1.758439
C    -3.095077  0.674436  3.057044
O    -4.026230  1.477193  3.051858
H    -0.612128  0.560987  2.660524
H    -2.915022  0.742606  0.963283
C    -2.950020  -1.366113  1.521254
C    -4.140890  -1.518626  0.564716
C    -5.495097  -0.934933  0.999480
C    -6.191429  -1.626501  2.176232
N    -5.543609  -1.327835  3.464879
H    -3.186784  -1.842133  2.482728
H    -2.090470  -1.906653  1.100609
H    -4.273056  -2.593721  0.359202
H    -3.866568  -1.062660  -0.401729
H    -6.173945  -0.999130  0.134918
H    -5.400052  0.140190  1.221886
H    -6.160480  -2.718696  2.028482
H    -7.260703  -1.338967  2.156484
H    -6.064826  -1.763439  4.226139
H    -5.567675  -0.318932  3.630615
N    -2.509186  0.220853  4.204997
C    -3.049923  0.539334  5.514153
H    -1.909879  -0.595017  4.134175
H    -2.245451  0.541403  6.258722
H    -3.823600  -0.182104  5.820456
H    -3.503490  1.534353  5.467931
