33
Energy: -18209.1199078 eV PBE+vdW (tier 2 basis)
C    0.673112  0.118453  1.314444
C    -0.105651  0.483594  2.556681
O    0.465261  0.884036  3.577714
H    1.649328  -0.261546  1.632749
H    0.855132  1.029701  0.725250
H    0.156887  -0.620310  0.694244
N    -1.479380  0.362571  2.569406
C    -2.451213  0.447376  1.480783
C    -2.686206  -0.885837  0.748074
O    -1.789880  -1.686548  0.496940
H    -1.848579  0.773964  3.430964
H    -3.384205  0.699908  2.003527
C    -2.187992  1.582097  0.456884
C    -1.864102  2.932633  1.111407
C    -2.973782  3.503520  2.024723
C    -2.494990  3.967740  3.405147
N    -2.048074  2.846511  4.251859
H    -3.079730  1.677571  -0.183919
H    -1.368061  1.286526  -0.212328
H    -1.636170  3.651198  0.311198
H    -0.929338  2.832140  1.681753
H    -3.762711  2.752326  2.187345
H    -3.463358  4.351883  1.523079
H    -3.338367  4.454546  3.915978
H    -1.716949  4.744985  3.278653
H    -1.060141  2.619373  4.103861
H    -2.128147  3.095750  5.236481
N    -3.971569  -1.121061  0.334571
C    -5.176643  -0.366577  0.638931
H    -4.072585  -2.001229  -0.160956
H    -5.409370  -0.360455  1.714876
H    -6.017749  -0.838007  0.119475
H    -5.116535  0.673384  0.287304
