33
Energy: -18209.525154 eV PBE+vdW (tier 2 basis)
C    0.018532  -0.758834  0.376831
C    -0.217845  -0.995172  1.853699
O    0.706935  -0.964449  2.675122
H    0.746688  -1.493474  0.011558
H    0.465010  0.235211  0.248898
H    -0.891532  -0.821184  -0.232187
N    -1.506223  -1.238096  2.220895
C    -1.923157  -1.435823  3.610653
C    -1.709043  -2.914865  4.038135
O    -2.643450  -3.695469  4.210677
H    -2.212740  -1.337206  1.500390
H    -1.248872  -0.810867  4.217428
C    -3.369665  -0.992845  3.811386
C    -3.577848  0.516487  3.644693
C    -5.044364  0.962944  3.694505
C    -5.729988  0.758210  5.045561
N    -7.084824  1.329037  5.023004
H    -3.676412  -1.323826  4.812081
H    -4.018123  -1.552545  3.116418
H    -3.146950  0.843462  2.685270
H    -3.005932  1.049875  4.422975
H    -5.613999  0.425186  2.915615
H    -5.113707  2.031182  3.440071
H    -5.157878  1.292241  5.821189
H    -5.708907  -0.313864  5.320247
H    -7.527116  1.230052  5.937043
H    -7.671951  0.811826  4.366245
N    -0.395955  -3.231613  4.193507
C    0.052281  -4.576271  4.495387
H    0.283346  -2.515862  3.922695
H    -0.822788  -5.170756  4.778571
H    0.767920  -4.567931  5.328286
H    0.532555  -5.048761  3.625154
