33
Energy: -18209.225797 eV PBE+vdW (tier 2 basis)
C    0.646469  -0.776388  0.774330
C    0.734237  -1.056830  2.264429
O    1.702570  -1.622712  2.765689
H    0.615507  0.302530  0.564855
H    -0.247223  -1.228460  0.323250
H    1.537918  -1.198514  0.303669
N    -0.310753  -0.633647  3.049223
C    -1.576677  -0.040311  2.630269
C    -1.995963  1.063968  3.633094
O    -3.080119  1.044742  4.217127
H    -0.220077  -0.915464  4.022206
H    -1.391649  0.473473  1.673736
C    -2.702510  -1.063844  2.414011
C    -2.894739  -2.060187  3.564854
C    -4.230678  -2.814159  3.516707
C    -5.469364  -1.922811  3.673701
N    -5.409545  -1.137476  4.910877
H    -2.491558  -1.614250  1.483601
H    -3.627156  -0.496645  2.239179
H    -2.831525  -1.535653  4.529748
H    -2.072593  -2.791402  3.555822
H    -4.235354  -3.557844  4.327623
H    -4.314389  -3.372109  2.568829
H    -6.355526  -2.572785  3.723929
H    -5.598502  -1.302718  2.762614
H    -4.748753  -0.363116  4.808060
H    -6.317764  -0.718292  5.106068
N    -1.111012  2.082073  3.841857
C    0.160463  2.349478  3.187661
H    -1.443934  2.756550  4.523621
H    0.414202  3.403292  3.347156
H    0.093972  2.189360  2.103313
H    0.976783  1.727551  3.579511
