33
Energy: -18209.0788298 eV PBE+vdW (tier 2 basis)
C    -0.583475  -2.726242  -0.591982
C    0.214481  -1.607919  0.047060
O    1.335476  -1.297505  -0.357436
H    -0.101097  -2.988843  -1.537056
H    -0.580055  -3.603107  0.070243
H    -1.630432  -2.456762  -0.780792
N    -0.329972  -0.958048  1.125553
C    -1.694824  -0.969492  1.638609
C    -2.103154  -2.403474  2.080897
O    -1.329102  -3.101635  2.725863
H    0.304468  -0.272456  1.521504
H    -1.631906  -0.430468  2.597765
C    -2.708940  -0.190456  0.767279
C    -2.256007  1.229701  0.378105
C    -1.312669  1.304793  -0.845676
C    -0.012359  2.086075  -0.582801
N    1.037064  1.971427  -1.590516
H    -3.645528  -0.113543  1.343206
H    -2.943882  -0.749151  -0.153800
H    -1.767430  1.697358  1.250241
H    -3.153212  1.836027  0.192570
H    -1.839671  1.762099  -1.697754
H    -1.038647  0.294016  -1.176899
H    0.421051  1.747078  0.371546
H    -0.248919  3.153680  -0.440738
H    0.687156  2.219769  -2.516436
H    1.366494  1.004975  -1.636507
N    -3.363259  -2.799966  1.741931
C    -3.897164  -4.096756  2.114132
H    -3.930625  -2.184052  1.173966
H    -4.842838  -3.990521  2.662580
H    -3.159325  -4.584503  2.759430
H    -4.067656  -4.728086  1.230316
