33
Energy: -18209.0163129 eV PBE+vdW (tier 2 basis)
C    -0.453477  -1.087264  -0.029784
C    -1.038406  -1.111935  1.372541
O    -0.999862  -0.124272  2.105054
H    0.595902  -0.775111  0.032487
H    -0.985859  -0.327317  -0.616336
H    -0.513095  -2.046827  -0.558572
N    -1.640516  -2.288830  1.724712
C    -2.116312  -2.618000  3.077741
C    -2.532134  -4.096259  3.174679
O    -2.284730  -4.716510  4.205627
H    -1.453561  -3.081540  1.120960
H    -1.256414  -2.561669  3.763011
C    -3.184115  -1.684529  3.703277
C    -4.556495  -1.539408  3.030439
C    -4.618347  -0.698192  1.740305
C    -4.760397  0.813905  1.951576
N    -3.706315  1.363876  2.806327
H    -2.735365  -0.694816  3.833367
H    -3.333267  -2.092893  4.714431
H    -5.224884  -1.072295  3.771058
H    -4.988582  -2.534850  2.844517
H    -5.485010  -1.020562  1.141378
H    -3.735950  -0.891299  1.112157
H    -5.726115  1.008670  2.447609
H    -4.824430  1.289117  0.950445
H    -3.801684  2.374593  2.892442
H    -2.777191  1.173253  2.422338
N    -3.118868  -4.743614  2.108260
C    -3.891288  -4.229716  0.983115
H    -3.294419  -5.716586  2.350500
H    -4.973352  -4.322889  1.161488
H    -3.642269  -4.789181  0.070360
H    -3.671247  -3.174534  0.810457
