33
Energy: -18209.3233939 eV PBE+vdW (tier 2 basis)
C    0.727246  1.711724  0.196633
C    0.570008  1.389979  1.669989
O    1.561578  1.143282  2.369411
H    -0.172249  2.135135  -0.266575
H    0.987130  0.784369  -0.332573
H    1.563326  2.408686  0.073492
N    -0.713596  1.385182  2.123480
C    -1.294147  0.965004  3.417506
C    -0.763594  1.619405  4.719405
O    -1.561342  1.772807  5.648113
H    -1.409418  1.621203  1.426365
H    -2.319159  1.356314  3.379696
C    -1.435913  -0.566264  3.592891
C    -0.144966  -1.405875  3.635706
C    0.289397  -1.992459  2.283730
C    -0.541314  -3.197255  1.843604
N    -0.162868  -3.619814  0.488307
H    -2.097967  -0.934671  2.792934
H    -1.997536  -0.689879  4.529684
H    -0.294728  -2.237112  4.342976
H    0.674676  -0.806820  4.053376
H    1.347822  -2.293123  2.346203
H    0.240242  -1.233799  1.490296
H    -1.608910  -2.926564  1.814844
H    -0.443715  -3.995799  2.607040
H    0.810052  -3.930862  0.476307
H    -0.722756  -4.419508  0.192139
N    0.540643  1.957104  4.780982
C    1.111513  2.529142  5.985447
H    1.141845  1.685005  3.989989
H    2.095313  2.947272  5.746374
H    1.226857  1.777696  6.781804
H    0.462041  3.324353  6.371924
