33
Energy: -18209.3890895 eV PBE+vdW (tier 2 basis)
C    0.996240  1.343769  0.808838
C    0.176732  0.879603  1.998034
O    -0.043517  1.610092  2.965005
H    1.202273  0.551234  0.079232
H    1.943092  1.759495  1.172711
H    0.453317  2.154661  0.305635
N    -0.324992  -0.386191  1.896382
C    -1.044181  -1.035095  2.975127
C    -0.512941  -2.474788  3.068163
O    -0.068090  -3.059465  2.079995
H    -0.010974  -1.011816  1.158174
H    -0.811018  -0.471478  3.892685
C    -2.579613  -1.054618  2.778004
C    -3.227749  0.345065  2.745054
C    -3.318331  1.010714  1.356748
C    -4.606925  0.716891  0.586106
N    -4.746381  -0.705297  0.229463
H    -3.007055  -1.636158  3.610000
H    -2.803591  -1.611335  1.855896
H    -2.667546  1.002916  3.424472
H    -4.244398  0.274247  3.167247
H    -2.459767  0.712441  0.738888
H    -3.249761  2.101692  1.482501
H    -4.587013  1.285112  -0.355705
H    -5.466388  1.107334  1.169489
H    -4.988621  -1.260037  1.051575
H    -5.519796  -0.826784  -0.424507
N    -0.612414  -3.046715  4.299411
C    -0.234861  -4.421985  4.566223
H    -0.948296  -2.473639  5.064197
H    -1.089907  -5.005390  4.935368
H    0.578003  -4.475174  5.303583
H    0.113068  -4.856189  3.623261
