33
Energy: -18209.3357325 eV PBE+vdW (tier 2 basis)
C    -1.066212  0.935084  -1.304617
C    -0.578823  1.123353  0.124071
O    0.554182  1.527249  0.374512
H    -1.894123  1.620686  -1.536680
H    -1.416924  -0.088853  -1.493879
H    -0.230838  1.155328  -1.974103
N    -1.467684  0.843801  1.128589
C    -2.808237  0.294069  1.023108
C    -3.609681  0.851868  2.212465
O    -3.128581  0.870805  3.343492
H    -1.122906  0.976788  2.078227
H    -3.260386  0.638277  0.080114
C    -2.816029  -1.251524  1.053693
C    -4.196130  -1.884906  0.869391
C    -4.146378  -3.413135  0.804122
C    -5.526044  -4.054337  0.665919
N    -5.413692  -5.513662  0.557589
H    -2.374038  -1.570334  2.010077
H    -2.134858  -1.601794  0.262827
H    -4.659098  -1.497574  -0.056174
H    -4.859614  -1.577969  1.694138
H    -3.658543  -3.798002  1.716252
H    -3.519713  -3.740436  -0.039965
H    -6.004129  -3.690204  -0.257541
H    -6.166388  -3.713785  1.505581
H    -5.050673  -5.907344  1.427114
H    -6.330769  -5.935276  0.411443
N    -4.865893  1.286693  1.917581
C    -5.787907  1.773386  2.927340
H    -5.178753  1.224469  0.956554
H    -6.127900  2.790857  2.692524
H    -5.252031  1.787407  3.882061
H    -6.664198  1.116022  3.019119
