33
Energy: -18209.5588589 eV PBE+vdW (tier 2 basis)
C    -0.454614  0.118992  -0.398113
C    -0.341506  -0.153581  1.086889
O    0.716824  -0.534557  1.601480
H    -1.448149  0.463529  -0.709629
H    -0.204289  -0.797546  -0.946633
H    0.288781  0.877615  -0.672677
N    -1.471804  0.050262  1.819736
C    -1.518469  -0.125719  3.272128
C    -1.748443  -1.619210  3.627499
O    -2.831106  -2.047511  4.033743
H    -2.334981  0.288983  1.344236
H    -0.516776  0.152707  3.630076
C    -2.573407  0.812243  3.863881
C    -2.795460  0.769890  5.385116
C    -1.573596  0.994294  6.289947
C    -0.669562  -0.232666  6.552778
N    -1.305310  -1.439916  7.081659
H    -3.539831  0.591940  3.381487
H    -2.290993  1.834378  3.563646
H    -3.279847  -0.180628  5.648060
H    -3.537869  1.550650  5.608700
H    -1.939619  1.348280  7.267963
H    -0.948774  1.813979  5.892979
H    0.114679  0.072937  7.263076
H    -0.133049  -0.525195  5.638982
H    -1.817768  -1.233779  7.940206
H    -1.981374  -1.818954  6.416475
N    -0.637662  -2.378016  3.454562
C    -0.613041  -3.805876  3.702214
H    0.166582  -1.919826  3.019702
H    -1.627227  -4.123551  3.966276
H    0.061607  -4.049758  4.535059
H    -0.284945  -4.352391  2.807498
