33
Energy: -18209.1232882 eV PBE+vdW (tier 2 basis)
C    -0.112868  -0.195487  -0.095995
C    -0.002215  -0.079697  1.416779
O    1.092739  -0.022691  1.973710
H    0.455729  0.624022  -0.551823
H    -1.140919  -0.175185  -0.478554
H    0.361700  -1.134557  -0.407781
N    -1.205640  -0.043846  2.070850
C    -1.502544  -0.027185  3.510199
C    -2.040676  1.341468  4.005187
O    -3.169905  1.388963  4.498668
H    -2.028068  -0.069581  1.479614
H    -2.393988  -0.660626  3.624871
C    -0.418700  -0.625694  4.423790
C    -0.921653  -0.804259  5.859191
C    0.134856  -1.415604  6.781152
C    -0.330558  -1.598979  8.236266
N    -0.655957  -0.389089  8.997291
H    0.491155  -0.014810  4.418665
H    -0.125312  -1.600225  4.005055
H    -1.824988  -1.437713  5.862801
H    -1.239702  0.171968  6.258708
H    1.041932  -0.786288  6.771178
H    0.443584  -2.398873  6.386381
H    0.449801  -2.140230  8.792878
H    -1.220933  -2.248047  8.255052
H    -1.436668  0.111406  8.572030
H    0.135938  0.255629  9.001849
N    -1.267382  2.461203  3.926330
C    0.028467  2.679271  3.305926
H    -1.762081  3.281116  4.267625
H    0.624632  3.353743  3.934265
H    -0.070490  3.132723  2.306767
H    0.581636  1.742325  3.191718
