33
Energy: -18209.3420664 eV PBE+vdW (tier 2 basis)
C    -0.097063  0.838344  0.390226
C    -0.089020  -0.398365  1.266267
O    0.895692  -1.122707  1.384483
H    -0.344576  1.742749  0.962845
H    -0.844107  0.752355  -0.411581
H    0.895350  0.948421  -0.053664
N    -1.253247  -0.683292  1.947877
C    -2.534343  0.012085  1.873607
C    -2.522301  1.390711  2.568928
O    -3.222904  2.313094  2.153266
H    -1.225790  -1.567916  2.449128
H    -2.784812  0.240224  0.825974
C    -3.610157  -0.939687  2.438848
C    -5.055471  -0.413800  2.474790
C    -5.478966  0.431300  3.688323
C    -5.433497  -0.264626  5.052643
N    -4.056821  -0.389362  5.568726
H    -3.311891  -1.245329  3.453342
H    -3.578162  -1.836141  1.800136
H    -5.722003  -1.290072  2.428433
H    -5.256994  0.165702  1.560468
H    -6.517862  0.752016  3.514990
H    -4.895793  1.363323  3.732983
H    -5.847289  -1.282525  4.963713
H    -6.101436  0.284264  5.744018
H    -3.648358  0.540988  5.674767
H    -4.065275  -0.808584  6.499184
N    -1.712697  1.482183  3.657990
C    -1.569653  2.695721  4.434776
H    -1.133431  0.676844  3.870302
H    -1.806795  2.521378  5.494363
H    -2.269261  3.434192  4.028171
H    -0.548813  3.098760  4.368898
