33
Energy: -18209.6412243 eV PBE+vdW (tier 2 basis)
C    0.120949  -0.695436  0.263729
C    0.229642  -0.356396  1.738642
O    1.333909  -0.100964  2.246841
H    0.466212  0.163683  -0.325457
H    -0.895851  -0.959575  -0.050495
H    0.797193  -1.531544  0.046657
N    -0.947528  -0.331174  2.410726
C    -1.148173  -0.296167  3.865823
C    -0.753545  0.994593  4.619202
O    -1.515896  1.430992  5.486807
H    -1.764035  -0.741954  1.939189
H    -2.238559  -0.308340  3.985537
C    -0.578295  -1.544593  4.571501
C    -1.086477  -2.870191  3.988649
C    -2.613774  -3.107203  4.076976
C    -3.346087  -3.215135  2.735492
N    -3.447017  -1.919439  2.025878
H    -0.848120  -1.469310  5.636070
H    0.519325  -1.521625  4.517175
H    -0.564474  -3.684198  4.511047
H    -0.766501  -2.946145  2.937678
H    -3.091835  -2.320334  4.684677
H    -2.806347  -4.042898  4.621478
H    -4.339236  -3.668730  2.906845
H    -2.794151  -3.904467  2.078489
H    -4.106147  -1.313119  2.519434
H    -3.850674  -2.066664  1.099592
N    0.443792  1.535190  4.299906
C    0.957050  2.720028  4.955242
H    1.004332  1.038493  3.591582
H    1.272736  3.466658  4.213674
H    1.817930  2.483104  5.598663
H    0.160954  3.141732  5.578401
