33
Energy: -18209.4407814 eV PBE+vdW (tier 2 basis)
C    1.940427  -0.699299  0.953257
C    1.126172  -0.709101  2.233689
O    1.490191  -1.327583  3.234234
H    1.486908  -0.109589  0.147406
H    2.072655  -1.733798  0.612992
H    2.937581  -0.297557  1.172401
N    -0.020732  0.034486  2.198469
C    -0.997119  0.002635  3.270193
C    -2.383149  -0.114435  2.613542
O    -2.575305  0.250550  1.452366
H    -0.390639  0.364698  1.308916
H    -0.774998  -0.890505  3.876732
C    -0.950165  1.252367  4.177818
C    0.420468  1.506510  4.818410
C    0.389178  2.617012  5.886630
C    0.190423  2.123518  7.323141
N    -1.055089  1.353118  7.500847
H    -1.713618  1.149216  4.963403
H    -1.243409  2.131276  3.580548
H    1.133116  1.772951  4.025428
H    0.812242  0.571327  5.251099
H    -0.401960  3.344019  5.642143
H    1.338689  3.173408  5.865138
H    0.132206  2.997381  7.988431
H    1.091278  1.555293  7.628360
H    -1.260742  1.256231  8.495272
H    -0.926967  0.400912  7.154710
N    -3.363077  -0.607871  3.416973
C    -4.752702  -0.696123  3.008982
H    -3.112780  -0.884846  4.358646
H    -5.390690  -0.039449  3.617345
H    -5.122326  -1.727319  3.089502
H    -4.810086  -0.377781  1.963085
