33
Energy: -18209.1510367 eV PBE+vdW (tier 2 basis)
C    0.154995  0.184498  0.062540
C    -0.026341  -0.115439  1.537077
O    0.932381  -0.223630  2.302113
H    -0.546544  0.936426  -0.316574
H    0.000993  -0.727285  -0.532011
H    1.182926  0.526441  -0.084290
N    -1.302517  -0.308482  2.008483
C    -2.604745  -0.142677  1.363226
C    -2.727300  -0.923560  0.038746
O    -3.006075  -0.375941  -1.027188
H    -1.330541  -0.472733  3.011662
H    -3.299359  -0.606900  2.080145
C    -3.041102  1.322303  1.206973
C    -4.565124  1.530152  1.165514
C    -5.287203  1.684828  2.515622
C    -5.453284  0.451407  3.410052
N    -4.197746  0.041626  4.069870
H    -2.600481  1.724360  0.285321
H    -2.611415  1.886659  2.047454
H    -5.034232  0.721394  0.582533
H    -4.763670  2.445500  0.588587
H    -6.302228  2.057770  2.307208
H    -4.799356  2.484153  3.102470
H    -5.805097  -0.397306  2.800701
H    -6.257512  0.666316  4.138567
H    -4.384473  -0.698032  4.747991
H    -3.819852  0.826134  4.604395
N    -2.536560  -2.276642  0.104267
C    -2.234936  -3.100836  1.262700
H    -2.605355  -2.731310  -0.800489
H    -2.821879  -2.785418  2.135161
H    -1.170654  -3.072961  1.538079
H    -2.512299  -4.136581  1.034761
