33
Energy: -18209.486122 eV PBE+vdW (tier 2 basis)
C    2.081640  -0.217421  1.885760
C    0.573211  -0.232988  2.050107
O    -0.178632  -0.600896  1.153460
H    2.611451  0.291345  2.701025
H    2.330357  0.266966  0.934573
H    2.437734  -1.254508  1.827494
N    0.112847  0.208899  3.272039
C    -1.275238  0.044232  3.688597
C    -2.001328  1.375273  3.976714
O    -3.095728  1.388461  4.535479
H    0.801904  0.336293  4.006983
H    -1.786149  -0.379241  2.809127
C    -1.403236  -0.918822  4.879430
C    -0.942129  -2.351005  4.595357
C    -1.751028  -3.076455  3.515104
C    -1.408940  -4.563152  3.392271
N    -1.745248  -5.294132  4.623748
H    -2.457145  -0.905740  5.189066
H    -0.834733  -0.504960  5.730282
H    -1.004117  -2.929890  5.527720
H    0.124041  -2.357489  4.308705
H    -1.593351  -2.607367  2.532097
H    -2.828995  -2.973812  3.733701
H    -0.324745  -4.673129  3.229399
H    -1.903720  -4.966757  2.487974
H    -2.758953  -5.335848  4.741028
H    -1.422135  -6.259601  4.567589
N    -1.358243  2.495620  3.545404
C    -1.945801  3.816836  3.634852
H    -0.488557  2.360096  3.042281
H    -2.214424  4.207341  2.642321
H    -1.256845  4.522349  4.118801
H    -2.856763  3.733502  4.237512
