33
Energy: -18209.1090637 eV PBE+vdW (tier 2 basis)
C    0.956532  0.699871  -0.016199
C    0.711215  0.393722  1.451117
O    1.507134  -0.250734  2.128610
H    0.190438  1.339921  -0.471695
H    1.004017  -0.247218  -0.568530
H    1.934161  1.186552  -0.115803
N    -0.456036  0.898369  1.966262
C    -0.918459  0.549764  3.314205
C    -2.450925  0.655712  3.375617
O    -3.128106  -0.324288  3.679833
H    -1.136508  1.271820  1.315080
H    -0.714260  -0.519214  3.468644
C    -0.152050  1.321477  4.414354
C    -0.495859  0.870908  5.845781
C    -1.750051  1.484968  6.496874
C    -1.546827  2.841308  7.176432
N    -1.214640  3.927399  6.233822
H    -0.301427  2.400529  4.287897
H    0.909796  1.119317  4.220676
H    0.370723  1.078423  6.495145
H    -0.597734  -0.225306  5.841533
H    -2.110380  0.791305  7.272034
H    -2.570066  1.567232  5.769820
H    -0.792460  2.726448  7.980252
H    -2.487848  3.123219  7.671204
H    -1.295108  4.828519  6.705776
H    -0.238695  3.856633  5.942328
N    -3.052533  1.842568  3.030949
C    -2.490607  3.190895  2.970102
H    -4.061973  1.782530  3.137223
H    -3.182036  3.825089  2.402391
H    -1.530460  3.194185  2.441831
H    -2.334197  3.627142  3.970192
