33
Energy: -18209.249551 eV PBE+vdW (tier 2 basis)
C    -0.191116  0.003715  -0.364055
C    0.109847  -0.005143  1.127255
O    1.261902  -0.049649  1.552839
H    0.760690  -0.055459  -0.898070
H    -0.708012  0.927340  -0.663182
H    -0.823192  -0.842914  -0.664709
N    -0.957824  0.049359  1.983214
C    -2.368144  0.133516  1.663875
C    -3.043385  0.867124  2.839414
O    -2.505542  0.919510  3.945265
H    -0.738978  0.141467  2.975479
H    -2.497638  0.727926  0.746565
C    -3.029565  -1.253195  1.437686
C    -3.029403  -2.165733  2.664268
C    -3.640930  -3.539252  2.375532
C    -3.610467  -4.491070  3.572856
N    -4.440175  -3.993836  4.680460
H    -2.491006  -1.743909  0.612223
H    -4.061529  -1.109061  1.081216
H    -3.586516  -1.676785  3.478515
H    -1.995805  -2.290517  3.025316
H    -3.097816  -4.012701  1.540815
H    -4.687408  -3.418803  2.051201
H    -2.554681  -4.675395  3.857822
H    -4.024873  -5.461391  3.262868
H    -4.554141  -4.718647  5.388477
H    -3.983518  -3.211053  5.149643
N    -4.269540  1.423975  2.624742
C    -5.063377  1.467889  1.409563
H    -4.674358  1.819578  3.468202
H    -5.685359  2.370725  1.421743
H    -5.724538  0.593961  1.303365
H    -4.420532  1.524653  0.523534
