33
Energy: -18209.1379593 eV PBE+vdW (tier 2 basis)
C    -1.535019  0.464957  -0.063581
C    -1.152628  0.665942  1.392559
O    -0.198555  1.379518  1.714486
H    -1.775773  1.444029  -0.496289
H    -2.394594  -0.201502  -0.202342
H    -0.669481  0.069523  -0.609993
N    -1.947278  0.028612  2.292231
C    -1.703531  0.048786  3.730633
C    -1.516276  1.512222  4.220471
O    -2.498458  2.251392  4.178648
H    -2.564601  -0.715008  1.952406
H    -2.679160  -0.186818  4.183931
C    -0.730078  -1.050135  4.199996
C    -1.345695  -2.470485  4.155950
C    -0.859871  -3.412824  3.042909
C    -1.157567  -3.024317  1.593303
N    -2.592960  -2.760254  1.368380
H    -0.450947  -0.825393  5.238974
H    0.197500  -1.013683  3.611847
H    -2.443591  -2.390304  4.115958
H    -1.128971  -2.974292  5.109050
H    -1.294507  -4.410151  3.230147
H    0.230224  -3.546438  3.130799
H    -0.766026  -3.825985  0.941386
H    -0.604925  -2.110489  1.328555
H    -3.155483  -3.523535  1.749383
H    -2.791212  -2.738128  0.367374
N    -0.359600  1.931311  4.823610
C    1.011949  1.482274  4.606088
H    -0.464774  2.896582  5.122653
H    1.295473  0.660880  5.279212
H    1.679310  2.326289  4.813857
H    1.158997  1.182611  3.561679
