33
Energy: -18209.0684561 eV PBE+vdW (tier 2 basis)
C    1.535491  -0.261081  0.246214
C    1.162302  -0.227177  1.720437
O    2.012664  -0.370961  2.597439
H    2.386770  0.410071  0.083937
H    0.720538  0.018679  -0.433061
H    1.867492  -1.277144  -0.004469
N    -0.171874  -0.031972  1.960837
C    -0.928677  -0.057372  3.219329
C    -1.406006  1.331984  3.713737
O    -2.600578  1.475826  3.983329
H    -0.747796  0.088671  1.136286
H    -1.889327  -0.525959  2.964452
C    -0.322395  -0.876500  4.372666
C    -0.132983  -2.377399  4.105189
C    -1.409705  -3.175794  3.780876
C    -1.693663  -3.358816  2.288688
N    -2.888297  -4.188336  2.092423
H    -1.022407  -0.750615  5.213839
H    0.636489  -0.447559  4.684266
H    0.325000  -2.796441  5.012820
H    0.616437  -2.520881  3.312390
H    -2.281335  -2.697660  4.262010
H    -1.343641  -4.181293  4.221049
H    -0.842268  -3.885228  1.828852
H    -1.751567  -2.371951  1.787580
H    -3.715122  -3.710295  2.454176
H    -3.058319  -4.349967  1.099855
N    -0.525259  2.358724  3.873760
C    0.905452  2.429247  3.630019
H    -0.989340  3.207232  4.185315
H    1.361787  3.091103  4.376556
H    1.134401  2.827082  2.628380
H    1.377870  1.445675  3.716225
