33
Energy: -18209.4884544 eV PBE+vdW (tier 2 basis)
C    0.285582  -1.032244  0.099000
C    0.176473  -0.425067  1.483571
O    1.172230  -0.301242  2.208902
H    -0.652855  -1.021899  -0.468396
H    0.625672  -2.070896  0.200734
H    1.054285  -0.490754  -0.465153
N    -1.071419  -0.031659  1.857950
C    -1.498047  0.451985  3.181059
C    -1.018962  1.874023  3.564748
O    -1.830560  2.681638  4.020689
H    -1.808633  -0.150591  1.174793
H    -2.584339  0.573706  3.098277
C    -1.200437  -0.543505  4.322457
C    -1.787974  -1.946115  4.119219
C    -3.312621  -2.023807  3.941490
C    -4.136450  -1.411437  5.078208
N    -3.891770  -2.103288  6.352390
H    -1.596902  -0.082938  5.240293
H    -0.114268  -0.625337  4.459034
H    -1.491106  -2.568232  4.977830
H    -1.307605  -2.416992  3.247645
H    -3.595689  -3.082305  3.839454
H    -3.609559  -1.532884  2.999517
H    -5.202442  -1.535378  4.838016
H    -3.956632  -0.319159  5.126114
H    -4.554557  -1.783510  7.058397
H    -2.965023  -1.875875  6.714724
N    0.305828  2.111710  3.408880
C    0.915254  3.376012  3.768646
H    0.883412  1.334529  3.068269
H    1.489591  3.785774  2.926503
H    1.589918  3.264475  4.630388
H    0.117069  4.076455  4.036376
