33
Energy: -18209.455794 eV PBE+vdW (tier 2 basis)
C    -0.456452  -0.562771  -0.337278
C    -0.401994  -0.675476  1.171555
O    0.669380  -0.811153  1.776689
H    -1.472337  -0.452795  -0.735730
H    0.007252  -1.454650  -0.776448
H    0.143009  0.302916  -0.645712
N    -1.597265  -0.609552  1.819524
C    -1.717060  -0.646347  3.280869
C    -1.712190  -2.130199  3.753170
O    -2.732553  -2.713474  4.114539
H    -2.452807  -0.570192  1.277032
H    -0.806198  -0.160355  3.662823
C    -2.970551  0.107674  3.734727
C    -2.889685  0.826843  5.091527
C    -2.772825  -0.035033  6.361739
C    -1.371852  -0.533289  6.732827
N    -0.443739  0.582460  6.983991
H    -3.811231  -0.603153  3.741035
H    -3.189435  0.872513  2.973456
H    -3.811045  1.422148  5.179919
H    -2.076652  1.571932  5.064329
H    -3.439988  -0.905772  6.271739
H    -3.135378  0.565794  7.209431
H    -0.999694  -1.250118  5.979835
H    -1.457095  -1.101260  7.670936
H    0.422256  0.230835  7.392210
H    -0.174882  1.032802  6.108351
N    -0.476795  -2.694323  3.702578
C    -0.248807  -4.094762  3.997897
H    0.256407  -2.143148  3.248479
H    0.662467  -4.213117  4.598034
H    -0.146724  -4.696175  3.081347
H    -1.107399  -4.470487  4.564362
