33
Energy: -18208.774131 eV PBE+vdW (tier 2 basis)
C    -0.932802  -0.332468  -0.936721
C    -0.424324  -0.625210  0.462165
O    0.735872  -0.972785  0.666518
H    -0.083288  -0.399280  -1.621090
H    -1.377137  0.668307  -1.015518
H    -1.691301  -1.067721  -1.238451
N    -1.300010  -0.496612  1.514984
C    -2.729854  -0.182226  1.533209
C    -3.528480  -1.242427  0.716743
O    -3.412891  -2.418104  1.056479
H    -0.897246  -0.837133  2.381756
H    -3.042495  -0.456121  2.549478
C    -3.019289  1.323529  1.370353
C    -2.373346  2.205693  2.456171
C    -3.195900  2.420230  3.734882
C    -3.450997  1.182353  4.597708
N    -4.113932  1.567340  5.847965
H    -4.109075  1.479654  1.384177
H    -2.669415  1.666832  0.388469
H    -2.183992  3.196635  2.018570
H    -1.378640  1.803256  2.705246
H    -4.166904  2.878614  3.488591
H    -2.664945  3.161499  4.355931
H    -2.493796  0.638487  4.744340
H    -4.131381  0.490095  4.077990
H    -4.348519  0.743820  6.401765
H    -3.489131  2.136221  6.421218
N    -4.380378  -0.920286  -0.308014
C    -4.633070  0.306710  -1.049895
H    -4.837692  -1.758210  -0.655899
H    -5.214685  0.041197  -1.939303
H    -3.708051  0.784741  -1.394011
H    -5.216634  1.039176  -0.475677
