33
Energy: -18209.2684512 eV PBE+vdW (tier 2 basis)
C    -0.669298  0.317679  -1.167482
C    -0.609872  1.020764  0.180189
O    -0.018239  2.088309  0.321893
H    -0.134444  0.941912  -1.887773
H    -1.704135  0.186438  -1.514947
H    -0.200282  -0.674545  -1.139767
N    -1.233323  0.418448  1.243798
C    -2.062886  -0.768871  1.260894
C    -3.386003  -0.426433  1.967704
O    -3.420813  0.399486  2.877411
H    -1.276989  0.986186  2.089542
H    -2.257137  -1.071760  0.225105
C    -1.394718  -1.940887  2.026710
C    -0.164593  -2.523546  1.326591
C    -0.494436  -3.370069  0.093872
C    0.744931  -3.833241  -0.669009
N    0.366233  -4.612272  -1.854673
H    -2.140029  -2.735939  2.194175
H    -1.124345  -1.560687  3.022800
H    0.392626  -3.139427  2.049553
H    0.516213  -1.701054  1.052673
H    -1.135683  -2.816185  -0.610341
H    -1.080728  -4.252310  0.406101
H    1.419071  -4.371790  0.027292
H    1.303414  -2.950032  -1.017429
H    1.189526  -4.837749  -2.412874
H    -0.044706  -5.504895  -1.576833
N    -4.494110  -1.122164  1.579208
C    -4.614711  -2.054614  0.469404
H    -5.332598  -0.875955  2.095767
H    -5.624131  -2.478565  0.483517
H    -3.904793  -2.889591  0.551938
H    -4.469668  -1.567167  -0.506855
