33
Energy: -18209.3403963 eV PBE+vdW (tier 2 basis)
C    -1.282291  -1.616238  1.807882
C    -0.622469  -0.540455  2.652091
O    0.198301  -0.822567  3.525920
H    -1.449650  -1.311512  0.766493
H    -2.256070  -1.884288  2.242866
H    -0.640431  -2.501438  1.831705
N    -0.974142  0.761638  2.415957
C    -2.021948  1.282678  1.561134
C    -1.738159  2.788592  1.386498
O    -1.013854  3.405081  2.165391
H    -0.482157  1.469757  2.962253
H    -1.967576  0.803976  0.569051
C    -3.440862  1.048406  2.139377
C    -3.725494  1.792093  3.453109
C    -4.838778  1.131758  4.287705
C    -4.341395  0.101953  5.310621
N    -3.549047  -0.985352  4.706248
H    -3.559253  -0.031074  2.300284
H    -4.192130  1.328055  1.382565
H    -3.989606  2.836229  3.229981
H    -2.804813  1.848158  4.056078
H    -5.569386  0.652456  3.615982
H    -5.390204  1.904277  4.845327
H    -5.216866  -0.352798  5.796510
H    -3.786447  0.637321  6.105516
H    -2.569732  -0.707193  4.623328
H    -3.545151  -1.794719  5.325933
N    -2.382485  3.371141  0.338289
C    -2.311449  4.793857  0.060586
H    -2.951226  2.785131  -0.261064
H    -1.905584  4.981602  -0.942773
H    -1.643524  5.241542  0.803497
H    -3.300856  5.265877  0.139417
