33
Energy: -18209.435296 eV PBE+vdW (tier 2 basis)
C    1.420289  -1.744818  -0.072909
C    1.174720  -1.286620  1.349735
O    2.072893  -1.365005  2.202215
H    2.319878  -1.247789  -0.454890
H    0.583985  -1.555790  -0.756490
H    1.625447  -2.823319  -0.053719
N    -0.067405  -0.798360  1.603920
C    -0.701736  -0.414058  2.884376
C    -0.105754  0.799202  3.636843
O    -0.872122  1.536368  4.259242
H    -0.689480  -0.760770  0.805944
H    -1.688762  -0.044419  2.580800
C    -0.949393  -1.613270  3.834854
C    0.193044  -2.013035  4.783882
C    0.125297  -3.483589  5.216065
C    0.509842  -4.480380  4.103499
N    1.870647  -4.395533  3.568697
H    -1.234156  -2.462094  3.194774
H    -1.839236  -1.367960  4.432385
H    0.165902  -1.361002  5.668967
H    1.165460  -1.834533  4.308035
H    -0.888035  -3.727542  5.580752
H    0.802487  -3.638760  6.071944
H    -0.182948  -4.375903  3.252493
H    0.358446  -5.504173  4.478568
H    2.555997  -4.542330  4.310930
H    2.059465  -3.470262  3.177131
N    1.237021  0.959665  3.585857
C    1.902605  2.012029  4.329436
H    1.786932  0.198615  3.172901
H    2.838155  2.280163  3.825106
H    2.131837  1.705397  5.362316
H    1.247466  2.888718  4.376177
