33
Energy: -18209.7916318 eV PBE+vdW (tier 2 basis)
C    0.899381  2.319032  1.133106
C    -0.267799  1.404261  1.453757
O    -1.439012  1.788808  1.385084
H    0.802420  2.665297  0.096425
H    1.878886  1.842167  1.260423
H    0.842401  3.203218  1.779941
N    0.062313  0.133658  1.812971
C    -0.941460  -0.835585  2.204620
C    -0.290317  -1.771039  3.233348
O    0.919294  -2.022401  3.187426
H    1.027018  -0.161930  1.944347
H    -1.760989  -0.279144  2.673646
C    -1.470270  -1.608995  0.967545
C    -2.657903  -2.557902  1.188395
C    -4.050727  -1.907514  1.240545
C    -4.314580  -0.875183  2.339468
N    -4.036557  -1.415954  3.690037
H    -0.620477  -2.175430  0.557332
H    -1.737964  -0.852027  0.214670
H    -2.491707  -3.168906  2.087956
H    -2.670525  -3.274263  0.353005
H    -4.801618  -2.712337  1.324886
H    -4.253928  -1.412733  0.277392
H    -5.357588  -0.524855  2.238035
H    -3.678473  0.009267  2.191821
H    -4.664983  -2.200022  3.880444
H    -4.254095  -0.707147  4.392455
N    -1.152401  -2.277918  4.145017
C    -0.747406  -3.244308  5.145172
H    -2.145114  -2.000483  4.070669
H    0.335201  -3.388705  5.062575
H    -1.246717  -4.212903  4.992369
H    -0.983304  -2.886028  6.157117
