33
Energy: -18209.1915791 eV PBE+vdW (tier 2 basis)
C    -0.500120  0.259645  -1.209990
C    -0.038835  0.375362  0.234180
O    1.148247  0.471155  0.533090
H    0.388913  0.278302  -1.845393
H    -1.160643  1.089133  -1.499490
H    -1.046429  -0.677474  -1.387032
N    -1.011910  0.378050  1.204511
C    -2.445671  0.157074  1.034533
C    -3.155989  1.100738  2.027381
O    -3.364976  0.766341  3.191994
H    -0.651292  0.382416  2.156470
H    -2.696026  0.457144  0.012578
C    -2.855031  -1.305027  1.266416
C    -4.338431  -1.626836  1.020308
C    -4.775716  -1.835082  -0.439250
C    -4.789270  -0.587496  -1.339828
N    -5.437706  -0.735553  -2.645863
H    -2.604534  -1.548706  2.308406
H    -2.219089  -1.938856  0.628141
H    -4.965891  -0.850094  1.487508
H    -4.570320  -2.549781  1.571556
H    -5.799596  -2.244954  -0.429977
H    -4.145977  -2.611013  -0.908229
H    -3.761739  -0.245539  -1.537454
H    -5.292590  0.237466  -0.807979
H    -4.973771  -1.462930  -3.192267
H    -6.405166  -1.041272  -2.528355
N    -3.510709  2.332888  1.557832
C    -3.175298  2.925126  0.271371
H    -3.892534  2.941014  2.275899
H    -2.088238  3.002128  0.119518
H    -3.593217  3.936647  0.239760
H    -3.614480  2.364081  -0.565483
