33
Energy: -18209.5329036 eV PBE+vdW (tier 2 basis)
C    0.317744  -0.353168  0.488879
C    -0.117594  -0.984322  1.798297
O    0.549376  -1.853317  2.359509
H    0.409466  -1.142248  -0.267895
H    1.313529  0.087207  0.622916
H    -0.369041  0.419145  0.121809
N    -1.288566  -0.501665  2.314936
C    -1.933508  -1.096034  3.469727
C    -3.428998  -1.220370  3.139037
O    -3.978516  -0.440348  2.359780
H    -1.899189  0.083468  1.748358
H    -1.476355  -2.087814  3.615795
C    -1.748097  -0.257530  4.755917
C    -0.289320  -0.123920  5.193438
C    -0.116619  0.736303  6.446403
C    1.342897  0.873260  6.916163
N    2.285185  1.529382  6.005625
H    -2.339038  -0.720161  5.563500
H    -2.186036  0.739021  4.583035
H    0.291337  0.308133  4.364486
H    0.136105  -1.126075  5.366062
H    -0.708806  0.309511  7.274704
H    -0.531012  1.743566  6.264025
H    1.747275  -0.126688  7.141066
H    1.358999  1.427718  7.867134
H    2.385299  0.998689  5.140126
H    1.946456  2.456360  5.743495
N    -4.084451  -2.213969  3.797399
C    -5.513430  -2.435971  3.676376
H    -3.540428  -2.833798  4.385736
H    -5.726950  -3.430896  3.262119
H    -5.908190  -1.675845  2.994483
H    -6.014524  -2.339625  4.649561
