33
Energy: -18208.9247492 eV PBE+vdW (tier 2 basis)
C    -0.419110  0.167908  3.257779
C    -0.352307  -1.304011  2.902833
O    0.591714  -1.995377  3.289986
H    0.461009  0.390432  3.866733
H    -0.406036  0.808167  2.366957
H    -1.324683  0.407674  3.827467
N    -1.341997  -1.899486  2.153561
C    -2.575634  -1.502308  1.458971
C    -2.518476  -1.903566  -0.033313
O    -3.417641  -2.598880  -0.510093
H    -1.136467  -2.892318  2.059721
H    -3.369234  -2.152278  1.852246
C    -3.064568  -0.059506  1.649905
C    -4.389322  0.242985  0.927890
C    -5.634157  -0.551126  1.355336
C    -6.067791  -0.389667  2.815808
N    -5.215190  -1.165213  3.734926
H    -2.316518  0.659989  1.290537
H    -3.197307  0.104123  2.726273
H    -4.254159  0.110215  -0.156840
H    -4.594813  1.316046  1.073752
H    -5.502841  -1.620324  1.124154
H    -6.468051  -0.219581  0.717451
H    -7.140138  -0.652376  2.896656
H    -5.986851  0.670492  3.106493
H    -5.463669  -0.965065  4.704050
H    -5.382096  -2.163972  3.601557
N    -1.483329  -1.474107  -0.815685
C    -0.301982  -0.696142  -0.474156
H    -1.546745  -1.835086  -1.762544
H    0.428799  -1.269100  0.113504
H    -0.561764  0.211671  0.083418
H    0.176178  -0.377844  -1.407216
