33
Energy: -18209.477233 eV PBE+vdW (tier 2 basis)
C    -0.795697  2.985839  3.855869
C    -0.981680  1.500935  4.105431
O    -1.314025  1.056804  5.199047
H    -1.776807  3.475412  3.914071
H    -0.342361  3.219352  2.884198
H    -0.174198  3.405381  4.655231
N    -0.737272  0.688654  3.018222
C    -1.081309  -0.727880  3.009743
C    0.132976  -1.669392  2.859680
O    -0.025217  -2.865341  2.625062
H    -0.614951  1.140954  2.117540
H    -1.476618  -0.928167  4.018667
C    -2.150272  -1.050199  1.955528
C    -3.504124  -0.369295  2.192216
C    -4.203054  -0.723090  3.513653
C    -4.498039  -2.219325  3.725172
N    -5.359680  -2.879782  2.738768
H    -2.249262  -2.143380  1.931116
H    -1.764796  -0.766487  0.961112
H    -4.163924  -0.627441  1.348255
H    -3.385304  0.725195  2.141497
H    -5.154227  -0.166649  3.559521
H    -3.607113  -0.358878  4.366344
H    -4.966948  -2.342113  4.713344
H    -3.558360  -2.790638  3.772025
H    -6.230227  -2.360184  2.615337
H    -4.909667  -2.916003  1.824016
N    1.349538  -1.084951  3.034279
C    2.586276  -1.840051  3.039535
H    1.355031  -0.102019  3.282484
H    3.314309  -1.408219  2.339527
H    2.350668  -2.863162  2.727178
H    3.034335  -1.871881  4.043331
