33
Energy: -18209.4468008 eV PBE+vdW (tier 2 basis)
C    -0.243696  -3.313039  1.215696
C    -0.527463  -1.999987  1.919374
O    -0.880146  -0.989742  1.319479
H    0.401184  -3.988005  1.792980
H    0.214975  -3.108645  0.243074
H    -1.200307  -3.824382  1.035377
N    -0.380554  -2.033962  3.288505
C    -0.866458  -0.972703  4.163812
C    0.268248  -0.212194  4.894894
O    0.019690  0.539021  5.835339
H    -0.213982  -2.939253  3.716080
H    -1.315783  -0.225514  3.487773
C    -1.922017  -1.470460  5.164552
C    -3.364970  -1.524863  4.641258
C    -3.669229  -2.458701  3.459718
C    -3.369258  -3.949933  3.689552
N    -4.074325  -4.619841  4.787150
H    -1.887731  -0.781480  6.018822
H    -1.604334  -2.452966  5.555965
H    -3.666617  -0.503592  4.360909
H    -4.016080  -1.795539  5.488901
H    -3.133645  -2.119929  2.559035
H    -4.739933  -2.357571  3.214840
H    -2.291581  -4.100910  3.859767
H    -3.598868  -4.500704  2.764246
H    -3.851736  -4.182488  5.681893
H    -5.084676  -4.529096  4.668313
N    1.516328  -0.411539  4.394130
C    2.676788  0.311727  4.873021
H    1.595902  -1.018504  3.586136
H    3.045551  1.024393  4.120919
H    3.489519  -0.378936  5.135599
H    2.375203  0.868337  5.766891
