33
Energy: -18209.3160894 eV PBE+vdW (tier 2 basis)
C    -1.623666  0.313953  -0.189216
C    -1.209137  0.039119  1.243455
O    -0.301034  -0.743926  1.523266
H    -0.795529  0.821539  -0.701527
H    -2.524604  0.933469  -0.275718
H    -1.787807  -0.642183  -0.699581
N    -1.886460  0.754988  2.190480
C    -1.705340  0.525561  3.610769
C    -3.104226  0.537582  4.243961
O    -4.027074  1.162877  3.715284
H    -2.741109  1.254205  1.951996
H    -1.221469  -0.457971  3.707861
C    -0.816274  1.584297  4.308560
C    0.640117  1.625380  3.805928
C    0.911608  2.522349  2.580893
C    1.382640  3.946753  2.918223
N    0.470942  4.818013  3.669627
H    -0.818762  1.362125  5.386693
H    -1.300676  2.566136  4.197748
H    0.955629  0.597077  3.580230
H    1.284083  1.962574  4.635352
H    0.012873  2.578941  1.947961
H    1.686813  2.051795  1.956073
H    1.635651  4.466604  1.980846
H    2.321559  3.889140  3.492750
H    0.282305  4.437114  4.597029
H    -0.430452  4.890241  3.195284
N    -3.282661  -0.130574  5.417516
C    -2.319454  -0.907708  6.177921
H    -4.211699  -0.008279  5.809690
H    -2.849812  -1.688366  6.735595
H    -1.752786  -0.293892  6.895572
H    -1.606442  -1.404646  5.510805
