33
Energy: -18209.1839782 eV PBE+vdW (tier 2 basis)
C    0.228877  -0.184723  0.183572
C    -0.068248  0.057267  1.653602
O    0.820288  0.127912  2.496621
H    0.584603  -1.217013  0.066932
H    1.043827  0.479277  -0.126085
H    -0.633280  -0.033277  -0.478095
N    -1.396954  0.202891  1.959323
C    -1.953352  0.264432  3.313558
C    -1.042765  0.993567  4.337473
O    -0.740325  0.471850  5.408797
H    -2.064222  0.061934  1.209694
H    -2.853144  0.900787  3.235695
C    -2.402669  -1.107661  3.839608
C    -1.328082  -2.202084  3.824698
C    -1.678882  -3.418755  4.692231
C    -1.794139  -3.116086  6.191804
N    -0.563437  -2.512307  6.710248
H    -3.274675  -1.433658  3.247990
H    -2.767814  -0.946355  4.863110
H    -0.370338  -1.786742  4.163173
H    -1.161704  -2.539660  2.789941
H    -0.894322  -4.177889  4.553621
H    -2.626632  -3.869253  4.350515
H    -1.959456  -4.065855  6.722617
H    -2.701002  -2.502873  6.376692
H    -0.590763  -2.477913  7.728587
H    -0.482710  -1.543386  6.390133
N    -0.729671  2.300558  4.090447
C    -0.916225  3.076180  2.879324
H    -0.095418  2.675511  4.789306
H    -0.148238  2.867758  2.117892
H    -0.871253  4.141175  3.136509
H    -1.902238  2.885290  2.439294
