33
Energy: -18209.2254953 eV PBE+vdW (tier 2 basis)
C    1.525741  0.500896  0.656303
C    0.821648  0.156484  1.954396
O    1.407994  0.143984  3.034253
H    1.654205  1.591239  0.613997
H    0.980536  0.178166  -0.239519
H    2.522059  0.046494  0.659511
N    -0.513349  -0.129114  1.835847
C    -1.409878  -0.237792  2.985605
C    -1.160668  0.953415  3.953573
O    -1.102262  2.093253  3.500468
H    -0.941934  0.057021  0.938026
H    -2.406834  0.012288  2.589482
C    -1.538551  -1.684840  3.525309
C    -0.274126  -2.509319  3.812453
C    0.517636  -2.148750  5.070280
C    1.714995  -3.068710  5.298202
N    2.450802  -2.662255  6.503198
H    -2.112252  -2.231191  2.760557
H    -2.196943  -1.667094  4.410186
H    0.392320  -2.457062  2.938138
H    -0.590371  -3.563245  3.884234
H    -0.128140  -2.202856  5.965184
H    0.892580  -1.119018  4.978288
H    2.333011  -3.073553  4.378138
H    1.366809  -4.102757  5.451216
H    3.218807  -3.307988  6.687156
H    2.877000  -1.745941  6.353814
N    -1.155727  0.679072  5.285238
C    -0.904259  1.720547  6.264699
H    -1.007551  -0.280220  5.572942
H    -1.358906  2.651383  5.910480
H    0.173072  1.899480  6.405797
H    -1.349928  1.437213  7.225277
