33
Energy: -18209.3858664 eV PBE+vdW (tier 2 basis)
C    -0.452440  -0.145407  -0.030233
C    -1.176562  -1.291340  0.649370
O    -1.592097  -2.265698  0.024241
H    -0.186143  0.675294  0.647395
H    -1.085512  0.245295  -0.836128
H    0.462539  -0.534939  -0.493942
N    -1.350660  -1.154919  2.001659
C    -1.919309  -2.209714  2.834014
C    -3.103654  -1.668460  3.668057
O    -3.090853  -1.659270  4.901519
H    -0.938218  -0.353298  2.464200
H    -2.313285  -2.943770  2.114008
C    -0.870412  -2.908252  3.711219
C    0.023939  -1.973109  4.537062
C    0.774040  -2.680242  5.673473
C    -0.131143  -3.273186  6.774999
N    -1.093618  -2.373915  7.408544
H    -0.246030  -3.533531  3.055220
H    -1.415240  -3.592567  4.375335
H    -0.588231  -1.169274  4.973969
H    0.760766  -1.488397  3.877069
H    1.465695  -1.957637  6.137721
H    1.405936  -3.487657  5.263643
H    0.516457  -3.697582  7.558524
H    -0.700483  -4.125337  6.373237
H    -1.791939  -2.056706  6.731969
H    -0.629109  -1.543671  7.778493
N    -4.187790  -1.206326  2.982064
C    -4.420979  -1.150596  1.548371
H    -4.910170  -0.839120  3.594578
H    -3.881127  -1.947655  1.025356
H    -4.106575  -0.188944  1.113657
H    -5.492198  -1.285673  1.356318
