33
Energy: -18209.3909118 eV PBE+vdW (tier 2 basis)
C    -0.592418  0.509793  -1.031359
C    0.014398  0.092942  0.294055
O    1.224191  -0.038413  0.457392
H    -1.190443  -0.305638  -1.463092
H    0.223921  0.749221  -1.717267
H    -1.252486  1.381752  -0.927162
N    -0.860101  -0.123522  1.338135
C    -2.317171  -0.099937  1.318530
C    -2.944544  1.290544  1.581702
O    -4.156203  1.454237  1.455353
H    -0.403853  -0.475527  2.176677
H    -2.667283  -0.380363  0.313399
C    -2.887081  -1.117688  2.318677
C    -2.629932  -2.576072  1.924195
C    -3.236027  -3.607514  2.884193
C    -2.574828  -3.663863  4.261870
N    -3.143413  -4.760601  5.056790
H    -3.967929  -0.932298  2.387924
H    -2.469497  -0.896899  3.315523
H    -1.547116  -2.761173  1.829288
H    -3.050394  -2.739822  0.919010
H    -3.164077  -4.610170  2.437380
H    -4.314212  -3.403041  3.005984
H    -2.650170  -2.675999  4.757860
H    -1.499803  -3.869525  4.134290
H    -2.676002  -4.827221  5.961029
H    -4.128423  -4.578065  5.256066
N    -2.073149  2.264785  1.953220
C    -2.487735  3.624056  2.236808
H    -1.091972  2.011158  2.001794
H    -2.012385  4.336939  1.548655
H    -2.237520  3.908241  3.268358
H    -3.574357  3.672843  2.106891
