33
Energy: -18209.4303725 eV PBE+vdW (tier 2 basis)
C    -0.518083  -0.355258  0.059752
C    -0.187202  -0.113708  1.519327
O    0.983206  0.045992  1.890146
H    -0.102228  0.465818  -0.536687
H    -1.591494  -0.442649  -0.147003
H    -0.018942  -1.278146  -0.261747
N    -1.252987  -0.084801  2.366163
C    -1.224546  0.037700  3.834606
C    -0.827352  1.453132  4.332336
O    -1.601064  2.098228  5.043743
H    -2.170489  -0.174348  1.948195
H    -2.272765  -0.058023  4.141938
C    -0.406441  -1.089804  4.496173
C    -0.520825  -1.156629  6.025688
C    -1.917479  -1.535928  6.563408
C    -2.717431  -0.362990  7.133688
N    -4.072048  -0.795787  7.504041
H    0.647815  -0.985820  4.208767
H    -0.754859  -2.041980  4.064569
H    -0.198197  -0.198779  6.465416
H    0.216920  -1.896727  6.366462
H    -1.809917  -2.298377  7.352054
H    -2.516857  -2.015762  5.772471
H    -2.809966  0.436116  6.385094
H    -2.143051  0.077348  7.973944
H    -4.038304  -1.440195  8.296020
H    -4.627361  0.003836  7.808234
N    0.408190  1.870171  3.964931
C    0.929907  3.171106  4.332285
H    0.918827  1.277253  3.299894
H    1.933061  3.075340  4.769299
H    0.254751  3.615118  5.071415
H    0.990601  3.841742  3.462041
