33
Energy: -18209.1374068 eV PBE+vdW (tier 2 basis)
C    -0.334547  -0.529194  -0.063656
C    -0.942256  -0.928771  1.270204
O    -0.986999  -2.094359  1.651985
H    -0.468091  0.530454  -0.315628
H    -0.779624  -1.146043  -0.853356
H    0.739542  -0.753714  -0.040721
N    -1.448473  0.100084  2.017912
C    -1.980918  -0.080667  3.363747
C    -3.095639  -1.143269  3.485613
O    -3.105163  -1.887815  4.465077
H    -1.363963  1.047072  1.667228
H    -1.191653  -0.492303  4.010797
C    -2.391514  1.301835  3.916578
C    -2.819630  1.315142  5.391225
C    -4.303685  1.001952  5.634402
C    -4.610357  0.565618  7.069222
N    -3.788675  -0.588947  7.446327
H    -3.186141  1.735840  3.285213
H    -1.509681  1.951734  3.793153
H    -2.593130  2.305916  5.813726
H    -2.209000  0.596646  5.956080
H    -4.639009  0.201119  4.959126
H    -4.918537  1.882708  5.388923
H    -5.701528  0.385906  7.143853
H    -4.381533  1.390009  7.766484
H    -3.823363  -1.312236  6.723961
H    -4.113479  -1.002533  8.318474
N    -4.108370  -1.193892  2.568556
C    -4.305075  -0.464324  1.328405
H    -4.736232  -1.970860  2.750968
H    -5.360874  -0.550526  1.044809
H    -3.692418  -0.856091  0.501830
H    -4.085969  0.601997  1.450715
