33
Energy: -18209.3205599 eV PBE+vdW (tier 2 basis)
C    0.256621  0.885013  0.396428
C    0.139569  -0.323704  1.310445
O    1.132644  -0.949228  1.675199
H    1.285704  1.250326  0.452421
H    -0.435286  1.697553  0.656219
H    0.052900  0.592010  -0.643133
N    -1.116183  -0.707658  1.702479
C    -2.394567  -0.083787  1.438628
C    -3.350122  -0.567579  2.555253
O    -3.032009  -1.459478  3.340628
H    -1.157534  -1.463876  2.388138
H    -2.309761  1.011902  1.544977
C    -2.942040  -0.366869  0.011492
C    -3.097671  -1.841661  -0.378312
C    -4.289690  -2.570593  0.251133
C    -4.488779  -3.975600  -0.314121
N    -5.637292  -4.629450  0.327620
H    -2.251739  0.117111  -0.693949
H    -3.903957  0.158199  -0.115344
H    -2.163154  -2.373403  -0.139049
H    -3.195212  -1.886141  -1.475107
H    -5.216833  -1.996001  0.092828
H    -4.154661  -2.653525  1.340173
H    -3.539995  -4.540555  -0.215987
H    -4.702818  -3.909328  -1.392629
H    -5.432353  -4.807870  1.312286
H    -5.812592  -5.540345  -0.096763
N    -4.552855  0.063884  2.596316
C    -5.624049  -0.363522  3.479018
H    -4.768070  0.734939  1.868857
H    -6.205026  0.505023  3.810316
H    -5.176386  -0.852952  4.349641
H    -6.297179  -1.080807  2.984464
