33
Energy: -18209.3089535 eV PBE+vdW (tier 2 basis)
C    -0.955572  -1.446406  0.345099
C    -0.357388  -0.635190  1.484801
O    0.787227  -0.829407  1.887124
H    -1.172188  -0.810466  -0.525497
H    -1.890650  -1.945711  0.634609
H    -0.222840  -2.203002  0.053126
N    -1.143572  0.343807  2.032936
C    -2.533718  0.652354  1.744239
C    -2.716713  2.155426  2.019192
O    -2.249780  2.671696  3.032377
H    -0.727222  0.875673  2.795965
H    -2.730663  0.445239  0.680879
C    -3.511985  -0.175482  2.609436
C    -4.990015  0.022303  2.260098
C    -5.956940  -0.835164  3.087668
C    -5.877861  -2.337211  2.812684
N    -6.923419  -3.047952  3.561086
H    -3.332346  0.084379  3.664239
H    -3.227303  -1.231440  2.495619
H    -5.146654  -0.190800  1.186992
H    -5.258790  1.080307  2.401124
H    -6.991018  -0.513074  2.894623
H    -5.774676  -0.651263  4.160753
H    -4.855806  -2.707286  3.024965
H    -6.059004  -2.514844  1.740173
H    -6.896965  -4.045920  3.351239
H    -6.756930  -2.963025  4.565300
N    -3.436019  2.837096  1.085589
C    -3.760667  4.245912  1.215666
H    -3.782988  2.325503  0.283556
H    -3.376708  4.819737  0.361590
H    -3.284820  4.609302  2.132301
H    -4.846230  4.400034  1.290890
