33
Energy: -18209.3881306 eV PBE+vdW (tier 2 basis)
C    0.837931  -0.674122  0.928234
C    0.084420  0.273569  1.842522
O    0.631534  1.237026  2.383716
H    1.690834  -1.090261  1.478350
H    1.241624  -0.102132  0.083353
H    0.223103  -1.496346  0.542364
N    -1.235504  -0.013349  2.023519
C    -2.094248  0.799901  2.866482
C    -3.191147  -0.136865  3.388413
O    -3.680423  -0.985015  2.637048
H    -1.682951  -0.806227  1.572044
H    -1.461869  1.204590  3.666929
C    -2.716471  1.971777  2.064093
C    -3.365264  3.088321  2.890806
C    -2.405423  3.925392  3.754346
C    -1.252077  4.586486  2.993431
N    -1.745914  5.517539  1.964108
H    -3.451573  1.545257  1.365477
H    -1.903062  2.385018  1.450506
H    -4.160625  2.671640  3.529415
H    -3.890568  3.762364  2.196374
H    -1.964015  3.307045  4.551272
H    -2.991841  4.710724  4.255609
H    -0.569508  3.808402  2.604265
H    -0.664875  5.176648  3.711897
H    -0.972265  6.074259  1.601047
H    -2.115872  5.003910  1.163084
N    -3.626847  -0.000077  4.671188
C    -3.129217  0.857515  5.734319
H    -4.393375  -0.629210  4.892737
H    -2.047004  1.003325  5.646261
H    -3.319080  0.369812  6.697568
H    -3.614350  1.844550  5.744973
