33
Energy: -18209.0640379 eV PBE+vdW (tier 2 basis)
C    0.039883  0.004981  0.062253
C    -0.070844  0.762707  1.373342
O    0.870047  1.390443  1.847756
H    1.080337  0.053092  -0.268691
H    -0.598189  0.463598  -0.707050
H    -0.256830  -1.048377  0.165305
N    -1.277760  0.698007  2.033734
C    -2.526606  0.185983  1.515545
C    -3.149705  1.134514  0.456673
O    -2.865707  2.327251  0.387116
H    -1.332939  1.349881  2.811888
H    -2.309005  -0.762632  1.001607
C    -3.493756  -0.178383  2.672346
C    -3.805907  0.884542  3.739311
C    -4.546095  2.147415  3.254078
C    -3.672415  3.406808  3.257370
N    -4.315400  4.482663  2.497315
H    -3.057811  -1.055115  3.174481
H    -4.443899  -0.515972  2.232078
H    -2.880136  1.173672  4.264892
H    -4.405655  0.373505  4.506205
H    -5.433020  2.335954  3.875001
H    -4.932713  1.992478  2.235301
H    -2.667792  3.152666  2.868930
H    -3.537438  3.748838  4.295410
H    -3.829099  5.364901  2.657947
H    -4.209018  4.280574  1.500563
N    -4.034979  0.569576  -0.422420
C    -4.349478  -0.836840  -0.619599
H    -4.396674  1.234375  -1.099000
H    -5.021699  -0.920923  -1.479735
H    -3.453454  -1.437685  -0.837600
H    -4.863773  -1.278418  0.245456
