33
Energy: -18209.3380235 eV PBE+vdW (tier 2 basis)
C    0.642234  0.262131  0.352289
C    0.376929  0.265766  1.846281
O    1.253478  0.519561  2.666593
H    0.600224  1.300679  -0.004874
H    -0.081487  -0.332157  -0.220111
H    1.652651  -0.117224  0.169113
N    -0.915476  -0.030303  2.203993
C    -1.453378  0.230517  3.539238
C    -1.069995  1.669799  3.992179
O    -1.112136  2.585066  3.168972
H    -1.589262  -0.047349  1.448538
H    -2.539657  0.334342  3.382980
C    -1.308750  -0.971172  4.502790
C    0.069252  -1.629698  4.703957
C    1.153848  -0.871219  5.483858
C    1.002429  -0.847232  7.005733
N    -0.221056  -0.143150  7.464244
H    -1.970877  -1.751967  4.095732
H    -1.764787  -0.684034  5.461285
H    0.470346  -1.873512  3.710228
H    -0.105434  -2.602801  5.196277
H    1.251915  0.148078  5.090466
H    2.118481  -1.357728  5.269844
H    1.051954  -1.878321  7.402852
H    1.862981  -0.309138  7.427936
H    -0.088529  0.209115  8.412125
H    -1.004735  -0.794159  7.519890
N    -0.833317  1.873806  5.308184
C    -0.527553  3.207254  5.791635
H    -0.695745  1.103195  5.975329
H    -0.387626  3.156260  6.877426
H    -1.344602  3.905517  5.565534
H    0.386870  3.605204  5.327414
