33
Energy: -18209.1361727 eV PBE+vdW (tier 2 basis)
C    0.286899  0.235254  0.154964
C    0.349403  0.286925  1.666968
O    1.401170  0.158415  2.295505
H    -0.220766  1.111983  -0.269150
H    -0.268288  -0.651528  -0.184286
H    1.309006  0.179392  -0.227496
N    -0.832792  0.487420  2.333471
C    -2.183006  0.468542  1.788888
C    -2.628445  1.771572  1.084413
O    -3.280498  1.693146  0.043521
H    -0.727171  0.473531  3.343584
H    -2.235732  -0.272487  0.977777
C    -3.209245  0.060538  2.865323
C    -3.277810  -1.434109  3.227956
C    -2.012516  -2.072687  3.831767
C    -1.089896  -2.746874  2.806658
N    0.228471  -3.008409  3.387414
H    -4.199117  0.369999  2.500563
H    -3.023612  0.652677  3.778306
H    -3.585098  -2.001851  2.333918
H    -4.108467  -1.541280  3.941073
H    -2.293394  -2.826468  4.580889
H    -1.435586  -1.320101  4.394223
H    -1.054006  -2.140421  1.880538
H    -1.534126  -3.711331  2.515700
H    0.764129  -3.637276  2.789708
H    0.767518  -2.140615  3.438403
N    -2.310714  2.984933  1.625117
C    -1.621433  3.319936  2.863118
H    -2.658081  3.754910  1.061910
H    -2.016001  2.755240  3.717781
H    -1.796238  4.381692  3.070074
H    -0.537597  3.152634  2.801899
