33
Energy: -18209.5055532 eV PBE+vdW (tier 2 basis)
C    -1.996978  0.294351  -0.073554
C    -1.247586  -0.042690  1.198255
O    -0.020154  0.093049  1.286169
H    -1.566847  -0.280379  -0.902814
H    -1.843585  1.357403  -0.298622
H    -3.074169  0.095291  -0.017818
N    -2.004542  -0.498461  2.232584
C    -1.474464  -0.791341  3.565204
C    -0.836593  -2.211112  3.648249
O    -1.254466  -3.082635  4.410219
H    -2.991591  -0.666250  2.077415
H    -0.651736  -0.075960  3.722034
C    -2.541864  -0.566386  4.640993
C    -3.871320  -1.304909  4.429586
C    -4.812854  -1.226363  5.638960
C    -5.280194  0.186540  6.034655
N    -6.018946  0.955875  5.027492
H    -2.713222  0.518026  4.720867
H    -2.107802  -0.891345  5.597191
H    -3.661362  -2.361463  4.216176
H    -4.405213  -0.901436  3.549224
H    -4.314730  -1.687276  6.508381
H    -5.701747  -1.845890  5.434206
H    -4.420012  0.797880  6.347202
H    -5.921947  0.104403  6.924977
H    -6.822112  0.424610  4.687119
H    -5.434231  1.150983  4.214392
N    0.230072  -2.357908  2.821152
C    0.969618  -3.598613  2.707971
H    0.480997  -1.553039  2.238801
H    2.033166  -3.444323  2.937633
H    0.888404  -4.021263  1.695910
H    0.550012  -4.311368  3.425788
