33
Energy: -18209.1089203 eV PBE+vdW (tier 2 basis)
C    -0.394668  1.638457  0.429056
C    0.151678  0.424359  1.153987
O    1.336472  0.320191  1.470103
H    -1.118831  2.182340  1.052470
H    -0.912507  1.362215  -0.499840
H    0.443365  2.299209  0.194253
N    -0.741513  -0.572306  1.461619
C    -2.180397  -0.573025  1.253722
C    -3.029330  0.386761  2.125208
O    -4.110762  0.765711  1.674903
H    -0.317680  -1.355039  1.948889
H    -2.381506  -0.195605  0.240353
C    -2.780327  -1.994584  1.298399
C    -2.802663  -2.742039  2.640641
C    -1.477233  -3.351191  3.117953
C    -1.657140  -4.369525  4.250722
N    -2.410587  -5.542295  3.789947
H    -2.256180  -2.601142  0.542305
H    -3.814937  -1.885781  0.946295
H    -3.515484  -3.573358  2.542034
H    -3.216636  -2.088873  3.426939
H    -0.777292  -2.580089  3.479225
H    -0.972159  -3.849877  2.271756
H    -2.234430  -3.903903  5.065125
H    -0.663071  -4.614790  4.671016
H    -1.829852  -6.125499  3.186227
H    -2.691036  -6.125786  4.576944
N    -2.602003  0.818404  3.350261
C    -1.450119  0.456526  4.167670
H    -3.280656  1.447036  3.769389
H    -1.606726  0.881271  5.165543
H    -0.505043  0.852067  3.774026
H    -1.351887  -0.629278  4.287863
