33
Energy: -18209.0139958 eV PBE+vdW (tier 2 basis)
C    -1.569702  0.237777  -0.158813
C    -1.323545  -0.378549  1.209262
O    -0.589223  -1.347888  1.358453
H    -0.756654  0.947476  -0.366839
H    -2.524337  0.774354  -0.235081
H    -1.533200  -0.552176  -0.915377
N    -2.013560  0.239655  2.229034
C    -1.764666  0.128658  3.661462
C    -0.636520  1.112536  4.073507
O    0.134060  1.596365  3.251514
H    -2.462096  1.108402  1.960042
H    -2.692413  0.493670  4.131167
C    -1.541362  -1.319219  4.181231
C    -0.087033  -1.767321  4.363935
C    0.042089  -3.214144  4.852863
C    -0.454096  -3.453096  6.279747
N    -0.233356  -4.848262  6.678080
H    -2.046189  -2.000046  3.482955
H    -2.080141  -1.408253  5.135503
H    0.429553  -1.100696  5.074996
H    0.428183  -1.663672  3.401662
H    1.105175  -3.503517  4.802815
H    -0.489017  -3.895633  4.170216
H    -1.537614  -3.267068  6.340853
H    0.030492  -2.712158  6.951574
H    0.765584  -5.060371  6.683039
H    -0.570701  -5.013248  7.626313
N    -0.563251  1.456449  5.398290
C    -1.326723  0.944290  6.522558
H    0.230722  2.056149  5.601638
H    -1.251005  1.656803  7.351841
H    -0.967096  -0.035619  6.875719
H    -2.390584  0.851103  6.269605
