33
Energy: -18208.9137754 eV PBE+vdW (tier 2 basis)
C    0.010755  0.132019  -0.124629
C    0.038428  0.174466  1.390585
O    1.057434  0.465056  2.016995
H    0.066302  1.162222  -0.501103
H    -0.886883  -0.344990  -0.537266
H    0.899930  -0.400013  -0.480696
N    -1.142966  -0.125853  2.007324
C    -1.367767  0.048182  3.445466
C    -0.828053  1.446594  3.873056
O    -1.379427  2.425248  3.368606
H    -1.962671  -0.218178  1.420886
H    -2.447205  0.238445  3.533628
C    -1.091646  -1.220793  4.286635
C    0.119895  -2.096833  3.915473
C    -0.193497  -3.221544  2.915437
C    -0.991903  -4.393347  3.496016
N    -0.243199  -5.067948  4.565156
H    -2.001171  -1.839969  4.225262
H    -1.043593  -0.912343  5.340786
H    0.921760  -1.472726  3.505010
H    0.515654  -2.562910  4.828954
H    -0.739347  -2.819477  2.048443
H    0.756010  -3.614382  2.513887
H    -1.284895  -5.065000  2.665330
H    -1.931877  -4.025587  3.937954
H    -0.811755  -5.791828  5.003391
H    0.578613  -5.536350  4.180457
N    0.095809  1.614203  4.867960
C    1.200138  0.747953  5.266689
H    0.250924  2.608300  5.013118
H    1.890702  1.348142  5.868941
H    1.739453  0.363767  4.391875
H    0.867180  -0.092383  5.888261
