33
Energy: -18209.2752648 eV PBE+vdW (tier 2 basis)
C    -0.642077  1.811042  2.841383
C    -0.129581  0.418980  3.167698
O    1.020262  0.231212  3.559732
H    0.104500  2.525561  3.198799
H    -1.604973  2.032578  3.323312
H    -0.765714  1.942758  1.755968
N    -0.983982  -0.640436  2.985472
C    -2.390737  -0.638710  2.642308
C    -3.129242  -1.548184  3.639323
O    -2.577256  -2.530480  4.130447
H    -0.627085  -1.535624  3.318649
H    -2.768409  0.388100  2.721217
C    -2.653386  -1.177575  1.210715
C    -2.218129  -0.229009  0.091338
C    -3.158207  0.962478  -0.118893
C    -2.632299  1.985043  -1.132232
N    -1.486480  2.729488  -0.587580
H    -3.725248  -1.414386  1.102633
H    -2.121162  -2.136641  1.129846
H    -2.163523  -0.799707  -0.849509
H    -1.196776  0.131364  0.282850
H    -3.341257  1.485532  0.836298
H    -4.142523  0.598615  -0.457432
H    -3.463534  2.639114  -1.456163
H    -2.287848  1.452731  -2.032069
H    -0.939001  3.155859  -1.333626
H    -1.806745  3.493185  0.008524
N    -4.435031  -1.248037  3.903680
C    -5.188264  -0.085922  3.461321
H    -4.882074  -1.899011  4.541386
H    -6.215821  -0.181490  3.827316
H    -5.232686  -0.012765  2.365151
H    -4.778358  0.855191  3.858890
