33
Energy: -18209.4856064 eV PBE+vdW (tier 2 basis)
C    0.084615  -1.199211  0.681189
C    -0.153992  -0.034959  1.619909
O    0.778142  0.674688  2.023812
H    0.523190  -0.814355  -0.248292
H    -0.823591  -1.763902  0.437679
H    0.819653  -1.876104  1.133409
N    -1.443665  0.172995  1.991681
C    -1.918289  1.315446  2.771618
C    -1.678179  1.169021  4.306104
O    -2.555690  1.392884  5.140466
H    -2.150687  -0.468666  1.652411
H    -1.286071  2.168967  2.474071
C    -3.380104  1.650725  2.421564
C    -4.352514  0.482091  2.183985
C    -4.632256  -0.462671  3.362525
C    -5.487604  0.157003  4.473171
N    -6.805831  0.561972  3.961122
H    -3.372514  2.266293  1.510359
H    -3.758414  2.288091  3.231271
H    -4.027043  -0.108903  1.308934
H    -5.313091  0.920664  1.876188
H    -3.698386  -0.830229  3.814839
H    -5.151705  -1.355244  2.973138
H    -4.978645  1.047568  4.863339
H    -5.539736  -0.560881  5.313791
H    -7.399725  -0.254134  3.807623
H    -7.288412  1.147687  4.641196
N    -0.406304  0.830081  4.626936
C    0.030259  0.720293  6.005365
H    0.280517  0.807942  3.865432
H    0.941788  0.113744  6.046815
H    -0.752820  0.240144  6.603624
H    0.238079  1.704683  6.453491
