33
Energy: -18209.549653 eV PBE+vdW (tier 2 basis)
C    0.064473  0.357270  0.284457
C    -0.372151  0.290540  1.732852
O    -0.157464  1.203606  2.542348
H    -0.694691  -0.064912  -0.388837
H    1.001644  -0.202401  0.152141
H    0.253136  1.402885  0.024500
N    -1.015542  -0.853929  2.091841
C    -1.664012  -1.050763  3.391235
C    -0.639477  -1.567348  4.443596
O    -0.704765  -2.692358  4.936879
H    -1.165652  -1.561887  1.382003
H    -1.993158  -0.051562  3.723300
C    -2.867299  -1.986295  3.271564
C    -4.147470  -1.354331  2.698875
C    -4.066483  -0.778653  1.276187
C    -3.789308  -1.817914  0.187200
N    -3.255782  -1.175281  -1.024407
H    -3.079310  -2.370523  4.277774
H    -2.570234  -2.879839  2.699038
H    -4.473042  -0.550461  3.377855
H    -4.944743  -2.114746  2.736881
H    -3.288403  -0.003781  1.224522
H    -5.016448  -0.268529  1.048191
H    -4.707898  -2.411560  0.012919
H    -3.030838  -2.539201  0.531598
H    -3.904740  -0.459485  -1.356767
H    -3.171163  -1.854219  -1.781842
N    0.307474  -0.642205  4.747331
C    1.414628  -0.920858  5.638996
H    0.284344  0.232049  4.212734
H    2.366987  -0.993459  5.092188
H    1.220600  -1.878113  6.134513
H    1.507786  -0.133741  6.399335
