33
Energy: -18209.5366578 eV PBE+vdW (tier 2 basis)
C    -2.250329  0.738619  0.012389
C    -1.623332  0.473798  1.365102
O    -0.723476  -0.361110  1.514885
H    -1.461624  1.047000  -0.685126
H    -3.031234  1.508558  0.030623
H    -2.677172  -0.196889  -0.369802
N    -2.103485  1.217148  2.401828
C    -1.584300  1.094908  3.764468
C    -2.286228  -0.088567  4.484496
O    -3.223186  0.072783  5.264852
H    -2.905853  1.818280  2.250445
H    -0.519906  0.844795  3.650690
C    -1.748873  2.412438  4.519103
C    -1.052891  2.452898  5.888498
C    0.465749  2.212290  5.882841
C    1.280249  3.157078  4.995551
N    1.154564  4.553973  5.435707
H    -2.823370  2.596723  4.671707
H    -1.367657  3.216543  3.869421
H    -1.528290  1.713337  6.547924
H    -1.264831  3.430692  6.348350
H    0.681718  1.176866  5.573935
H    0.831611  2.307491  6.916213
H    1.005560  3.001064  3.932259
H    2.341927  2.882168  5.078002
H    1.786044  5.152156  4.903421
H    0.213022  4.906584  5.260309
N    -1.763290  -1.296817  4.142147
C    -2.345035  -2.548073  4.587432
H    -1.109288  -1.297741  3.356620
H    -2.976094  -2.340987  5.458044
H    -1.555740  -3.255895  4.870878
H    -2.968958  -3.010111  3.806785
