33
Energy: -18209.0679284 eV PBE+vdW (tier 2 basis)
C    0.060979  -0.023701  1.035405
C    -0.202425  0.772261  2.295382
O    0.704089  1.079106  3.067210
H    1.085191  -0.401815  1.094941
H    -0.019047  0.621173  0.148881
H    -0.640539  -0.858837  0.933052
N    -1.484778  1.208392  2.573931
C    -2.786589  0.950170  1.972395
C    -3.299787  -0.482558  2.244164
O    -2.555784  -1.458619  2.251990
H    -1.504026  1.695488  3.464704
H    -3.459695  1.653072  2.482703
C    -2.887008  1.248063  0.458231
C    -2.419281  2.649663  0.051372
C    -3.229981  3.793943  0.666975
C    -2.774450  5.184915  0.219241
N    -2.993227  5.393467  -1.219584
H    -3.940110  1.113877  0.163393
H    -2.325366  0.486969  -0.098578
H    -2.480364  2.706720  -1.046511
H    -1.357057  2.776248  0.314475
H    -3.153616  3.756089  1.765743
H    -4.295373  3.673846  0.409521
H    -1.722541  5.335520  0.535466
H    -3.371396  5.938494  0.752897
H    -2.885528  6.379932  -1.453457
H    -2.292485  4.895635  -1.769010
N    -4.648977  -0.617750  2.435053
C    -5.656265  0.423957  2.558375
H    -4.935516  -1.579653  2.587864
H    -5.504251  1.053877  3.448462
H    -6.636426  -0.054941  2.654720
H    -5.694529  1.072922  1.671953
