33
Energy: -18209.2373017 eV PBE+vdW (tier 2 basis)
C    -0.078458  -0.282671  0.415932
C    -0.039401  -0.580475  1.905339
O    0.960564  -1.034208  2.455858
H    -0.245142  0.786394  0.221034
H    -0.876461  -0.840371  -0.093755
H    0.887621  -0.570908  -0.006075
N    -1.174847  -0.303087  2.629407
C    -2.486029  0.093603  2.118375
C    -3.087642  1.070510  3.152732
O    -3.858942  0.689081  4.030752
H    -1.124626  -0.597832  3.602244
H    -2.319847  0.632189  1.175343
C    -3.417412  -1.090858  1.844883
C    -4.658703  -0.690841  1.045147
C    -5.611800  -1.856229  0.749193
C    -5.001600  -3.015848  -0.045005
N    -4.393615  -2.548555  -1.299851
H    -3.706588  -1.542142  2.805813
H    -2.834903  -1.838939  1.288076
H    -4.338097  -0.239858  0.092798
H    -5.216194  0.081571  1.596179
H    -6.484334  -1.466820  0.197680
H    -6.010444  -2.260018  1.693554
H    -5.783810  -3.786308  -0.188566
H    -4.206055  -3.494603  0.545965
H    -3.959574  -3.326249  -1.796625
H    -5.112075  -2.175202  -1.922740
N    -2.690497  2.374747  3.065844
C    -1.690086  2.945484  2.178082
H    -3.048844  2.955149  3.817686
H    -1.625659  4.020211  2.377359
H    -1.965849  2.824231  1.120714
H    -0.693831  2.506798  2.336445
