33
Energy: -18209.5505911 eV PBE+vdW (tier 2 basis)
C    -0.659589  -1.024797  -0.085013
C    -0.261567  -0.589370  1.309653
O    0.859887  -0.127521  1.553203
H    0.039230  -1.797792  -0.427910
H    -0.557178  -0.167741  -0.762244
H    -1.683772  -1.411451  -0.151835
N    -1.213998  -0.729057  2.273640
C    -1.001447  -0.321075  3.663831
C    -0.259091  -1.452179  4.431181
O    -0.841861  -2.231732  5.183649
H    -2.087717  -1.188511  2.042845
H    -0.341538  0.559010  3.622473
C    -2.325530  0.041708  4.328920
C    -2.139249  0.766530  5.666737
C    -3.454062  1.155259  6.353279
C    -4.275328  -0.031269  6.859619
N    -5.492585  0.439849  7.534640
H    -2.901405  -0.883909  4.479256
H    -2.895493  0.685429  3.639959
H    -1.544365  1.678081  5.495754
H    -1.548456  0.129929  6.343335
H    -4.080812  1.757401  5.675985
H    -3.220649  1.807937  7.211297
H    -3.626791  -0.670690  7.491124
H    -4.594909  -0.657026  6.012984
H    -6.063993  -0.350906  7.832404
H    -5.248470  0.952697  8.383576
N    1.073303  -1.484307  4.164403
C    1.940117  -2.533126  4.665020
H    1.393801  -0.887268  3.398210
H    2.153144  -3.290077  3.894473
H    1.434497  -3.024049  5.503147
H    2.890875  -2.108976  5.012401
