33
Energy: -18209.219412 eV PBE+vdW (tier 2 basis)
C    0.601036  0.187817  0.976056
C    0.316478  0.980860  2.242762
O    1.219054  1.503820  2.892583
H    1.678813  0.218327  0.797058
H    0.083431  0.615524  0.105148
H    0.284954  -0.860332  1.068047
N    -0.991904  1.098816  2.629649
C    -2.177103  0.568489  1.987750
C    -3.341301  1.501556  2.374151
O    -3.268663  2.228281  3.364434
H    -1.175537  1.706192  3.428667
H    -2.041894  0.596454  0.895590
C    -2.490252  -0.897245  2.395185
C    -2.798050  -1.089099  3.882504
C    -3.009801  -2.553542  4.286304
C    -1.749859  -3.418248  4.220554
N    -2.044278  -4.786784  4.663701
H    -1.618343  -1.501420  2.106026
H    -3.330436  -1.272700  1.789941
H    -3.698104  -0.513361  4.145813
H    -1.980143  -0.657682  4.480758
H    -3.791154  -3.018792  3.663961
H    -3.392245  -2.577104  5.320285
H    -0.945612  -2.919531  4.798813
H    -1.390279  -3.485299  3.182279
H    -2.301590  -4.789694  5.652129
H    -1.215992  -5.376263  4.581052
N    -4.466591  1.470036  1.603688
C    -4.741855  0.701109  0.402922
H    -5.207621  2.062460  1.966483
H    -5.177412  -0.286193  0.621543
H    -3.829032  0.552426  -0.185499
H    -5.448619  1.257883  -0.223574
