33
Energy: -18209.1932937 eV PBE+vdW (tier 2 basis)
C    0.469832  0.413358  1.164238
C    -0.074761  0.113312  2.550925
O    0.667911  -0.024002  3.520135
H    1.554336  0.516134  1.253373
H    0.058904  1.341337  0.744974
H    0.244788  -0.397033  0.458578
N    -1.436881  0.002672  2.697406
C    -2.491387  0.040804  1.684757
C    -3.616063  0.949878  2.234537
O    -4.600835  0.482295  2.801530
H    -1.720796  -0.249385  3.642217
H    -2.061746  0.497949  0.782989
C    -3.050901  -1.344456  1.334139
C    -2.022012  -2.303617  0.736018
C    -2.612228  -3.682898  0.425406
C    -1.621134  -4.653382  -0.219320
N    -0.539511  -5.018530  0.705399
H    -3.887399  -1.202686  0.631645
H    -3.498027  -1.777907  2.240724
H    -1.181883  -2.413884  1.439854
H    -1.604763  -1.874169  -0.192560
H    -3.474443  -3.564111  -0.251099
H    -2.993607  -4.136028  1.353913
H    -1.263083  -4.218770  -1.176194
H    -2.154037  -5.579696  -0.478975
H    0.022873  -5.774558  0.316207
H    0.097659  -4.235515  0.852702
N    -3.453143  2.299805  2.091261
C    -2.297161  3.020098  1.585393
H    -4.183119  2.836659  2.549468
H    -1.411013  2.896237  2.225698
H    -2.544812  4.086085  1.546490
H    -2.040877  2.709025  0.562914
