33
Energy: -18209.5202324 eV PBE+vdW (tier 2 basis)
C    -5.629942  3.853428  2.923803
C    -4.176094  3.509391  2.658915
O    -3.364950  4.345867  2.259111
H    -6.231362  2.999481  3.258627
H    -6.067272  4.263089  2.005005
H    -5.672231  4.641596  3.685823
N    -3.829160  2.211340  2.896322
C    -2.487835  1.712890  2.661582
C    -2.628057  0.234041  2.277605
O    -3.481258  -0.481945  2.804377
H    -4.511020  1.516927  3.189511
H    -2.061549  2.300928  1.833333
C    -1.589732  1.894195  3.908256
C    -0.110821  1.569820  3.692423
C    0.751114  1.889785  4.916592
C    2.251094  1.605835  4.726635
N    2.970401  2.413789  3.737123
H    -2.003290  1.281868  4.724807
H    -1.691726  2.946715  4.211237
H    0.255642  2.145345  2.823775
H    0.014842  0.504337  3.437679
H    0.389727  1.301259  5.776951
H    0.618057  2.949724  5.193561
H    2.390671  0.547110  4.453376
H    2.762434  1.737243  5.692233
H    2.881418  3.407817  3.953326
H    2.580382  2.284669  2.803451
N    -1.738594  -0.212060  1.350283
C    -1.664999  -1.597564  0.925637
H    -1.088400  0.457813  0.957290
H    -2.458327  -2.144310  1.445568
H    -0.694181  -2.043151  1.184824
H    -1.819979  -1.687272  -0.158042
