33
Energy: -18208.8444874 eV PBE+vdW (tier 2 basis)
C    -0.367575  -0.511447  1.104813
C    -0.890596  -0.927171  2.467272
O    -0.211253  -1.593835  3.243882
H    0.671897  -0.840969  1.031643
H    -0.408310  0.576109  0.960283
H    -0.948446  -0.984779  0.301359
N    -2.162173  -0.541728  2.818585
C    -3.170432  0.200383  2.062067
C    -3.549599  -0.575850  0.764973
O    -3.921886  -1.739855  0.893066
H    -2.460268  -0.964989  3.691100
H    -4.094357  0.061701  2.642304
C    -2.905900  1.717665  2.032623
C    -2.728326  2.333643  3.428235
C    -3.942489  2.209206  4.352443
C    -3.760718  2.960628  5.670586
N    -4.958109  2.835985  6.510969
H    -3.754550  2.206260  1.528882
H    -2.011542  1.949920  1.440123
H    -2.490280  3.401115  3.294597
H    -1.846752  1.883742  3.910246
H    -4.142063  1.148390  4.583086
H    -4.848642  2.589374  3.853867
H    -3.615615  4.031364  5.457431
H    -2.829392  2.609403  6.159180
H    -5.072181  1.871122  6.825682
H    -4.863820  3.402259  7.354036
N    -3.542506  -0.005993  -0.482093
C    -3.005357  1.241831  -1.006329
H    -3.876291  -0.674948  -1.170111
H    -3.064668  1.192444  -2.098868
H    -1.950693  1.389347  -0.740379
H    -3.578470  2.120225  -0.682007
