33
Energy: -18209.4566439 eV PBE+vdW (tier 2 basis)
C    0.512723  0.891458  0.378590
C    0.238770  0.604928  1.841902
O    1.151658  0.620922  2.677638
H    0.983119  1.878845  0.294970
H    -0.380225  0.864035  -0.257477
H    1.235108  0.153098  0.008593
N    -1.059614  0.339981  2.155476
C    -1.598279  -0.050123  3.470887
C    -1.620804  1.103926  4.504828
O    -2.683001  1.421367  5.045895
H    -1.733737  0.407717  1.403546
H    -2.663662  -0.246283  3.295632
C    -0.955337  -1.354435  3.991300
C    -1.616163  -1.945741  5.247043
C    -1.180993  -1.326301  6.579664
C    -1.789355  -2.040611  7.784445
N    -1.353081  -1.404773  9.035265
H    0.117903  -1.197558  4.166065
H    -1.031587  -2.080804  3.167610
H    -1.378095  -3.021487  5.270553
H    -2.713170  -1.882387  5.151740
H    -1.475347  -0.267405  6.621714
H    -0.083618  -1.352414  6.667898
H    -1.444641  -3.087003  7.804781
H    -2.891111  -2.073953  7.662292
H    -1.724836  -0.454861  9.089467
H    -1.729236  -1.905273  9.840679
N    -0.420250  1.667726  4.774872
C    -0.259463  2.717328  5.760126
H    0.387245  1.326545  4.241283
H    0.378463  3.518036  5.364460
H    0.194225  2.333019  6.686860
H    -1.247966  3.123627  5.999943
