33
Energy: -18209.4918737 eV PBE+vdW (tier 2 basis)
C    0.646492  0.291978  0.009725
C    0.462922  0.278678  1.514529
O    1.417990  0.481601  2.275698
H    1.097973  1.247910  -0.282065
H    -0.281801  0.144847  -0.555389
H    1.355436  -0.500666  -0.261277
N    -0.803932  0.034094  1.949673
C    -1.255109  -0.127442  3.342577
C    -1.262295  1.186971  4.167800
O    -2.304999  1.568768  4.702087
H    -1.518373  -0.063669  1.239454
H    -2.320596  -0.379219  3.270274
C    -0.534505  -1.282315  4.064719
C    -1.065373  -1.524343  5.479105
C    -0.415018  -2.736508  6.151730
C    -0.845284  -2.942005  7.605079
N    -2.279085  -3.250768  7.708515
H    0.545510  -1.082870  4.096416
H    -0.669404  -2.189616  3.454128
H    -2.158216  -1.659797  5.435971
H    -0.892606  -0.627445  6.096457
H    0.681038  -2.619617  6.127901
H    -0.652972  -3.648890  5.581640
H    -0.539120  -2.055241  8.197422
H    -0.295048  -3.799797  8.018781
H    -2.510866  -3.537230  8.659277
H    -2.840269  -2.419688  7.519219
N    -0.062660  1.807909  4.281041
C    0.106487  3.042542  5.020101
H    0.715767  1.418101  3.736749
H    0.902162  2.941438  5.771232
H    -0.838051  3.270152  5.525584
H    0.362067  3.878136  4.351902
