33
Energy: -18209.111286 eV PBE+vdW (tier 2 basis)
C    0.966905  -0.139724  0.108237
C    0.821962  0.048954  1.610869
O    1.802990  0.243721  2.326535
H    1.522744  0.713155  -0.299450
H    0.016140  -0.239098  -0.430123
H    1.570122  -1.038639  -0.071841
N    -0.468164  -0.016243  2.066986
C    -0.992833  0.023201  3.439486
C    -1.731213  1.347157  3.771006
O    -2.927117  1.297459  4.068698
H    -1.178395  -0.152384  1.357348
H    -1.827939  -0.691969  3.445141
C    -0.021058  -0.433443  4.541083
C    -0.726548  -0.587685  5.891798
C    0.204033  -1.139705  6.975253
C    -0.432415  -1.202211  8.364617
N    -1.560662  -2.144094  8.404069
H    0.829657  0.250605  4.636536
H    0.405499  -1.399685  4.231463
H    -1.597982  -1.251415  5.771247
H    -1.127533  0.386773  6.217161
H    1.105846  -0.508346  7.035224
H    0.539699  -2.150814  6.694809
H    -0.702770  -0.173553  8.680960
H    0.319645  -1.562392  9.081832
H    -1.867111  -2.288245  9.365854
H    -2.365125  -1.762993  7.905066
N    -1.064385  2.535675  3.763732
C    0.293545  2.861481  3.362436
H    -1.683207  3.312367  3.981099
H    0.718007  3.591512  4.064150
H    0.323748  3.294900  2.350094
H    0.935229  1.975433  3.363014
