33
Energy: -18209.1945537 eV PBE+vdW (tier 2 basis)
C    -0.198821  0.072594  -0.307985
C    0.093924  -0.246878  1.143900
O    1.230893  -0.459285  1.562678
H    -0.589819  1.093731  -0.421380
H    -0.951367  -0.607255  -0.730536
H    0.733100  -0.018865  -0.871238
N    -0.981504  -0.293890  1.998437
C    -2.360310  0.078459  1.722363
C    -2.611727  1.577036  1.431864
O    -3.431577  1.886174  0.567487
H    -0.720196  -0.499799  2.958723
H    -2.686507  -0.408881  0.791564
C    -3.288425  -0.405704  2.849553
C    -3.396049  -1.929432  2.946901
C    -4.313725  -2.388043  4.082550
C    -4.519226  -3.904572  4.135071
N    -5.206992  -4.388099  2.930040
H    -4.283452  0.023877  2.662129
H    -2.948090  0.016956  3.811492
H    -2.397366  -2.373506  3.089156
H    -3.774505  -2.330988  1.995384
H    -5.298194  -1.897341  3.983719
H    -3.908624  -2.055929  5.052565
H    -5.040343  -4.160239  5.078221
H    -3.537199  -4.401582  4.176278
H    -5.213134  -5.407042  2.902173
H    -6.184069  -4.091858  2.935217
N    -1.939603  2.537034  2.135309
C    -1.007113  2.424841  3.248847
H    -2.199502  3.472783  1.839512
H    -1.381501  1.750901  4.030716
H    -0.903559  3.417238  3.701874
H    -0.010444  2.084019  2.937024
