33
Energy: -18209.1519081 eV PBE+vdW (tier 2 basis)
C    -0.658391  -1.034395  -0.026668
C    -0.272438  -0.541869  1.352836
O    0.892369  -0.569667  1.748409
H    -1.660428  -1.473081  -0.089290
H    0.091382  -1.764402  -0.345106
H    -0.623416  -0.187110  -0.726606
N    -1.254703  -0.026609  2.167123
C    -2.698432  0.107959  1.963023
C    -3.396533  -1.242361  1.680367
O    -4.089661  -1.423649  0.679205
H    -0.874516  0.326702  3.040037
H    -3.092276  0.450237  2.934513
C    -3.094819  1.163066  0.921337
C    -2.482403  2.549066  1.164690
C    -2.687221  3.189920  2.547452
C    -4.132219  3.449506  2.991101
N    -4.831062  2.230062  3.445096
H    -4.192728  1.212361  0.897388
H    -2.816260  0.813638  -0.081850
H    -2.881399  3.231441  0.396886
H    -1.398611  2.493965  0.977713
H    -2.162875  4.158700  2.537980
H    -2.194718  2.592923  3.332084
H    -4.672662  3.981589  2.184284
H    -4.103317  4.137551  3.847946
H    -5.587491  2.477948  4.081679
H    -5.272906  1.748913  2.661682
N    -3.223638  -2.232836  2.604991
C    -2.518784  -2.188714  3.875822
H    -3.687745  -3.098029  2.347916
H    -2.730577  -1.255966  4.415806
H    -1.429998  -2.286239  3.758815
H    -2.878151  -3.015095  4.499432
