33
Energy: -18209.1414188 eV PBE+vdW (tier 2 basis)
C    -0.443862  1.403001  -0.246811
C    -0.178755  1.296024  1.238921
O    0.810224  1.810526  1.764814
H    -1.498530  1.561826  -0.498417
H    -0.134804  0.470049  -0.740586
H    0.163124  2.222523  -0.640535
N    -1.037113  0.543195  2.007263
C    -2.418935  0.125130  1.738416
C    -2.512664  -0.788491  0.489716
O    -3.245429  -0.523115  -0.460075
H    -0.753116  0.546059  2.982399
H    -2.686851  -0.511498  2.599589
C    -3.445274  1.265980  1.667536
C    -3.677627  2.046168  2.973066
C    -2.518752  2.883274  3.540294
C    -1.957049  3.949965  2.597103
N    -0.726230  4.521401  3.154567
H    -4.396813  0.815635  1.352958
H    -3.174285  1.948122  0.850548
H    -4.015179  1.343119  3.753334
H    -4.535293  2.715465  2.795873
H    -1.688606  2.234508  3.858425
H    -2.857347  3.381143  4.461151
H    -2.696098  4.758908  2.485114
H    -1.815530  3.522870  1.585146
H    0.034563  3.845004  3.047614
H    -0.446724  5.343833  2.619806
N    -1.744599  -1.919376  0.492917
C    -0.862698  -2.433956  1.527726
H    -1.840987  -2.460309  -0.360623
H    -0.700974  -3.502296  1.344657
H    -1.315043  -2.337534  2.523777
H    0.112238  -1.926715  1.542712
