33
Energy: -18209.4180041 eV PBE+vdW (tier 2 basis)
C    -1.533668  -2.109151  0.394837
C    -1.702796  -1.976152  1.897203
O    -1.868228  -2.954545  2.627370
H    -0.656741  -2.736994  0.193259
H    -1.412704  -1.149266  -0.122094
H    -2.409146  -2.629353  -0.012950
N    -1.654357  -0.700882  2.378835
C    -1.831129  -0.396099  3.787085
C    -2.563103  0.950188  3.852405
O    -2.263642  1.851127  3.063035
H    -1.560276  0.101485  1.762563
H    -2.419261  -1.218842  4.214377
C    -0.471333  -0.326781  4.520822
C    -0.562121  -0.081301  6.026568
C    0.803182  -0.132318  6.716657
C    0.746937  0.122587  8.224479
N    -0.079031  -0.884445  8.907497
H    0.134813  0.456888  4.039294
H    0.031648  -1.286680  4.329085
H    -1.220359  -0.828061  6.494051
H    -1.019257  0.903318  6.222033
H    1.480037  0.610227  6.263941
H    1.270242  -1.116026  6.533297
H    0.284838  1.105807  8.408041
H    1.782610  0.184771  8.611933
H    0.366605  -1.801893  8.851249
H    -0.161401  -0.665857  9.900092
N    -3.529411  1.133127  4.794451
C    -4.042609  0.212040  5.795818
H    -3.908409  2.076214  4.785846
H    -3.523755  0.307733  6.761022
H    -3.945706  -0.823966  5.456201
H    -5.109875  0.411945  5.950768
