33
Energy: -18208.9071641 eV PBE+vdW (tier 2 basis)
C    -1.030450  0.145108  -0.006380
C    -0.385647  0.248536  1.368331
O    0.804948  0.487638  1.503273
H    -1.312284  1.157149  -0.329723
H    -1.927265  -0.488019  -0.028446
H    -0.292687  -0.244003  -0.714715
N    -1.270226  0.029089  2.408028
C    -1.115435  0.409737  3.812479
C    -1.065090  1.953871  3.954263
O    -0.829253  2.698060  3.009523
H    -2.236634  -0.039967  2.111325
H    -2.077900  0.115389  4.263336
C    -0.070874  -0.402215  4.624324
C    1.431507  -0.322780  4.320282
C    2.112568  1.043513  4.463143
C    2.084490  1.676625  5.855906
N    2.608058  0.762202  6.884340
H    -0.376992  -1.454326  4.517712
H    -0.227765  -0.163208  5.686531
H    1.615008  -0.680400  3.301544
H    1.912141  -1.033667  5.009754
H    1.688939  1.751722  3.737812
H    3.166552  0.919592  4.160320
H    1.051729  1.928821  6.137423
H    2.627797  2.640414  5.802285
H    2.640956  1.227688  7.791520
H    3.571639  0.504136  6.662244
N    -1.364296  2.474498  5.189754
C    -1.805697  1.814557  6.405536
H    -1.301063  3.487678  5.201900
H    -2.383804  2.529371  7.002894
H    -0.970778  1.447809  7.023837
H    -2.465355  0.965581  6.184393
