33
Energy: -18208.9158287 eV PBE+vdW (tier 2 basis)
C    -0.110981  -1.150267  -0.053603
C    0.086976  -0.705296  1.381884
O    1.154115  -0.918820  1.958173
H    -0.314479  -0.302235  -0.718483
H    -0.939296  -1.861591  -0.158019
H    0.815722  -1.637360  -0.367890
N    -0.909117  -0.039216  2.063596
C    -2.312037  0.340467  1.845658
C    -3.237292  -0.300801  2.911054
O    -3.960028  0.422887  3.596436
H    -0.573194  0.201454  2.994343
H    -2.384322  1.409568  2.097822
C    -2.878561  0.194534  0.425975
C    -4.301604  0.749863  0.306469
C    -4.824600  0.706547  -1.131712
C    -6.276438  1.168696  -1.272225
N    -6.430797  2.585352  -0.914045
H    -2.875735  -0.853527  0.095792
H    -2.222552  0.744019  -0.265175
H    -4.311976  1.785853  0.679392
H    -4.981912  0.182606  0.961918
H    -4.750707  -0.324263  -1.517068
H    -4.191141  1.336968  -1.776075
H    -6.927282  0.488429  -0.685185
H    -6.579992  1.061190  -2.323697
H    -7.353052  2.921875  -1.188863
H    -6.372430  2.712364  0.096702
N    -3.253308  -1.657755  3.074022
C    -2.466898  -2.697207  2.427653
H    -3.873505  -1.941774  3.826019
H    -2.895631  -3.666947  2.702903
H    -1.412258  -2.685286  2.735802
H    -2.513040  -2.621964  1.334226
