33
Energy: -18209.3907105 eV PBE+vdW (tier 2 basis)
C    -0.215961  1.176480  -0.148639
C    0.073870  0.088904  0.867555
O    1.214937  -0.265857  1.150267
H    -0.850492  1.971293  0.266578
H    -0.735623  0.766530  -1.026619
H    0.737881  1.601617  -0.470539
N    -1.013044  -0.492004  1.486662
C    -2.427474  -0.254650  1.230278
C    -3.037777  0.938617  2.006036
O    -4.180118  1.316771  1.753948
H    -0.760719  -1.262408  2.100451
H    -2.558956  0.005791  0.170254
C    -3.265601  -1.518719  1.497839
C    -3.266678  -1.995542  2.955248
C    -4.111588  -3.254342  3.191054
C    -5.614544  -3.052382  2.990156
N    -6.339858  -4.291830  3.294062
H    -2.903127  -2.321752  0.837034
H    -4.289163  -1.278739  1.182839
H    -3.631742  -1.182457  3.604064
H    -2.238446  -2.211139  3.290268
H    -3.941197  -3.602026  4.223573
H    -3.772939  -4.072344  2.535783
H    -5.824318  -2.802920  1.939569
H    -5.941297  -2.178112  3.589349
H    -6.268704  -4.510934  4.288932
H    -7.333746  -4.184318  3.092553
N    -2.237050  1.494823  2.952177
C    -2.652300  2.612069  3.776091
H    -1.310428  1.096764  3.062977
H    -1.987635  3.476098  3.638245
H    -2.661130  2.339684  4.840778
H    -3.667279  2.889141  3.471002
