33
Energy: -18209.0784101 eV PBE+vdW (tier 2 basis)
C    -0.023621  0.228952  -0.107448
C    -0.029574  0.446870  1.394608
O    0.929527  0.972380  1.967002
H    -0.980150  -0.121440  -0.513780
H    0.752982  -0.509341  -0.348602
H    0.255102  1.169084  -0.597049
N    -1.134039  -0.027368  2.038024
C    -1.466871  0.060396  3.469717
C    -2.237190  1.385517  3.738867
O    -3.461947  1.372610  3.586951
H    -1.893127  -0.348277  1.449008
H    -2.275206  -0.672953  3.598382
C    -0.357982  -0.337369  4.458402
C    -0.056216  -1.847605  4.500090
C    0.808528  -2.432055  3.367875
C    2.334211  -2.290711  3.542712
N    2.914532  -0.949711  3.638779
H    -0.724166  -0.034800  5.452338
H    0.557004  0.228820  4.271851
H    -1.016184  -2.388757  4.536971
H    0.438428  -2.067903  5.461282
H    0.509147  -2.006584  2.399197
H    0.596027  -3.511633  3.292039
H    2.816887  -2.807023  2.696459
H    2.641259  -2.845993  4.443971
H    2.696218  -0.524902  4.539235
H    2.528220  -0.327696  2.924520
N    -1.598299  2.530698  4.105423
C    -0.189936  2.824734  4.336426
H    -2.259116  3.288485  4.252361
H    0.120470  2.588300  5.366088
H    -0.034792  3.897429  4.172025
H    0.443919  2.282535  3.626536
