33
Energy: -18209.4466592 eV PBE+vdW (tier 2 basis)
C    -0.081437  0.535601  -0.590656
C    -0.367844  -0.071179  0.769659
O    -0.053163  -1.229057  1.046902
H    -0.564896  -0.080541  -1.358883
H    0.999674  0.496953  -0.773498
H    -0.424144  1.572483  -0.691167
N    -0.975567  0.766743  1.663416
C    -1.462892  0.306290  2.948466
C    -2.906525  0.808325  3.092513
O    -3.276963  1.829413  2.508156
H    -1.398427  1.634756  1.340909
H    -1.413730  -0.791377  2.924122
C    -0.617274  0.844494  4.129308
C    0.857332  0.422095  4.105551
C    1.137602  -1.079914  4.271707
C    0.592179  -1.714693  5.551821
N    1.173732  -1.106661  6.757358
H    -1.091304  0.528955  5.072439
H    -0.682485  1.943323  4.109816
H    1.384706  0.987517  4.890558
H    1.305712  0.755664  3.157813
H    2.228223  -1.225556  4.254041
H    0.736866  -1.623495  3.403031
H    -0.517113  -1.690376  5.537880
H    0.869940  -2.778851  5.554796
H    0.869253  -1.605464  7.593061
H    0.857646  -0.142583  6.867811
N    -3.747611  0.114264  3.909189
C    -3.478485  -1.088920  4.676959
H    -4.657169  0.553997  4.014158
H    -4.419230  -1.628830  4.834641
H    -3.034505  -0.873192  5.661642
H    -2.801016  -1.756873  4.133055
