33
Energy: -18209.4144233 eV PBE+vdW (tier 2 basis)
C    0.481834  -0.919744  0.757781
C    -0.037429  -0.607519  2.147831
O    0.479576  -1.084537  3.159195
H    1.540864  -0.638514  0.707464
H    -0.063233  -0.407383  -0.044419
H    0.422979  -2.003163  0.595184
N    -1.106409  0.243702  2.196000
C    -1.755055  0.632566  3.443251
C    -3.135143  -0.055317  3.499355
O    -4.076953  0.383899  2.834592
H    -1.544574  0.541003  1.330766
H    -1.091419  0.265055  4.231825
C    -1.897699  2.160381  3.516494
C    -2.596394  2.737416  4.757693
C    -1.818757  2.706334  6.083273
C    -1.752004  1.358512  6.827349
N    -3.024515  0.738768  7.209495
H    -0.886812  2.586885  3.422695
H    -2.467128  2.477710  2.629739
H    -3.582435  2.260262  4.880099
H    -2.824503  3.789210  4.529926
H    -2.278092  3.441633  6.765059
H    -0.787522  3.059953  5.910721
H    -1.166932  1.500161  7.748622
H    -1.185203  0.623523  6.237628
H    -3.621609  0.600871  6.392939
H    -3.541549  1.349533  7.843630
N    -3.271413  -1.160800  4.283367
C    -2.267778  -1.903308  5.041211
H    -4.209784  -1.550361  4.244664
H    -2.292695  -1.641290  6.109190
H    -1.264066  -1.724171  4.640017
H    -2.473083  -2.976400  4.939900
