33
Energy: -18209.3267397 eV PBE+vdW (tier 2 basis)
C    -0.035890  -0.237373  -0.087846
C    0.099797  -0.040052  1.414165
O    1.198249  0.011350  1.962252
H    -0.562460  0.605061  -0.559443
H    -0.589141  -1.153736  -0.334478
H    0.970236  -0.305773  -0.509199
N    -1.056793  0.087913  2.138009
C    -2.425212  0.094023  1.666377
C    -3.241143  0.928214  2.678566
O    -2.826356  1.149669  3.813894
H    -0.946527  0.322630  3.125083
H    -2.476810  0.594815  0.685848
C    -3.036090  -1.325265  1.515050
C    -3.128169  -2.112314  2.824944
C    -3.563931  -3.572704  2.645099
C    -5.005102  -3.756614  2.143285
N    -5.488854  -5.136622  2.041961
H    -2.414776  -1.881521  0.795720
H    -4.028598  -1.228519  1.047310
H    -3.822722  -1.606486  3.515677
H    -2.144910  -2.090455  3.317540
H    -3.464920  -4.092169  3.612219
H    -2.871764  -4.083812  1.953431
H    -5.123376  -3.298686  1.149067
H    -5.691410  -3.209567  2.810696
H    -5.415484  -5.605202  2.946531
H    -4.905033  -5.671103  1.396758
N    -4.452290  1.352440  2.224377
C    -5.394679  2.081338  3.054011
H    -4.708045  1.142953  1.266925
H    -5.616181  3.069215  2.627709
H    -4.933079  2.214786  4.037623
H    -6.334526  1.524287  3.172017
