33
Energy: -18209.3904956 eV PBE+vdW (tier 2 basis)
C    0.694843  0.831176  0.500788
C    0.378507  0.089281  1.786172
O    1.175913  -0.694380  2.304220
H    1.588454  1.447460  0.660634
H    -0.122802  1.472166  0.148977
H    0.938194  0.098028  -0.277995
N    -0.844924  0.354970  2.327844
C    -1.309052  -0.292455  3.541867
C    -2.813552  -0.529351  3.360915
O    -3.516867  0.346353  2.850237
H    -1.511603  0.968266  1.868169
H    -0.738728  -1.225734  3.628317
C    -1.042767  0.593079  4.785161
C    -1.270124  -0.075995  6.144286
C    -0.217419  -1.129021  6.507245
C    -0.448606  -1.796029  7.864773
N    -0.376074  -0.818407  8.959732
H    -1.673774  1.489678  4.693194
H    0.002808  0.928288  4.710063
H    -2.277797  -0.523527  6.186553
H    -1.269154  0.697733  6.924138
H    0.780937  -0.658167  6.500667
H    -0.166406  -1.918604  5.741855
H    0.262515  -2.638381  7.972414
H    -1.459182  -2.236483  7.885728
H    0.580825  -0.476899  9.063135
H    -0.624918  -1.253090  9.847775
N    -3.353236  -1.706283  3.785597
C    -2.697948  -2.875165  4.348604
H    -4.362370  -1.739431  3.671513
H    -3.299415  -3.761683  4.116219
H    -2.584118  -2.812423  5.441358
H    -1.707776  -3.022845  3.903615
