33
Energy: -18209.1339472 eV PBE+vdW (tier 2 basis)
C    -0.035074  1.287685  0.960068
C    -0.250551  0.540393  2.261242
O    0.594895  0.521287  3.151398
H    -0.258859  2.349121  1.136146
H    -0.668014  0.929902  0.138213
H    1.017986  1.208907  0.671697
N    -1.456787  -0.103328  2.366400
C    -2.010570  -0.599301  3.624981
C    -1.989868  0.521016  4.701886
O    -2.083262  1.700211  4.378349
H    -2.132426  0.113984  1.644325
H    -3.090941  -0.696271  3.423581
C    -1.561365  -2.038536  3.976215
C    -0.083883  -2.402736  4.226871
C    0.473269  -2.221606  5.653176
C    1.215600  -0.907875  5.975779
N    2.454838  -0.665478  5.243209
H    -1.902173  -2.642606  3.121321
H    -2.177708  -2.393808  4.821245
H    0.559422  -1.874603  3.510460
H    0.000743  -3.469685  3.972328
H    1.183164  -3.042776  5.849256
H    -0.333957  -2.378912  6.394856
H    1.438950  -0.911131  7.056697
H    0.571368  -0.040042  5.791017
H    3.023644  -1.509980  5.178098
H    2.240991  -0.346251  4.298126
N    -2.012912  0.093706  5.995115
C    -2.013511  1.017380  7.113909
H    -1.810509  -0.880471  6.180464
H    -2.728834  0.692623  7.880442
H    -2.306828  2.001708  6.735399
H    -1.014678  1.101257  7.568618
