33
Energy: -18208.864099 eV PBE+vdW (tier 2 basis)
C    -0.940790  -1.904886  0.826157
C    -0.563349  -1.008825  1.991036
O    0.417606  -1.243630  2.693243
H    -1.103482  -1.342176  -0.101984
H    -1.861281  -2.460622  1.052536
H    -0.126381  -2.618103  0.675407
N    -1.357572  0.080544  2.254832
C    -2.591055  0.531524  1.606556
C    -3.678989  -0.580506  1.676589
O    -3.959304  -1.034910  2.784093
H    -1.095744  0.541055  3.119910
H    -3.012309  1.263328  2.314306
C    -2.349136  1.297512  0.298108
C    -1.506568  2.559358  0.507205
C    -1.213057  3.358449  -0.770306
C    -2.412571  4.028808  -1.450888
N    -3.268638  3.064783  -2.167416
H    -3.311434  1.587209  -0.139720
H    -1.851831  0.660739  -0.448316
H    -0.548962  2.279455  0.972207
H    -2.015766  3.219248  1.231825
H    -0.699257  2.711455  -1.503425
H    -0.489749  4.150148  -0.521261
H    -2.033786  4.836217  -2.106567
H    -3.035810  4.517730  -0.684997
H    -4.067636  3.546747  -2.580785
H    -2.749392  2.658587  -2.947940
N    -4.370915  -1.015304  0.575572
C    -4.168297  -0.855402  -0.859359
H    -5.064259  -1.703360  0.855033
H    -3.155008  -1.140473  -1.172805
H    -4.368038  0.165788  -1.208049
H    -4.870025  -1.527490  -1.365092
