33
Energy: -18209.3324761 eV PBE+vdW (tier 2 basis)
C    -0.525264  0.393156  -0.039720
C    -0.626776  0.262795  1.469395
O    -0.379093  1.190715  2.230171
H    -1.300659  1.089899  -0.383996
H    -0.640206  -0.556619  -0.577199
H    0.445529  0.835264  -0.292265
N    -1.006484  -0.979642  1.929804
C    -1.342661  -1.215204  3.332296
C    -0.123165  -1.553411  4.215482
O    -0.203035  -1.493091  5.441161
H    -1.339105  -1.656546  1.250993
H    -1.725839  -0.271202  3.740038
C    -2.417234  -2.324250  3.391068
C    -3.028593  -2.660899  4.760615
C    -4.146357  -1.730301  5.252568
C    -3.728331  -0.305688  5.624045
N    -4.852022  0.394141  6.265836
H    -1.966339  -3.239933  2.971356
H    -3.225376  -2.027932  2.700691
H    -2.230569  -2.716185  5.514126
H    -3.451369  -3.673994  4.682191
H    -4.590432  -2.194105  6.149936
H    -4.960080  -1.680944  4.510540
H    -3.477874  0.265549  4.717463
H    -2.807250  -0.345470  6.235660
H    -5.055151  -0.031016  7.172306
H    -4.600388  1.364282  6.456635
N    0.993045  -1.950516  3.546777
C    2.241615  -2.244324  4.220787
H    0.978659  -1.847125  2.538256
H    2.651079  -3.206312  3.884523
H    2.034138  -2.296984  5.294991
H    2.989965  -1.457409  4.045939
