33
Energy: -18209.2816272 eV PBE+vdW (tier 2 basis)
C    0.363192  -2.770461  0.776507
C    0.590144  -1.305578  1.089691
O    1.716593  -0.822694  1.160789
H    0.239306  -2.890383  -0.308800
H    -0.520167  -3.199978  1.262954
H    1.258225  -3.322298  1.078132
N    -0.516601  -0.504853  1.307293
C    -1.936496  -0.807394  1.099474
C    -2.495626  -1.818421  2.137969
O    -3.450083  -2.547147  1.877965
H    -0.260817  0.475361  1.387165
H    -2.453145  0.137656  1.336910
C    -2.321787  -1.187271  -0.345077
C    -3.727532  -0.726785  -0.742232
C    -4.101258  -1.133635  -2.168447
C    -5.499366  -0.673774  -2.576824
N    -5.791154  -1.059838  -3.963994
H    -2.251012  -2.276564  -0.472258
H    -1.581243  -0.730138  -1.018696
H    -3.788205  0.371845  -0.646810
H    -4.454942  -1.148095  -0.033050
H    -4.044179  -2.232631  -2.255930
H    -3.373582  -0.729256  -2.890037
H    -5.549860  0.425358  -2.522295
H    -6.233345  -1.058657  -1.840304
H    -5.838548  -2.077005  -4.043712
H    -6.705427  -0.707908  -4.248240
N    -1.879145  -1.780761  3.350538
C    -2.269313  -2.631646  4.456767
H    -1.049393  -1.202113  3.426625
H    -1.483493  -3.361681  4.699126
H    -3.173922  -3.172102  4.158308
H    -2.486090  -2.035446  5.353477
