33
Energy: -18209.4593733 eV PBE+vdW (tier 2 basis)
C    0.718173  -2.143990  0.424606
C    -0.031706  -1.360552  1.485914
O    -0.728002  -0.388864  1.214573
H    -0.013261  -2.664825  -0.207335
H    1.421429  -2.881788  0.831149
H    1.261885  -1.441668  -0.217602
N    0.138451  -1.812972  2.777740
C    -0.670393  -1.325159  3.888474
C    0.138322  -0.572245  4.968822
O    -0.365778  -0.302471  6.056750
H    0.609366  -2.703466  2.903538
H    -1.336182  -0.567363  3.441876
C    -1.516252  -2.439800  4.516573
C    -2.602829  -2.975749  3.582468
C    -3.410812  -4.142239  4.164673
C    -4.225710  -3.820073  5.432402
N    -5.234947  -2.763393  5.328995
H    -1.946805  -2.024514  5.437126
H    -0.851611  -3.261666  4.839443
H    -2.150791  -3.302931  2.632718
H    -3.281708  -2.150174  3.311192
H    -2.731286  -4.981803  4.394065
H    -4.101231  -4.515170  3.389742
H    -3.550647  -3.547681  6.257653
H    -4.735853  -4.739820  5.758056
H    -5.861442  -2.935475  4.541177
H    -4.801033  -1.854893  5.164922
N    1.402048  -0.218549  4.609900
C    2.258426  0.588479  5.455392
H    1.692154  -0.447079  3.665786
H    2.408566  1.593312  5.034420
H    3.238193  0.111296  5.592631
H    1.766266  0.685284  6.429161
