33
Energy: -18209.1294105 eV PBE+vdW (tier 2 basis)
C    -0.514446  -0.569983  -0.403346
C    -0.356866  -0.567757  1.102625
O    0.725181  -0.784764  1.645626
H    -1.140002  0.247566  -0.779104
H    -0.982584  -1.509263  -0.730865
H    0.484403  -0.507673  -0.843121
N    -1.475178  -0.359056  1.879520
C    -2.842520  0.015487  1.510710
C    -3.459265  -0.929776  0.451396
O    -3.908213  -0.511370  -0.612607
H    -1.250694  -0.368561  2.870190
H    -3.430093  -0.149754  2.428771
C    -3.009126  1.487918  1.101443
C    -2.400203  2.490027  2.088147
C    -3.022262  2.478756  3.488762
C    -2.398197  3.492715  4.451124
N    -2.642906  4.875414  4.018358
H    -4.085218  1.680188  0.978251
H    -2.572625  1.634866  0.104576
H    -2.520287  3.492020  1.648843
H    -1.313964  2.317305  2.167620
H    -2.915123  1.480383  3.945946
H    -4.103129  2.680260  3.414764
H    -1.323101  3.250142  4.577905
H    -2.864061  3.373184  5.440091
H    -2.391028  5.528118  4.759873
H    -2.056405  5.115032  3.218805
N    -3.499658  -2.261669  0.760150
C    -3.066578  -2.940747  1.970409
H    -3.902175  -2.824673  0.017663
H    -3.556928  -3.919913  2.012027
H    -3.367236  -2.386354  2.869604
H    -1.978176  -3.090909  2.006275
