33
Energy: -18209.082416 eV PBE+vdW (tier 2 basis)
C    1.452122  0.376171  1.589699
C    0.641127  0.737134  2.822148
O    1.135994  1.320417  3.781734
H    0.849513  0.012006  0.748208
H    2.176538  -0.401119  1.866326
H    2.022589  1.256296  1.271688
N    -0.680876  0.378264  2.772983
C    -1.618027  0.455926  3.893544
C    -1.416080  1.697264  4.801119
O    -1.336577  1.594861  6.021533
H    -0.986434  -0.157355  1.968728
H    -2.608432  0.624026  3.433595
C    -1.728194  -0.869497  4.683970
C    -0.428895  -1.607651  5.049347
C    0.446058  -1.007370  6.156293
C    -0.182019  -1.067772  7.547348
N    0.654177  -0.330025  8.506613
H    -2.334076  -1.550389  4.064312
H    -2.322175  -0.659561  5.583585
H    0.179572  -1.727898  4.138674
H    -0.716658  -2.632769  5.338088
H    0.685087  0.036983  5.915118
H    1.407055  -1.543678  6.182659
H    -0.237607  -2.116634  7.883058
H    -1.217995  -0.685256  7.498100
H    0.647427  0.659237  8.248693
H    0.244571  -0.380135  9.440166
N    -1.508984  2.930066  4.212900
C    -1.540874  3.287707  2.807818
H    -1.331164  3.676745  4.877455
H    -2.202610  2.618166  2.245282
H    -0.544484  3.267675  2.338671
H    -1.946335  4.302498  2.716546
