33
Energy: -18209.0052338 eV PBE+vdW (tier 2 basis)
C    -0.101549  0.136909  0.057866
C    0.025873  0.386221  1.546824
O    1.113308  0.350935  2.125753
H    -0.699413  0.908496  -0.444836
H    -0.578342  -0.834700  -0.136465
H    0.905168  0.120093  -0.367622
N    -1.117810  0.682247  2.250618
C    -2.484944  0.354242  1.857123
C    -3.579940  1.386265  2.207006
O    -4.599494  1.383136  1.516399
H    -0.918137  0.716831  3.244964
H    -2.508707  0.374739  0.761205
C    -2.938112  -1.069177  2.272909
C    -2.972634  -1.414586  3.772109
C    -1.637543  -1.470905  4.537859
C    -0.550179  -2.364303  3.928843
N    0.748696  -2.074172  4.548703
H    -2.294660  -1.783658  1.738556
H    -3.948734  -1.200827  1.861093
H    -3.457791  -2.400399  3.855830
H    -3.651210  -0.717481  4.290556
H    -1.832950  -1.811859  5.565536
H    -1.211542  -0.463174  4.669018
H    -0.533007  -2.245716  2.829296
H    -0.801930  -3.418759  4.119676
H    1.412177  -2.819835  4.339214
H    1.138856  -1.227655  4.124874
N    -3.462574  2.264989  3.247199
C    -2.441432  2.436993  4.270434
H    -4.284288  2.858095  3.314189
H    -2.240974  1.505878  4.819492
H    -2.818568  3.160098  5.001294
H    -1.499725  2.828954  3.863487
