33
Energy: -18209.0579374 eV PBE+vdW (tier 2 basis)
C    0.232163  -0.548031  0.021707
C    0.100373  -0.304060  1.517624
O    1.091016  -0.121598  2.223122
H    0.862011  0.239963  -0.407460
H    -0.722706  -0.579305  -0.517822
H    0.753685  -1.501952  -0.130180
N    -1.190131  -0.309509  1.979092
C    -1.713700  -0.232420  3.350205
C    -2.393628  1.111419  3.709992
O    -3.525891  1.077621  4.197565
H    -1.901439  -0.466396  1.275338
H    -2.574039  -0.914312  3.359968
C    -0.753751  -0.687707  4.466408
C    -0.346682  -2.172249  4.388026
C    -1.192222  -3.128699  5.239577
C    -2.668348  -3.232909  4.851273
N    -3.341746  -4.241298  5.677896
H    -1.280662  -0.497477  5.414335
H    0.140645  -0.057628  4.465427
H    0.700834  -2.259238  4.707727
H    -0.353900  -2.504914  3.337535
H    -1.133526  -2.840769  6.301130
H    -0.745413  -4.135744  5.175187
H    -2.741248  -3.427098  3.759683
H    -3.176885  -2.274280  5.035208
H    -4.343553  -4.253826  5.488333
H    -2.990307  -5.174854  5.460034
N    -1.747753  2.296144  3.523358
C    -0.430361  2.583572  2.981407
H    -2.326405  3.087001  3.791805
H    -0.017815  3.459925  3.496455
H    -0.466012  2.801321  1.901935
H    0.259493  1.747433  3.132917
