33
Energy: -18209.1197938 eV PBE+vdW (tier 2 basis)
C    -0.037625  -0.121119  0.218164
C    -0.266329  -0.244401  1.713190
O    0.662776  -0.426498  2.501576
H    -0.955577  0.033174  -0.362360
H    0.462297  -1.030780  -0.136683
H    0.643673  0.719383  0.035942
N    -1.563450  -0.119249  2.121896
C    -1.982250  -0.337179  3.513073
C    -3.512904  -0.408040  3.587115
O    -4.072338  -1.379342  4.087809
H    -2.285554  -0.120946  1.410293
H    -1.650005  -1.339746  3.816760
C    -1.390104  0.696796  4.514834
C    -0.553778  0.041552  5.621687
C    0.287028  1.047429  6.428375
C    1.687082  1.306819  5.859663
N    1.663264  1.848311  4.491922
H    -2.201342  1.274476  4.984640
H    -0.780058  1.422916  3.963596
H    0.110271  -0.710473  5.167007
H    -1.228502  -0.509740  6.294317
H    0.415682  0.672817  7.455684
H    -0.253343  2.004783  6.511572
H    2.271985  0.367801  5.940242
H    2.190501  2.043446  6.503863
H    2.582718  2.220380  4.255426
H    1.482165  1.097842  3.818791
N    -4.245228  0.627927  3.051721
C    -3.824047  1.992036  2.758830
H    -5.241986  0.484434  3.194680
H    -4.429458  2.390992  1.934873
H    -2.775372  2.014549  2.448323
H    -3.936118  2.657577  3.629221
