33
Energy: -18209.336217 eV PBE+vdW (tier 2 basis)
C    -0.884543  -0.973139  -0.317475
C    -0.598328  -0.370611  1.044582
O    0.533744  0.051042  1.317532
H    -1.943166  -1.195332  -0.497936
H    -0.309513  -1.904326  -0.409702
H    -0.521261  -0.286634  -1.090850
N    -1.656460  -0.348342  1.899638
C    -1.754672  0.029951  3.326788
C    -1.289291  1.448215  3.748228
O    -1.895834  2.000323  4.669508
H    -2.520082  -0.712777  1.516416
H    -2.836339  0.094226  3.502344
C    -1.231064  -1.035301  4.319860
C    0.267095  -1.386829  4.278790
C    0.602050  -2.604615  3.406723
C    2.100065  -2.811300  3.185195
N    2.802174  -3.104247  4.445684
H    -1.827138  -1.951832  4.180350
H    -1.500996  -0.645678  5.311743
H    0.594404  -1.592767  5.308751
H    0.849910  -0.517431  3.938856
H    0.126423  -2.503946  2.420233
H    0.180710  -3.510207  3.872739
H    2.498772  -1.929582  2.645626
H    2.244430  -3.678554  2.523866
H    3.766147  -3.376917  4.254550
H    2.858180  -2.266911  5.026572
N    -0.230437  1.988964  3.110318
C    0.288070  3.290667  3.485277
H    0.267832  1.400495  2.428358
H    0.943689  3.654811  2.686799
H    0.859684  3.250007  4.425460
H    -0.537878  3.997760  3.629764
