33
Energy: -18209.5472298 eV PBE+vdW (tier 2 basis)
C    -1.471723  -1.493740  -0.408617
C    -1.264466  -0.778433  0.908944
O    -0.325617  -1.056865  1.665064
H    -2.431025  -1.261889  -0.887456
H    -1.398051  -2.574843  -0.245271
H    -0.661714  -1.204535  -1.091434
N    -2.160813  0.204415  1.201606
C    -2.027023  1.073067  2.370635
C    -2.690360  0.415178  3.611386
O    -3.762989  0.798349  4.074777
H    -2.951157  0.349711  0.584171
H    -0.946804  1.132962  2.569190
C    -2.595947  2.464780  2.098938
C    -2.008422  3.171735  0.869908
C    -0.484724  3.331650  0.889198
C    0.060620  4.176518  -0.263806
N    -0.186209  3.539846  -1.567323
H    -2.416025  3.069725  2.999955
H    -3.690823  2.391573  2.015198
H    -2.478042  4.166639  0.795171
H    -2.302284  2.629514  -0.043664
H    0.000020  2.344075  0.847762
H    -0.179821  3.800960  1.839539
H    1.149891  4.270481  -0.147469
H    -0.354477  5.202462  -0.188483
H    -1.164400  3.641597  -1.838798
H    0.357667  4.002895  -2.294890
N    -1.957107  -0.618291  4.105937
C    -2.424464  -1.457867  5.190645
H    -1.142424  -0.902807  3.556553
H    -1.638198  -1.587274  5.946180
H    -2.732969  -2.451497  4.831506
H    -3.289121  -0.968089  5.650948
