33
Energy: -18209.107709 eV PBE+vdW (tier 2 basis)
C    0.558883  -0.652593  0.314489
C    0.477889  -0.140843  1.744759
O    1.383220  0.533614  2.232664
H    0.754757  0.197230  -0.350277
H    -0.339838  -1.178798  -0.030551
H    1.417154  -1.332139  0.237194
N    -0.667816  -0.495278  2.407651
C    -1.064131  -0.278483  3.806369
C    -2.181501  0.784459  3.974026
O    -3.251056  0.438680  4.482707
H    -1.338170  -1.029371  1.867411
H    -1.600976  -1.194487  4.087433
C    0.094924  -0.109348  4.805632
C    -0.369058  -0.087992  6.271388
C    -1.094092  -1.342719  6.781486
C    -0.311255  -2.660398  6.646821
N    0.977899  -2.752944  7.341686
H    0.663348  0.802128  4.595624
H    0.799166  -0.937462  4.634605
H    -1.021503  0.783111  6.436857
H    0.523397  0.095059  6.890813
H    -2.064495  -1.449666  6.270874
H    -1.339349  -1.187185  7.845287
H    -0.124326  -2.886519  5.584870
H    -0.945140  -3.482162  7.013393
H    1.638371  -2.065583  6.977505
H    0.862587  -2.542177  8.334429
N    -1.975463  2.077725  3.599083
C    -0.857400  2.702401  2.912862
H    -2.802471  2.648180  3.754418
H    -0.660006  3.686956  3.356655
H    -1.066186  2.840633  1.840117
H    0.052643  2.101401  2.999044
