33
Energy: -18209.310108 eV PBE+vdW (tier 2 basis)
C    1.316159  -0.213827  0.044995
C    0.817479  -0.498058  1.448423
O    1.482960  -1.144635  2.258588
H    2.287835  0.290393  0.113147
H    0.633093  0.403700  -0.550917
H    1.478308  -1.168444  -0.471017
N    -0.408535  0.028262  1.752063
C    -1.072654  -0.223345  3.024415
C    -2.156697  -1.295778  2.804317
O    -3.161780  -1.040804  2.138161
H    -0.973644  0.423100  1.007448
H    -0.283454  -0.583590  3.694787
C    -1.702444  1.052039  3.601634
C    -0.662818  2.110361  3.981811
C    -1.221957  3.493706  4.345473
C    -2.163410  3.551578  5.556841
N    -3.563775  3.280555  5.195731
H    -2.288322  0.752107  4.485333
H    -2.427432  1.448689  2.873739
H    0.037844  2.231908  3.140866
H    -0.057061  1.732141  4.822544
H    -1.753895  3.926663  3.483200
H    -0.363615  4.153605  4.545329
H    -2.140341  4.570990  5.968683
H    -1.767060  2.886836  6.352769
H    -4.173155  3.443511  5.997269
H    -3.697992  2.306181  4.926316
N    -1.948912  -2.523717  3.354511
C    -0.796680  -2.998525  4.112160
H    -2.706323  -3.176496  3.175724
H    0.142495  -2.649193  3.664841
H    -0.795096  -4.093876  4.085147
H    -0.833807  -2.686181  5.167416
