33
Energy: -18209.2499206 eV PBE+vdW (tier 2 basis)
C    0.245267  -1.045398  0.495707
C    -0.407010  0.081048  1.270490
O    -0.026167  1.250244  1.157496
H    -0.479186  -1.635941  -0.079101
H    0.752878  -1.742624  1.176788
H    0.981569  -0.607647  -0.183214
N    -1.410596  -0.224818  2.158621
C    -2.309019  -1.381449  2.154244
C    -1.578757  -2.728878  2.346291
O    -1.690469  -3.655278  1.545884
H    -1.836838  0.625902  2.554522
H    -2.916806  -1.247789  3.065069
C    -3.267670  -1.433250  0.946420
C    -3.854993  -0.069250  0.562318
C    -4.700016  0.620336  1.658506
C    -4.385725  2.106378  1.858660
N    -3.012323  2.314872  2.363493
H    -4.070046  -2.149019  1.182098
H    -2.736887  -1.864583  0.087116
H    -4.464748  -0.201832  -0.342580
H    -3.029647  0.591374  0.257009
H    -4.552960  0.120855  2.628867
H    -5.770465  0.513959  1.426391
H    -5.082723  2.515287  2.603992
H    -4.575000  2.656434  0.918477
H    -2.339385  2.447090  1.605272
H    -2.962508  3.159840  2.930048
N    -0.810357  -2.857199  3.470071
C    -0.578803  -1.899650  4.539343
H    -0.346265  -3.757992  3.528433
H    -0.211274  -2.443760  5.417003
H    -1.508325  -1.392813  4.829508
H    0.155254  -1.129265  4.264710
