33
Energy: -18209.5096118 eV PBE+vdW (tier 2 basis)
C    0.940968  2.288861  0.659588
C    -0.148468  1.538290  1.404034
O    -1.254892  2.034434  1.622591
H    0.565090  2.561466  -0.334423
H    1.871410  1.719010  0.546823
H    1.154301  3.221886  1.195772
N    0.183610  0.280561  1.811786
C    -0.726366  -0.564745  2.560626
C    0.145768  -1.512501  3.394945
O    1.229089  -1.921020  2.971571
H    1.107935  -0.111605  1.651388
H    -1.331804  0.087772  3.209481
C    -1.682559  -1.338935  1.622576
C    -2.750817  -2.176410  2.331592
C    -3.873521  -2.639383  1.391556
C    -4.881584  -1.538238  1.040960
N    -5.616002  -1.102686  2.237511
H    -1.076218  -1.973501  0.957358
H    -2.159069  -0.574623  0.992090
H    -3.216632  -1.588980  3.140444
H    -2.284779  -3.054856  2.802281
H    -4.420170  -3.474879  1.859431
H    -3.444895  -3.043162  0.459885
H    -5.536217  -1.900419  0.225266
H    -4.352071  -0.659325  0.643627
H    -6.314644  -1.798243  2.501854
H    -6.119412  -0.235167  2.057573
N    -0.373843  -1.868825  4.599654
C    0.256415  -2.836227  5.477667
H    -1.275631  -1.486021  4.857674
H    0.418411  -2.411834  6.477486
H    1.224695  -3.098802  5.039342
H    -0.351100  -3.747894  5.571989
