33
Energy: -18209.2286354 eV PBE+vdW (tier 2 basis)
C    0.110061  -2.198005  1.392964
C    -0.303963  -1.298522  2.545142
O    0.109402  -1.501727  3.689478
H    1.201981  -2.295399  1.398039
H    -0.216661  -1.847305  0.406201
H    -0.308588  -3.197894  1.567455
N    -1.150464  -0.283562  2.200059
C    -1.853269  0.704966  3.033604
C    -1.296879  2.146035  2.913003
O    -2.081518  3.054861  2.635097
H    -1.390959  -0.236250  1.217074
H    -2.843345  0.814847  2.567807
C    -2.097726  0.311673  4.500074
C    -2.995353  -0.919851  4.654028
C    -3.203764  -1.363475  6.108246
C    -1.935601  -1.840026  6.828077
N    -1.307978  -2.969250  6.131001
H    -2.587152  1.181712  4.965256
H    -1.146390  0.163370  5.022275
H    -2.579571  -1.765066  4.086305
H    -3.976872  -0.703317  4.202052
H    -3.931653  -2.188869  6.116500
H    -3.648164  -0.537490  6.688697
H    -2.223697  -2.179159  7.834089
H    -1.249791  -0.981972  6.980009
H    -0.763735  -2.635087  5.331747
H    -0.646476  -3.436851  6.749521
N    0.021596  2.405709  3.140154
C    1.120965  1.516204  3.473233
H    0.239143  3.389488  3.008846
H    1.815845  2.042055  4.139733
H    1.676998  1.193026  2.578552
H    0.769894  0.618741  3.991748
