33
Energy: -18208.9675065 eV PBE+vdW (tier 2 basis)
C    -0.116797  0.886721  0.199199
C    -0.063729  0.608603  1.688585
O    0.997620  0.590471  2.312578
H    0.117294  1.947237  0.036228
H    -1.089989  0.667041  -0.256896
H    0.658755  0.295054  -0.299681
N    -1.269542  0.392504  2.289853
C    -1.431166  0.267344  3.739135
C    -0.640529  1.413189  4.438377
O    -1.015914  2.562057  4.205515
H    -2.105970  0.526117  1.736494
H    -2.456909  0.612351  3.933467
C    -1.373438  -1.193796  4.245981
C    -0.373355  -2.140981  3.576567
C    -0.260287  -3.501291  4.277227
C    -1.557108  -4.312549  4.372393
N    -2.162499  -4.512764  3.048304
H    -2.381010  -1.611949  4.097424
H    -1.227035  -1.170715  5.337876
H    0.622277  -1.684674  3.527495
H    -0.687418  -2.299413  2.535645
H    0.130135  -3.366513  5.300054
H    0.496457  -4.105591  3.748650
H    -2.291523  -3.773724  4.990721
H    -1.336068  -5.255795  4.909353
H    -3.033831  -5.036354  3.128712
H    -1.543881  -5.071419  2.457837
N    0.312996  1.183313  5.394834
C    1.266796  0.085232  5.505325
H    0.644088  2.076755  5.749576
H    2.043405  0.390750  6.214942
H    1.736989  -0.131557  4.537371
H    0.804145  -0.827919  5.899985
