33
Energy: -18209.1615987 eV PBE+vdW (tier 2 basis)
C    -0.359871  -0.494860  -0.099674
C    -0.564060  -0.795601  1.375544
O    -0.311592  -1.891504  1.865910
H    -0.682998  0.510059  -0.400064
H    -0.907524  -1.239232  -0.690443
H    0.705095  -0.610054  -0.337466
N    -1.055748  0.241895  2.123119
C    -1.262417  0.144830  3.559587
C    -2.422825  -0.757609  4.039092
O    -2.310754  -1.322980  5.123942
H    -1.243535  1.125293  1.664764
H    -0.382720  -0.353716  3.992213
C    -1.407907  1.543007  4.181155
C    -0.131078  2.387118  4.126472
C    -0.305476  3.768256  4.761092
C    0.973056  4.604150  4.745665
N    0.731220  5.935200  5.316831
H    -1.709537  1.402694  5.228845
H    -2.240144  2.080225  3.692057
H    0.205313  2.506980  3.083054
H    0.675467  1.838430  4.639762
H    -0.646665  3.648857  5.804137
H    -1.097861  4.331704  4.243237
H    1.300902  4.746029  3.703573
H    1.779952  4.037468  5.253042
H    0.509514  5.858473  6.310822
H    1.571931  6.509426  5.254590
N    -3.569818  -0.879481  3.304401
C    -3.981715  -0.254891  2.058990
H    -4.226836  -1.517262  3.742710
H    -5.066404  -0.380238  1.960353
H    -3.504267  -0.705393  1.176589
H    -3.780252  0.824091  2.055545
