33
Energy: -18209.50057 eV PBE+vdW (tier 2 basis)
C    -3.278339  0.501242  -0.248531
C    -2.066579  0.218079  0.619822
O    -0.970192  0.739461  0.409896
H    -3.025854  0.274750  -1.291546
H    -3.508403  1.572807  -0.192988
H    -4.169638  -0.069463  0.039597
N    -2.280246  -0.640226  1.657435
C    -1.213136  -1.070053  2.536222
C    -1.637218  -2.426164  3.121324
O    -2.811922  -2.799560  3.104609
H    -3.153432  -1.152345  1.760033
H    -0.306357  -1.193190  1.921247
C    -0.868820  -0.047496  3.653919
C    -1.837134  0.039378  4.840182
C    -3.239210  0.574888  4.533876
C    -4.126048  0.722960  5.781994
N    -4.493192  -0.509632  6.488339
H    -0.762927  0.930182  3.162135
H    0.133428  -0.299401  4.036612
H    -1.373068  0.693104  5.598199
H    -1.918599  -0.953280  5.314205
H    -3.753117  -0.087502  3.821435
H    -3.155090  1.556182  4.036804
H    -5.060000  1.229842  5.494447
H    -3.632892  1.387071  6.510587
H    -4.908843  -1.178602  5.837463
H    -3.665791  -0.965810  6.873148
N    -0.631138  -3.146605  3.684335
C    -0.844827  -4.413834  4.358291
H    0.309476  -2.774017  3.631581
H    -0.285604  -5.222844  3.868779
H    -1.914601  -4.639951  4.305378
H    -0.541686  -4.358971  5.413169
