33
Energy: -18209.408006 eV PBE+vdW (tier 2 basis)
C    -0.735273  1.025815  -0.180686
C    -0.491406  0.936980  1.314835
O    0.474486  1.479218  1.855092
H    -0.842766  2.081801  -0.458805
H    -1.623777  0.476231  -0.514597
H    0.147005  0.637922  -0.704599
N    -1.421778  0.229060  2.016308
C    -1.284595  -0.034004  3.434499
C    -2.050858  -1.339826  3.700174
O    -2.855624  -1.779309  2.871150
H    -2.135947  -0.330804  1.553033
H    -0.213103  -0.182559  3.647136
C    -1.749493  1.170806  4.296623
C    -3.241994  1.527560  4.194710
C    -4.207461  0.739907  5.099968
C    -4.327910  1.242189  6.541448
N    -3.087880  1.086176  7.328293
H    -1.139927  2.017043  3.951212
H    -1.461855  0.986632  5.338909
H    -3.553342  1.409433  3.145569
H    -3.360128  2.602801  4.409522
H    -3.943982  -0.326663  5.116219
H    -5.215234  0.793114  4.659331
H    -5.104463  0.649438  7.046733
H    -4.694025  2.288032  6.525281
H    -3.295329  1.200366  8.320789
H    -2.428016  1.830964  7.100012
N    -1.810677  -1.998923  4.864731
C    -0.971545  -1.600739  5.985522
H    -2.402698  -2.815397  4.984224
H    -1.493632  -0.909375  6.666429
H    -0.050255  -1.124927  5.627984
H    -0.681461  -2.500555  6.540478
