33
Energy: -18209.1235125 eV PBE+vdW (tier 2 basis)
C    -1.266438  0.439821  -1.150467
C    -0.711731  0.018213  0.200558
O    0.495271  -0.079721  0.404846
H    -1.787228  1.406288  -1.080465
H    -1.973881  -0.296909  -1.556205
H    -0.425032  0.544041  -1.840133
N    -1.615504  -0.280921  1.191845
C    -3.033888  0.015564  1.195056
C    -3.292057  1.434215  1.750148
O    -2.598269  1.911293  2.648134
H    -1.176604  -0.376358  2.106963
H    -3.382704  -0.038094  0.156350
C    -3.854426  -1.025971  1.998031
C    -3.575184  -1.113427  3.508284
C    -2.334661  -1.939160  3.933377
C    -1.419978  -1.215678  4.941402
N    -0.678061  -0.049950  4.468255
H    -3.692622  -2.006798  1.524701
H    -4.917809  -0.781909  1.848038
H    -4.465892  -1.546395  3.984582
H    -3.498107  -0.092878  3.913362
H    -1.738884  -2.230893  3.054526
H    -2.667928  -2.887409  4.384427
H    -0.688131  -1.935043  5.338755
H    -2.028252  -0.899295  5.805471
H    0.069259  -0.292453  3.819116
H    -1.265195  0.673182  4.047779
N    -4.348010  2.124690  1.228521
C    -5.212107  1.744474  0.122045
H    -4.482153  3.038490  1.650473
H    -5.773003  0.821813  0.328774
H    -5.942329  2.544953  -0.035121
H    -4.653663  1.614597  -0.817237
