33
Energy: -18209.3795862 eV PBE+vdW (tier 2 basis)
C    -2.413464  -0.421166  0.100295
C    -1.507586  -0.450029  1.313572
O    -0.290865  -0.239008  1.224613
H    -3.456599  -0.676262  0.325022
H    -2.026666  -1.118898  -0.652142
H    -2.380002  0.584542  -0.338010
N    -2.117396  -0.713740  2.499996
C    -1.436291  -0.669847  3.794748
C    -0.692893  -2.002863  4.110705
O    -0.958854  -2.700549  5.088874
H    -3.105418  -0.935322  2.499115
H    -0.647845  0.092338  3.683674
C    -2.371307  -0.225383  4.926266
C    -3.625363  -1.067523  5.241327
C    -4.860343  -0.997380  4.322001
C    -5.470715  0.400190  4.079916
N    -4.923698  1.232924  3.003631
H    -2.642830  0.827971  4.752581
H    -1.753910  -0.223027  5.835366
H    -3.962690  -0.751024  6.241517
H    -3.313447  -2.114192  5.354463
H    -5.632656  -1.623751  4.798207
H    -4.685892  -1.489224  3.347131
H    -5.411239  0.981220  5.014752
H    -6.544552  0.285699  3.871128
H    -5.081281  0.805034  2.091095
H    -3.919508  1.374039  3.099447
N    0.285484  -2.281124  3.210771
C    1.094496  -3.481005  3.278554
H    0.415494  -1.615072  2.443100
H    0.803967  -4.036657  4.176458
H    2.162870  -3.231747  3.342976
H    0.936998  -4.119162  2.396850
