33
Energy: -18209.5378271 eV PBE+vdW (tier 2 basis)
C    -3.010406  -1.061005  -0.481798
C    -1.874026  -1.219528  0.506119
O    -0.777338  -1.684288  0.167614
H    -3.227470  -2.036730  -0.933428
H    -2.681948  -0.393519  -1.288444
H    -3.928656  -0.657230  -0.038272
N    -2.132326  -0.820893  1.780597
C    -1.133713  -0.810500  2.850947
C    -0.967422  -2.211397  3.514475
O    -1.205616  -2.415190  4.705113
H    -3.068246  -0.511226  2.014446
H    -0.172926  -0.586570  2.360938
C    -1.437830  0.288445  3.873885
C    -2.839948  0.265118  4.495289
C    -3.001169  1.299211  5.612138
C    -4.384680  1.286153  6.284963
N    -4.756799  0.080515  7.030612
H    -1.258718  1.263828  3.394386
H    -0.697295  0.188864  4.679879
H    -3.029591  -0.743596  4.888860
H    -3.612549  0.469696  3.730812
H    -2.813164  2.310368  5.210917
H    -2.227873  1.124506  6.379650
H    -5.163119  1.458172  5.523160
H    -4.450809  2.137423  6.979469
H    -4.755674  -0.738774  6.422344
H    -4.070953  -0.109536  7.763072
N    -0.509909  -3.152203  2.649569
C    -0.306568  -4.535117  3.030783
H    -0.355525  -2.856044  1.680583
H    -0.502328  -4.624647  4.104553
H    0.726514  -4.849564  2.827792
H    -0.988916  -5.204742  2.486975
