33
Energy: -18209.1562154 eV PBE+vdW (tier 2 basis)
C    -0.884729  2.067694  1.386157
C    -0.116445  0.778260  1.589196
O    1.053565  0.752684  1.965536
H    -1.678030  2.179765  2.138634
H    -1.373346  2.106101  0.403251
H    -0.182720  2.899756  1.481305
N    -0.785205  -0.396205  1.327693
C    -2.197550  -0.582960  1.025492
C    -3.164081  -0.179050  2.164986
O    -4.128572  0.541970  1.913959
H    -0.218355  -1.223900  1.491831
H    -2.489232  0.089578  0.205418
C    -2.431597  -2.034355  0.572933
C    -3.884401  -2.359194  0.214072
C    -4.151933  -3.858426  0.019171
C    -3.911320  -4.720104  1.263878
N    -4.746872  -4.284608  2.389886
H    -2.083019  -2.711924  1.368839
H    -1.777932  -2.224348  -0.293218
H    -4.161341  -1.818999  -0.703498
H    -4.562712  -1.969623  0.987832
H    -3.524679  -4.248291  -0.799254
H    -5.199236  -3.985549  -0.291998
H    -2.826844  -4.745071  1.497316
H    -4.191002  -5.756800  1.026554
H    -4.661093  -4.932620  3.172115
H    -4.453387  -3.369733  2.735475
N    -2.962407  -0.656076  3.433415
C    -1.851739  -1.411524  3.998476
H    -3.644123  -0.280946  4.086290
H    -2.133591  -1.716289  5.012482
H    -0.923740  -0.825700  4.058700
H    -1.651291  -2.329147  3.430935
