33
Energy: -18208.8572159 eV PBE+vdW (tier 2 basis)
C    0.133639  0.016944  0.695371
C    -0.166477  -0.664538  2.016406
O    0.693294  -1.303732  2.622125
H    0.097080  1.110841  0.794097
H    -0.573723  -0.284227  -0.087908
H    1.144681  -0.272340  0.397161
N    -1.432633  -0.555873  2.538945
C    -2.598849  0.199542  2.072153
C    -3.091469  -0.357811  0.703465
O    -3.416870  -1.542309  0.658766
H    -1.556998  -1.137620  3.360625
H    -3.416461  -0.142438  2.725865
C    -2.446325  1.710263  2.307819
C    -2.355778  2.063153  3.802315
C    -1.760158  3.460155  4.058104
C    -0.238431  3.477046  4.251871
N    0.498603  2.876046  3.123963
H    -3.311391  2.236461  1.877646
H    -1.554690  2.098900  1.801457
H    -1.745243  1.309745  4.326246
H    -3.361200  1.994802  4.245681
H    -2.208844  3.894482  4.964528
H    -2.028579  4.131902  3.226760
H    -0.001688  2.990160  5.217955
H    0.087724  4.523076  4.343811
H    0.553363  1.862694  3.239806
H    1.465312  3.199834  3.132654
N    -3.216600  0.418461  -0.419050
C    -2.824001  1.783621  -0.739269
H    -3.614853  -0.126372  -1.178618
H    -2.822368  1.881979  -1.830518
H    -1.814060  2.018174  -0.386904
H    -3.519708  2.532643  -0.334606
