33
Energy: -18209.5277938 eV PBE+vdW (tier 2 basis)
C    1.341320  -2.447101  1.571320
C    0.048477  -1.676799  1.770622
O    -0.974608  -1.937204  1.134755
H    1.145284  -3.514434  1.732385
H    2.152884  -2.125681  2.235336
H    1.663266  -2.329425  0.528959
N    0.098178  -0.686290  2.705401
C    -1.019164  0.191393  2.983835
C    -0.440011  1.404071  3.735487
O    0.712885  1.405911  4.170433
H    0.965381  -0.423140  3.170835
H    -1.448713  0.527914  2.024949
C    -2.143238  -0.514646  3.781134
C    -1.707790  -1.016791  5.158004
C    -2.751666  -1.891700  5.862733
C    -3.115223  -3.202985  5.136050
N    -2.017844  -4.116430  4.809164
H    -2.487623  -1.342694  3.147083
H    -3.001793  0.170044  3.880108
H    -1.458668  -0.161866  5.806139
H    -0.771758  -1.587119  5.049829
H    -3.679923  -1.315378  6.021191
H    -2.376087  -2.141009  6.869161
H    -3.643092  -2.983584  4.196163
H    -3.838338  -3.751337  5.759877
H    -1.418731  -3.724098  4.082489
H    -1.426595  -4.284865  5.624389
N    -1.300630  2.444153  3.894217
C    -0.956583  3.653015  4.619387
H    -2.227232  2.363478  3.492777
H    -1.614706  3.796762  5.487604
H    -1.024120  4.537143  3.970742
H    0.075461  3.546693  4.968441
