33
Energy: -18209.2883813 eV PBE+vdW (tier 2 basis)
C    1.483753  2.010910  0.485182
C    0.956357  1.683347  1.868764
O    1.737222  1.537907  2.818911
H    2.206934  2.830170  0.566721
H    0.706275  2.282577  -0.238953
H    2.022951  1.131995  0.106491
N    -0.396189  1.563376  1.956180
C    -1.268791  1.099081  3.057356
C    -1.176355  1.812827  4.430062
O    -2.207315  1.894827  5.103125
H    -0.892097  1.715834  1.086321
H    -2.275493  1.387455  2.727940
C    -1.309876  -0.437742  3.235632
C    -0.005444  -1.138698  3.664334
C    0.868599  -1.670162  2.509330
C    0.572035  -3.112074  2.093425
N    -0.779105  -3.274139  1.528315
H    -1.672692  -0.872691  2.292366
H    -2.095274  -0.610426  3.985743
H    -0.262875  -1.983360  4.324595
H    0.587873  -0.457317  4.287987
H    1.926611  -1.617307  2.804666
H    0.761703  -1.026036  1.624057
H    0.765585  -3.777808  2.959314
H    1.286919  -3.404499  1.309943
H    -0.874816  -4.203432  1.118343
H    -1.483508  -3.224157  2.265917
N    0.024787  2.277847  4.830847
C    0.189905  2.912864  6.124365
H    0.841774  2.057792  4.243452
H    1.163677  3.413720  6.150423
H    0.140702  2.184449  6.948397
H    -0.603890  3.652209  6.288265
