33
Energy: -18209.0388233 eV PBE+vdW (tier 2 basis)
C    0.292372  -1.513289  0.480693
C    0.204040  -1.157264  1.947832
O    1.204089  -1.174825  2.670323
H    0.977774  -2.363956  0.396302
H    0.749772  -0.675580  -0.064362
H    -0.668183  -1.781239  0.034379
N    -1.007466  -0.816134  2.507669
C    -2.278110  -0.382482  1.933808
C    -3.122966  -1.559933  1.395132
O    -2.631891  -2.585379  0.935183
H    -0.894917  -0.633107  3.500056
H    -2.828114  0.037396  2.790142
C    -2.165406  0.748140  0.877431
C    -1.960681  2.156885  1.462596
C    -0.712173  2.384767  2.327092
C    0.619397  2.278582  1.576163
N    1.733699  2.159270  2.521279
H    -3.087618  0.755548  0.276898
H    -1.366678  0.492949  0.170106
H    -2.851548  2.415588  2.059407
H    -1.952405  2.870264  0.621648
H    -0.694680  1.673067  3.165817
H    -0.773188  3.378929  2.793911
H    0.768019  3.191294  0.978318
H    0.572729  1.444246  0.849719
H    1.761021  1.206473  2.895410
H    2.621772  2.295123  2.038553
N    -4.481513  -1.382193  1.430694
C    -5.241746  -0.297941  2.031404
H    -4.994207  -2.172567  1.053094
H    -5.072115  -0.216904  3.116141
H    -6.307111  -0.499201  1.878059
H    -5.020706  0.675145  1.569758
