33
Energy: -18209.5023403 eV PBE+vdW (tier 2 basis)
C    0.054940  0.019113  -0.013525
C    0.000358  0.048052  1.501075
O    1.035941  0.116469  2.175994
H    0.611059  0.897325  -0.363144
H    -0.929531  0.000714  -0.496338
H    0.618705  -0.869606  -0.324404
N    -1.246850  -0.003992  2.045444
C    -1.594488  -0.080747  3.474541
C    -1.342334  1.231856  4.263831
O    -2.269887  1.769111  4.871404
H    -2.026298  -0.000040  1.399809
H    -2.687192  -0.177479  3.498391
C    -0.983235  -1.316462  4.163453
C    -1.426197  -1.466610  5.619831
C    -0.836436  -2.705440  6.296160
C    -1.243439  -2.868871  7.771244
N    -0.799334  -1.835262  8.710613
H    0.112866  -1.264601  4.108128
H    -1.284904  -2.203530  3.583432
H    -2.527470  -1.505656  5.673831
H    -1.131042  -0.565226  6.179814
H    0.265143  -2.672244  6.229724
H    -1.147514  -3.610248  5.745793
H    -0.865080  -3.835111  8.138758
H    -2.341617  -2.927140  7.841922
H    0.215717  -1.729749  8.675039
H    -1.195457  -0.926700  8.469043
N    -0.060065  1.672005  4.263357
C    0.347002  2.879327  4.953475
H    0.604740  1.166579  3.666173
H    1.185016  2.675140  5.634301
H    -0.506709  3.245744  5.533514
H    0.656394  3.661748  4.244854
