33
Energy: -18209.0986998 eV PBE+vdW (tier 2 basis)
C    -0.004245  0.457250  -0.001925
C    -0.045266  -0.072304  1.419625
O    0.899858  -0.684122  1.911852
H    0.778009  1.224998  -0.068195
H    -0.953528  0.888053  -0.345214
H    0.282168  -0.360758  -0.673105
N    -1.196350  0.211813  2.108499
C    -1.419674  -0.195607  3.491631
C    -2.634382  -1.132660  3.661930
O    -2.510608  -2.190130  4.272565
H    -1.883208  0.791234  1.643245
H    -0.562928  -0.837290  3.733877
C    -1.457517  0.968239  4.514860
C    -0.072815  1.445241  4.973975
C    0.717833  2.279727  3.955534
C    2.227945  2.280914  4.210132
N    2.752025  0.912543  4.187441
H    -2.010581  0.604839  5.394081
H    -2.044702  1.810685  4.110570
H    0.527703  0.564753  5.244654
H    -0.191717  2.031350  5.899049
H    0.351583  3.318781  3.949273
H    0.552064  1.897214  2.939064
H    2.437373  2.709027  5.205117
H    2.700413  2.959118  3.470955
H    3.768628  0.905325  4.247605
H    2.486816  0.430758  3.324711
N    -3.860888  -0.758965  3.170629
C    -4.260456  0.433599  2.448333
H    -4.569299  -1.468593  3.330894
H    -3.752014  1.325924  2.834423
H    -5.334458  0.595373  2.597428
H    -4.083216  0.358640  1.361582
