33
Energy: -18209.2023615 eV PBE+vdW (tier 2 basis)
C    0.075747  -0.328739  -1.070778
C    0.313444  -0.063132  0.401111
O    1.443337  0.088129  0.861801
H    -0.754922  0.251129  -1.488561
H    -0.158454  -1.390376  -1.233081
H    1.000349  -0.091550  -1.603515
N    -0.772607  -0.026825  1.249160
C    -2.210802  -0.107501  0.978625
C    -2.575054  -1.357009  0.135893
O    -3.122308  -1.271537  -0.964228
H    -0.496581  0.176184  2.205351
H    -2.670635  -0.265292  1.969194
C    -2.818729  1.167885  0.381176
C    -4.335327  1.258540  0.593451
C    -5.034381  2.304232  -0.285024
C    -4.945354  2.025556  -1.791465
N    -5.462826  0.693264  -2.121973
H    -2.583590  1.200223  -0.690829
H    -2.317491  2.030071  0.844765
H    -4.537951  1.483276  1.653323
H    -4.799285  0.280584  0.396206
H    -4.615799  3.304919  -0.085719
H    -6.097290  2.338150  -0.002122
H    -3.905275  2.193424  -2.138577
H    -5.562072  2.771176  -2.314605
H    -5.610543  0.613177  -3.127176
H    -4.779000  -0.025871  -1.872525
N    -2.265206  -2.572973  0.669655
C    -1.624323  -2.881014  1.937961
H    -2.506955  -3.347062  0.058846
H    -1.820028  -3.931955  2.177636
H    -2.042391  -2.275711  2.753215
H    -0.537151  -2.721491  1.910463
