33
Energy: -18209.5011054 eV PBE+vdW (tier 2 basis)
C    -2.148198  -1.162428  -0.397124
C    -1.917515  -0.727915  1.034451
O    -1.623380  0.438695  1.323617
H    -2.396254  -2.225689  -0.501372
H    -1.247940  -0.943982  -0.984522
H    -2.965699  -0.563235  -0.817185
N    -2.057842  -1.694653  1.983434
C    -1.924366  -1.423753  3.414282
C    -0.436860  -1.505552  3.852485
O    0.009237  -2.436387  4.520465
H    -2.219207  -2.652298  1.692204
H    -2.245389  -0.379926  3.543943
C    -2.809486  -2.355791  4.236728
C    -4.312293  -2.252842  3.933786
C    -4.968475  -0.867004  4.045854
C    -4.995371  -0.223049  5.447438
N    -3.789890  0.448911  5.942295
H    -2.608031  -2.155194  5.298098
H    -2.469568  -3.392754  4.088610
H    -4.838022  -2.946985  4.609269
H    -4.502278  -2.636211  2.918026
H    -6.013307  -0.975238  3.710594
H    -4.506815  -0.160833  3.334820
H    -5.278022  -0.984845  6.192290
H    -5.804023  0.523808  5.465125
H    -3.014097  -0.199639  6.063504
H    -3.479384  1.169870  5.290465
N    0.293662  -0.443400  3.417976
C    1.725597  -0.344966  3.619701
H    -0.178242  0.210309  2.788912
H    2.280330  -0.517143  2.684938
H    2.019456  -1.109013  4.347099
H    1.993670  0.646131  4.008795
