33
Energy: -18209.5001554 eV PBE+vdW (tier 2 basis)
C    0.146259  2.022380  1.269463
C    -0.573562  1.009486  2.139647
O    -1.475220  1.329669  2.907274
H    0.440308  2.877495  1.888796
H    -0.556091  2.394246  0.511720
H    1.032316  1.621031  0.761619
N    -0.131479  -0.290557  2.014005
C    -0.850585  -1.417976  2.595672
C    -0.010092  -2.243778  3.592819
O    -0.385326  -3.351581  3.969321
H    0.503499  -0.492100  1.247654
H    -1.649661  -0.959106  3.199798
C    -1.470101  -2.323524  1.520210
C    -2.512747  -1.633087  0.634424
C    -3.756629  -1.133572  1.376439
C    -4.797528  -0.503344  0.439748
N    -6.005324  0.034999  1.071591
H    -1.910626  -3.184185  2.041268
H    -0.659724  -2.733463  0.893117
H    -2.818780  -2.346245  -0.148031
H    -2.049336  -0.787553  0.097085
H    -3.472853  -0.384161  2.132275
H    -4.220712  -1.971904  1.924010
H    -5.115081  -1.243525  -0.312619
H    -4.325679  0.317006  -0.125367
H    -5.753815  0.746694  1.759693
H    -6.491855  -0.699632  1.587906
N    1.130150  -1.641431  4.030481
C    1.977363  -2.222015  5.052624
H    1.310687  -0.701320  3.696713
H    1.621261  -3.241180  5.237946
H    1.923093  -1.653305  5.992425
H    3.023868  -2.260465  4.721273
