33
Energy: -18209.1082851 eV PBE+vdW (tier 2 basis)
C    -0.057836  -1.169652  -0.010581
C    0.079732  -0.713560  1.432141
O    1.135810  -0.793875  2.051628
H    -1.083340  -1.122333  -0.398408
H    0.310397  -2.199374  -0.091593
H    0.586831  -0.542443  -0.639480
N    -1.059851  -0.210994  2.001442
C    -1.094239  0.342234  3.349389
C    -0.648577  -0.620431  4.472634
O    0.022974  -0.175285  5.400435
H    -1.903445  -0.156610  1.442798
H    -0.344495  1.144251  3.421331
C    -2.490349  0.951683  3.590793
C    -2.693368  1.630602  4.956417
C    -3.248835  0.706712  6.047615
C    -3.320689  1.362873  7.426672
N    -4.248198  2.506743  7.443983
H    -3.262942  0.176394  3.449491
H    -2.644582  1.690018  2.787934
H    -3.390657  2.469706  4.814972
H    -1.738530  2.065171  5.292929
H    -2.621000  -0.191312  6.134837
H    -4.260082  0.374906  5.759991
H    -2.292830  1.619642  7.750507
H    -3.700742  0.624133  8.147181
H    -4.421147  2.802071  8.404630
H    -3.832456  3.312517  6.975670
N    -1.060062  -1.924999  4.472722
C    -1.847982  -2.673080  3.509503
H    -0.652327  -2.445746  5.242986
H    -2.228064  -3.574364  4.005200
H    -1.264654  -2.984418  2.629363
H    -2.717749  -2.100154  3.167984
