33
Energy: -18209.4739337 eV PBE+vdW (tier 2 basis)
C    -0.222760  0.081279  -0.513517
C    -0.977632  0.210894  0.795126
O    -1.856630  1.062329  0.959240
H    0.633532  -0.601973  -0.462781
H    0.118981  1.074993  -0.824393
H    -0.918903  -0.283563  -1.280852
N    -0.645927  -0.703121  1.747429
C    -1.169404  -0.692574  3.101220
C    0.008293  -1.048797  4.024151
O    0.943835  -1.745315  3.627187
H    0.166552  -1.305192  1.625842
H    -1.530632  0.327222  3.307707
C    -2.325904  -1.700584  3.307858
C    -3.685280  -1.261378  2.711619
C    -4.306475  -2.271311  1.734182
C    -3.647314  -2.317534  0.352882
N    -3.944242  -1.102279  -0.415706
H    -2.437345  -1.881226  4.387461
H    -2.001087  -2.660020  2.877077
H    -3.576583  -0.285761  2.217093
H    -4.392668  -1.092845  3.536249
H    -5.368459  -2.024022  1.585790
H    -4.273330  -3.278030  2.182862
H    -4.065595  -3.169849  -0.203237
H    -2.562370  -2.522677  0.466663
H    -3.468452  -0.286961  -0.023948
H    -3.616683  -1.196800  -1.376173
N    -0.090587  -0.572621  5.293916
C    0.877273  -0.876146  6.331907
H    -0.882294  0.017620  5.520235
H    1.660726  -1.494232  5.881670
H    0.414239  -1.432359  7.159001
H    1.331122  0.041831  6.729240
