33
Energy: -18209.1344691 eV PBE+vdW (tier 2 basis)
C    1.043019  -0.177079  0.488728
C    0.168452  -0.704058  1.611878
O    0.635360  -1.121381  2.667813
H    0.480401  0.194286  -0.376979
H    1.714707  -0.980477  0.161267
H    1.669314  0.633343  0.880916
N    -1.183715  -0.665611  1.371956
C    -2.130906  -1.306870  2.291909
C    -3.419431  -1.708170  1.558076
O    -3.803812  -2.874725  1.572857
H    -1.485458  -0.500827  0.418689
H    -1.687967  -2.262805  2.600904
C    -2.382272  -0.465963  3.563258
C    -3.341692  -1.117153  4.569445
C    -2.899063  -2.479239  5.127063
C    -1.528255  -2.493748  5.827743
N    -1.368142  -1.624237  6.999414
H    -2.762552  0.526903  3.286804
H    -1.397245  -0.300417  4.020954
H    -4.337843  -1.232970  4.112753
H    -3.481264  -0.410202  5.403047
H    -2.893689  -3.230566  4.321533
H    -3.665476  -2.820693  5.843023
H    -0.729804  -2.235649  5.115546
H    -1.317177  -3.525709  6.147625
H    -2.129310  -1.771434  7.664440
H    -1.400491  -0.640191  6.732878
N    -4.122330  -0.755368  0.857605
C    -4.061224  0.697901  0.934442
H    -4.965834  -1.150562  0.449257
H    -4.694298  1.101866  1.740545
H    -4.402877  1.121237  -0.018366
H    -3.035465  1.039516  1.103523
