33
Energy: -18209.3656709 eV PBE+vdW (tier 2 basis)
C    -0.343906  0.005896  -0.089631
C    -0.320533  0.278778  1.402823
O    0.727293  0.516990  2.005189
H    0.334151  -0.828451  -0.306122
H    0.046408  0.886810  -0.615929
H    -1.341943  -0.230076  -0.478788
N    -1.546546  0.293995  2.007742
C    -1.701502  0.342071  3.450942
C    -2.527120  -0.890232  3.851855
O    -3.322242  -1.408110  3.064994
H    -2.341335  -0.123503  1.526305
H    -0.686062  0.289697  3.871025
C    -2.416523  1.621348  3.961281
C    -1.503094  2.830890  4.211760
C    -0.811086  3.488674  3.007528
C    -1.706330  4.287956  2.057479
N    -2.682507  3.446048  1.347020
H    -2.918138  1.378496  4.911337
H    -3.208777  1.879639  3.246386
H    -0.721663  2.529334  4.929609
H    -2.103761  3.597938  4.729196
H    -0.229301  2.743629  2.443969
H    -0.061040  4.192522  3.401884
H    -1.046834  4.860358  1.375268
H    -2.275445  5.033695  2.637369
H    -3.188118  3.997209  0.653335
H    -2.198080  2.704121  0.839013
N    -2.368575  -1.357069  5.122184
C    -1.432606  -0.887290  6.131565
H    -2.975959  -2.137112  5.350988
H    -1.476423  -1.569934  6.986458
H    -1.676010  0.123127  6.492670
H    -0.399085  -0.883715  5.758591
