33
Energy: -18209.6199916 eV PBE+vdW (tier 2 basis)
C    -0.287740  -0.883156  0.151577
C    -0.162334  -0.368509  1.573360
O    0.910808  0.106141  1.979088
H    -0.121637  -0.050518  -0.543911
H    -1.260795  -1.340139  -0.064381
H    0.507355  -1.618008  -0.025165
N    -1.296583  -0.446463  2.314459
C    -1.428822  -0.293449  3.771865
C    -1.176155  1.103435  4.385155
O    -1.935570  1.499801  5.274483
H    -2.039778  -1.048891  1.942249
H    -2.498628  -0.428621  3.956755
C    -0.648082  -1.376003  4.558051
C    -0.835476  -2.816421  4.060723
C    -2.172914  -3.519928  4.351801
C    -3.459612  -2.954045  3.737335
N    -3.339084  -2.693553  2.285216
H    -0.945824  -1.289148  5.614198
H    0.422912  -1.131961  4.510667
H    -0.048978  -3.428155  4.528230
H    -0.623588  -2.856736  2.981238
H    -2.330799  -3.567433  5.441230
H    -2.070838  -4.568880  4.024198
H    -3.729573  -2.005216  4.221022
H    -4.277726  -3.659939  3.970559
H    -4.254986  -2.449355  1.905484
H    -3.057367  -3.550674  1.803991
N    -0.098361  1.781827  3.932491
C    0.275474  3.077644  4.459938
H    0.487770  1.308252  3.229050
H    0.471744  3.783586  3.641731
H    1.176882  3.013632  5.088563
H    -0.550375  3.452711  5.074118
