33
Energy: -18209.5303284 eV PBE+vdW (tier 2 basis)
C    -5.749811  2.748203  1.837343
C    -4.301995  2.305370  1.814494
O    -3.733999  1.985572  0.763438
H    -6.371857  1.948148  1.417402
H    -5.858855  3.623709  1.185175
H    -6.118412  3.001604  2.838760
N    -3.661704  2.294161  3.017747
C    -2.254527  1.911237  3.154052
C    -2.165630  0.361505  3.239653
O    -2.082961  -0.237860  4.309959
H    -4.191849  2.470546  3.863683
H    -1.768411  2.237957  2.222186
C    -1.610751  2.600875  4.358658
C    -0.096168  2.817455  4.224048
C    0.755269  1.549083  4.113264
C    2.267751  1.824266  4.068336
N    2.789023  2.550945  2.905104
H    -1.830029  2.004816  5.258035
H    -2.089730  3.584054  4.482879
H    0.242652  3.392525  5.101840
H    0.086374  3.465232  3.349368
H    0.478967  0.976701  3.211528
H    0.536225  0.886394  4.965604
H    2.803794  0.864718  4.123266
H    2.563962  2.388023  4.968130
H    2.379637  3.483219  2.842373
H    2.540494  2.066387  2.041120
N    -2.212711  -0.237612  2.019508
C    -2.286915  -1.678157  1.868630
H    -2.480261  0.362416  1.236429
H    -1.888199  -2.140233  2.777734
H    -1.690429  -1.998811  1.005476
H    -3.322937  -2.024450  1.729779
