33
Energy: -18209.4334003 eV PBE+vdW (tier 2 basis)
C    0.377654  -0.980808  -0.708753
C    -0.391671  -1.379456  0.537751
O    -0.666728  -2.555034  0.789483
H    1.328646  -1.527558  -0.727019
H    0.579021  0.095074  -0.777479
H    -0.194729  -1.294908  -1.590614
N    -0.751630  -0.350922  1.353379
C    -1.496852  -0.534217  2.582449
C    -1.969051  0.864939  3.004149
O    -1.442602  1.879682  2.539388
H    -0.524389  0.618877  1.140396
H    -2.363120  -1.180800  2.368093
C    -0.659361  -1.226835  3.689451
C    0.637615  -0.499147  4.044527
C    1.554895  -1.291702  4.984332
C    2.038973  -2.655474  4.448144
N    2.704385  -2.670856  3.143609
H    -0.449681  -2.236856  3.313285
H    -1.280108  -1.356283  4.588912
H    0.411285  0.476948  4.500819
H    1.185320  -0.270742  3.117200
H    1.048501  -1.462285  5.950445
H    2.437177  -0.670855  5.212785
H    2.731137  -3.085897  5.189071
H    1.196918  -3.360666  4.387669
H    2.040285  -2.499020  2.388398
H    3.421514  -1.946598  3.086823
N    -2.969688  0.951816  3.923934
C    -3.736570  -0.110696  4.550711
H    -3.178423  1.909067  4.191332
H    -4.753841  0.248806  4.746889
H    -3.296535  -0.443190  5.503388
H    -3.815219  -0.978241  3.886242
