33
Energy: -18209.4001777 eV PBE+vdW (tier 2 basis)
C    0.018135  0.407266  0.006917
C    0.109505  0.037722  1.473838
O    1.178775  -0.143763  2.048920
H    -0.550448  1.334302  -0.148614
H    -0.488235  -0.381845  -0.567253
H    1.033460  0.532158  -0.377282
N    -1.082791  -0.080803  2.158838
C    -2.436401  -0.000017  1.620502
C    -2.900164  1.440000  1.309502
O    -3.758869  1.653751  0.454990
H    -0.969821  -0.428517  3.108114
H    -2.490262  -0.529489  0.658232
C    -3.393693  -0.683793  2.622033
C    -4.871574  -0.743900  2.227855
C    -5.158956  -1.511470  0.934115
C    -6.650237  -1.776438  0.711928
N    -7.196130  -2.664562  1.749747
H    -3.298325  -0.164895  3.590765
H    -3.015558  -1.708489  2.774110
H    -5.276260  0.275153  2.134559
H    -5.420604  -1.226034  3.049498
H    -4.622863  -2.478227  0.945352
H    -4.776158  -0.949199  0.069800
H    -6.795371  -2.156926  -0.317342
H    -7.196518  -0.822226  0.771402
H    -8.212464  -2.711580  1.684999
H    -6.853852  -3.617160  1.615511
N    -2.319813  2.408689  2.068184
C    -2.638580  3.815368  1.929099
H    -1.560982  2.121262  2.677444
H    -2.981446  4.239311  2.882912
H    -3.442546  3.901291  1.190131
H    -1.769626  4.390442  1.578627
