33
Energy: -18209.5353808 eV PBE+vdW (tier 2 basis)
C    -4.984891  3.716752  1.928049
C    -3.814710  2.792291  1.664593
O    -3.542532  2.393074  0.526044
H    -5.105191  3.987280  2.984145
H    -5.904407  3.234746  1.573743
H    -4.847753  4.632216  1.339091
N    -3.077331  2.437247  2.754005
C    -1.896128  1.576438  2.665474
C    -2.339041  0.085877  2.657711
O    -2.280260  -0.625399  3.659646
H    -3.392115  2.716458  3.676376
H    -1.430483  1.803862  1.694375
C    -0.921790  1.876981  3.800577
C    0.454360  1.235107  3.586316
C    1.416961  1.391053  4.769359
C    1.840118  2.828572  5.070551
N    2.868793  2.850240  6.120467
H    -1.351747  1.503367  4.743932
H    -0.826046  2.969994  3.883439
H    0.916724  1.658995  2.678478
H    0.315642  0.161574  3.393774
H    2.328301  0.805249  4.577483
H    0.954063  0.950789  5.669820
H    0.949281  3.439604  5.316395
H    2.282417  3.270909  4.163169
H    2.487812  2.479366  6.992707
H    3.157513  3.808375  6.319021
N    -2.803293  -0.320172  1.446364
C    -3.391841  -1.628994  1.239430
H    -2.950998  0.414697  0.750759
H    -4.491952  -1.586054  1.230555
H    -3.076906  -2.280012  2.061642
H    -3.049569  -2.054484  0.287511
