33
Energy: -18209.230089 eV PBE+vdW (tier 2 basis)
C    -0.318752  -1.356482  -0.604483
C    0.056373  -0.681698  0.704409
O    1.228148  -0.568260  1.057217
H    0.570691  -1.380122  -1.239847
H    -1.135219  -0.849019  -1.136181
H    -0.635284  -2.392118  -0.415715
N    -0.964004  -0.213107  1.488467
C    -2.392835  -0.271039  1.265158
C    -3.021226  0.782543  2.200936
O    -2.411857  1.225472  3.175391
H    -0.689684  0.254442  2.353203
H    -2.612391  0.041873  0.230809
C    -3.022059  -1.687617  1.456185
C    -2.466845  -2.539085  2.608579
C    -2.619270  -1.973123  4.028112
C    -4.061911  -1.670282  4.460909
N    -4.211705  -0.975715  5.743543
H    -2.869304  -2.243076  0.519545
H    -4.111783  -1.580392  1.553790
H    -1.400330  -2.734788  2.423239
H    -2.966157  -3.520252  2.550180
H    -2.026559  -1.052736  4.130866
H    -2.182060  -2.695405  4.736607
H    -4.643048  -2.605754  4.508344
H    -4.562439  -1.047438  3.703634
H    -3.693470  -0.095075  5.712258
H    -3.788950  -1.525261  6.493699
N    -4.283657  1.210302  1.913637
C    -5.169937  0.822362  0.830891
H    -4.645761  1.855367  2.609833
H    -5.829490  1.664655  0.591224
H    -5.796869  -0.045999  1.087085
H    -4.601434  0.580782  -0.074496
