33
Energy: -18209.5320562 eV PBE+vdW (tier 2 basis)
C    1.140047  -0.981211  1.689709
C    0.136554  0.121874  1.956482
O    0.485036  1.311318  1.994391
H    1.680725  -0.751367  0.763892
H    0.694765  -1.980158  1.610058
H    1.876202  -0.986232  2.504181
N    -1.146200  -0.279444  2.155858
C    -2.289608  0.563937  2.544393
C    -2.870405  1.410559  1.383894
O    -4.073799  1.366436  1.129227
H    -1.336239  -1.269321  2.064902
H    -3.094450  -0.141689  2.785517
C    -2.023033  1.447470  3.779947
C    -1.478472  0.685900  4.989051
C    -1.089821  1.588448  6.167062
C    0.003683  2.636357  5.865388
N    1.264882  2.159839  5.296711
H    -2.980862  1.928057  4.032119
H    -1.333709  2.253143  3.500263
H    -0.593585  0.104862  4.685426
H    -2.221635  -0.053799  5.328244
H    -0.744739  0.948617  6.996329
H    -1.980816  2.119072  6.544341
H    0.229247  3.167979  6.803486
H    -0.388448  3.403619  5.181444
H    1.150824  1.857378  4.328158
H    1.636473  1.370691  5.826275
N    -1.969507  2.195173  0.739454
C    -2.342170  3.077903  -0.347640
H    -1.000158  2.166463  1.068656
H    -3.405009  2.923038  -0.561442
H    -1.756806  2.857978  -1.251331
H    -2.184940  4.132020  -0.076639
