33
Energy: -18209.1576308 eV PBE+vdW (tier 2 basis)
C    -0.453553  -2.021731  -0.180500
C    0.248047  -0.912890  0.578072
O    1.465530  -0.894202  0.741721
H    0.243322  -2.857231  -0.286131
H    -0.733777  -1.666661  -1.182231
H    -1.367157  -2.367724  0.322199
N    -0.537578  0.085266  1.103634
C    -1.946868  0.333365  0.885889
C    -2.286910  0.612914  -0.601937
O    -1.477687  1.079169  -1.396273
H    0.007043  0.832560  1.520375
H    -2.513002  -0.565293  1.190435
C    -2.443292  1.491883  1.783678
C    -1.999433  2.929701  1.454571
C    -0.523702  3.297515  1.725379
C    0.377461  3.291866  0.485266
N    1.775920  3.537784  0.870635
H    -2.157902  1.245431  2.819212
H    -3.543002  1.464880  1.760715
H    -2.638955  3.585827  2.062599
H    -2.249797  3.163585  0.407455
H    -0.102777  2.627659  2.497508
H    -0.464776  4.299604  2.173548
H    0.061640  4.115900  -0.173200
H    0.228513  2.366947  -0.098000
H    2.167933  2.699474  1.305438
H    2.340271  3.699098  0.036003
N    -3.577360  0.312124  -0.932864
C    -4.129868  0.557609  -2.251643
H    -4.172736  -0.101930  -0.225371
H    -4.958283  1.278800  -2.211559
H    -4.490077  -0.373049  -2.711285
H    -3.327130  0.972048  -2.870599
