33
Energy: -18209.2474887 eV PBE+vdW (tier 2 basis)
C    -0.421530  -0.236041  -0.799488
C    -0.000699  -0.101030  0.656415
O    1.183466  -0.079393  0.983584
H    -0.962941  0.657120  -1.144179
H    -1.068971  -1.106132  -0.968734
H    0.487526  -0.344590  -1.396584
N    -0.991844  -0.006012  1.599360
C    -2.425733  0.083959  1.408003
C    -2.941641  1.265666  2.249969
O    -2.401435  1.562322  3.313658
H    -0.670667  0.211557  2.542331
H    -2.626794  0.257231  0.342910
C    -3.169926  -1.196157  1.862624
C    -2.820292  -2.440432  1.047612
C    -3.508828  -3.704921  1.565693
C    -3.148010  -4.954722  0.764625
N    -3.870380  -6.126658  1.275292
H    -4.256260  -1.014205  1.818437
H    -2.930193  -1.359527  2.925230
H    -1.728593  -2.585772  1.060943
H    -3.100984  -2.279070  -0.007744
H    -4.603345  -3.582645  1.551155
H    -3.231404  -3.860654  2.622670
H    -2.045479  -5.073179  0.760041
H    -3.450039  -4.811860  -0.285124
H    -3.672731  -6.946640  0.701734
H    -3.552847  -6.354003  2.219001
N    -4.046408  1.924194  1.794552
C    -4.747964  1.729062  0.536053
H    -4.360799  2.666285  2.411717
H    -5.589718  2.428214  0.499451
H    -5.157627  0.713070  0.440580
H    -4.107334  1.933695  -0.334800
