33
Energy: -18209.6452281 eV PBE+vdW (tier 2 basis)
C    -0.054031  -0.054772  0.052117
C    -0.260511  0.155787  1.542087
O    -0.002108  1.225845  2.090889
H    -0.676526  0.665613  -0.493534
H    -0.304032  -1.069947  -0.280936
H    0.991230  0.164510  -0.198968
N    -0.732884  -0.941538  2.214084
C    -1.134349  -0.868849  3.609264
C    -0.393765  -1.887341  4.503192
O    -0.860728  -2.276853  5.572766
H    -1.039284  -1.768594  1.675868
H    -0.775507  0.116037  3.954613
C    -2.663681  -0.903996  3.814178
C    -3.494406  -1.817115  2.899848
C    -3.386294  -3.342010  3.074558
C    -2.107315  -4.037101  2.593543
N    -1.705475  -3.595585  1.239240
H    -3.030415  0.121788  3.666231
H    -2.838858  -1.159389  4.868790
H    -3.308782  -1.550052  1.847374
H    -4.548386  -1.554106  3.076895
H    -4.237701  -3.794336  2.537529
H    -3.524485  -3.603681  4.134703
H    -2.273119  -5.127910  2.649813
H    -1.269919  -3.821069  3.269265
H    -2.473024  -3.740859  0.579798
H    -0.931663  -4.170374  0.903136
N    0.827083  -2.269503  4.033784
C    1.727250  -3.120067  4.783199
H    1.116711  -1.876848  3.144600
H    1.202911  -3.436887  5.691509
H    2.641955  -2.582344  5.071855
H    2.010109  -4.010454  4.203711
