33
Energy: -18209.1323034 eV PBE+vdW (tier 2 basis)
C    0.033066  -0.154842  0.187250
C    0.095466  -0.025943  1.696328
O    1.154620  0.109342  2.306659
H    -0.502591  0.693023  -0.263442
H    -0.490014  -1.069802  -0.123524
H    1.056689  -0.175942  -0.194540
N    -1.100285  -0.056771  2.372338
C    -2.440253  -0.099859  1.813107
C    -2.965693  1.174796  1.105098
O    -3.856298  1.036963  0.266122
H    -0.996405  0.054504  3.376760
H    -2.455481  -0.840171  1.000455
C    -3.461537  -0.583648  2.861411
C    -3.692069  0.356664  4.051261
C    -4.776941  -0.124055  5.024565
C    -4.418427  -1.384055  5.813231
N    -5.461749  -1.677537  6.804926
H    -3.129761  -1.574085  3.206446
H    -4.413749  -0.732892  2.332783
H    -3.983112  1.348171  3.671157
H    -2.757039  0.507126  4.619348
H    -5.711890  -0.297498  4.463803
H    -4.998550  0.673414  5.749135
H    -3.479278  -1.207902  6.362297
H    -4.222991  -2.223350  5.117554
H    -6.337797  -1.914245  6.336094
H    -5.206107  -2.493121  7.361752
N    -2.461221  2.414220  1.383983
C    -1.507222  2.881337  2.384082
H    -2.912918  3.125391  0.816745
H    -1.741522  2.505898  3.387393
H    -1.576680  3.974277  2.421239
H    -0.470116  2.614078  2.143133
