33
Energy: -18209.5313294 eV PBE+vdW (tier 2 basis)
C    0.001006  1.397189  0.387089
C    -0.300787  0.953060  1.806254
O    -0.251175  1.723436  2.759207
H    0.942138  1.959024  0.382864
H    -0.790671  2.084118  0.060201
H    0.069091  0.570706  -0.331543
N    -0.619457  -0.380323  1.947478
C    -1.135572  -0.929269  3.195736
C    -0.184492  -1.950067  3.863734
O    -0.588894  -2.707532  4.748634
H    -0.759384  -0.925173  1.103321
H    -1.177753  -0.070177  3.885031
C    -2.537495  -1.531583  3.040936
C    -2.603140  -2.714934  2.064642
C    -3.833906  -3.613955  2.245664
C    -3.912817  -4.305398  3.614474
N    -2.689197  -5.060828  3.910776
H    -3.232997  -0.736041  2.735245
H    -2.844929  -1.855528  4.043065
H    -1.706819  -3.345123  2.182987
H    -2.588034  -2.351409  1.023539
H    -3.812507  -4.389763  1.465429
H    -4.755396  -3.027831  2.092218
H    -4.755001  -5.012347  3.589636
H    -4.164822  -3.559099  4.393871
H    -2.867343  -5.734238  4.654644
H    -1.961210  -4.433729  4.264397
N    1.100508  -1.920992  3.429772
C    2.146628  -2.741340  4.006062
H    1.328146  -1.237245  2.716633
H    2.879654  -2.130659  4.552528
H    2.669918  -3.313318  3.228093
H    1.674712  -3.437630  4.707382
