33
Energy: -18209.213986 eV PBE+vdW (tier 2 basis)
C    1.362048  0.124450  -0.218274
C    0.499507  1.335325  0.082526
O    0.819149  2.471592  -0.254681
H    0.879897  -0.510320  -0.975294
H    1.540984  -0.492291  0.673626
H    2.318666  0.477965  -0.611116
N    -0.665727  1.115595  0.780234
C    -1.278268  -0.157139  1.102009
C    -1.775246  -0.910572  -0.159763
O    -2.100984  -0.332730  -1.190499
H    -1.244293  1.946460  0.846180
H    -0.516346  -0.786388  1.592657
C    -2.436153  0.023878  2.115727
C    -3.795923  0.490660  1.563831
C    -3.863677  1.876022  0.900515
C    -3.551441  3.059592  1.832016
N    -3.634283  4.394024  1.234068
H    -2.074749  0.702158  2.903482
H    -2.596486  -0.945717  2.610127
H    -4.508541  0.464723  2.404708
H    -4.160035  -0.257019  0.842675
H    -4.885584  2.012137  0.509967
H    -3.211931  1.904539  0.012748
H    -2.542392  2.965907  2.265676
H    -4.239040  3.030414  2.693665
H    -4.544163  4.529642  0.790693
H    -2.936738  4.498469  0.495508
N    -1.843443  -2.265656  -0.000262
C    -2.348877  -3.155142  -1.029134
H    -1.521240  -2.664828  0.873395
H    -3.236657  -3.703186  -0.683713
H    -1.583465  -3.878617  -1.342266
H    -2.624577  -2.535979  -1.889361
