33
Energy: -18209.146787 eV PBE+vdW (tier 2 basis)
C    -0.279313  0.804054  -0.326439
C    -0.136410  0.646520  1.172927
O    0.921514  0.850964  1.764994
H    -0.859126  1.705545  -0.570551
H    -0.801522  -0.043924  -0.788992
H    0.721599  0.901386  -0.754379
N    -1.254822  0.253062  1.872535
C    -2.623700  0.114751  1.387185
C    -3.221759  1.439656  0.847906
O    -3.796573  1.459059  -0.241962
H    -1.093206  0.178084  2.873136
H    -2.628578  -0.545213  0.506662
C    -3.492436  -0.538425  2.489579
C    -4.661903  -1.411820  2.003012
C    -5.735826  -0.730843  1.142310
C    -6.442219  0.461924  1.805120
N    -7.343216  1.228459  0.939406
H    -3.859106  0.231414  3.184643
H    -2.823342  -1.185748  3.077663
H    -5.133299  -1.847280  2.899368
H    -4.246618  -2.263551  1.440873
H    -6.492265  -1.486484  0.873917
H    -5.292774  -0.387575  0.196086
H    -5.698658  1.173445  2.195464
H    -7.016715  0.118451  2.681119
H    -8.065986  0.618749  0.552937
H    -6.815664  1.586163  0.140181
N    -3.103764  2.581329  1.588539
C    -2.457240  2.825985  2.870413
H    -3.512548  3.381805  1.116093
H    -2.734473  2.072845  3.618265
H    -2.806152  3.794903  3.244524
H    -1.361320  2.857748  2.793157
