33
Energy: -18208.9625066 eV PBE+vdW (tier 2 basis)
C    0.431956  0.327474  0.189818
C    0.190601  0.489598  1.677276
O    0.945629  1.142915  2.396578
H    0.203514  1.281741  -0.303705
H    -0.175087  -0.460946  -0.272010
H    1.493262  0.113063  0.023153
N    -0.925820  -0.130710  2.164941
C    -1.415632  0.087966  3.527213
C    -1.458081  1.620495  3.807754
O    -2.209756  2.286151  3.095190
H    -1.577150  -0.517996  1.494053
H    -2.494783  -0.112954  3.467255
C    -0.863112  -0.925588  4.560115
C    0.589729  -1.391549  4.416497
C    0.990351  -2.455372  5.446663
C    1.108086  -1.943000  6.882816
N    1.509733  -3.029498  7.784917
H    -1.499234  -1.823308  4.486557
H    -1.059279  -0.521269  5.563949
H    1.283792  -0.542636  4.465794
H    0.717336  -1.815381  3.409820
H    1.964892  -2.878575  5.150341
H    0.277443  -3.295633  5.431880
H    0.131208  -1.575981  7.233839
H    1.795570  -1.072020  6.894886
H    2.448172  -3.356067  7.548796
H    1.552804  -2.700183  8.749258
N    -0.832550  2.201312  4.877208
C    0.416199  1.831571  5.533709
H    -1.052854  3.193587  4.891757
H    0.766181  2.703158  6.097406
H    1.183287  1.559064  4.797965
H    0.283845  1.010108  6.248890
