33
Energy: -18209.2859414 eV PBE+vdW (tier 2 basis)
C    -0.629958  0.427986  0.755103
C    -0.214330  -0.013321  2.150188
O    0.930457  -0.388199  2.400448
H    0.005674  1.266136  0.442652
H    -1.682655  0.729643  0.685661
H    -0.445338  -0.398000  0.057027
N    -1.196376  0.074653  3.092745
C    -1.072269  -0.457746  4.445247
C    0.266361  -0.128723  5.149674
O    0.906206  -0.997474  5.733374
H    -2.165308  0.258231  2.805211
H    -1.847898  0.067904  5.031738
C    -1.348402  -1.969357  4.506436
C    -2.650834  -2.393389  3.818734
C    -3.956248  -1.836188  4.436249
C    -4.831796  -1.040917  3.465151
N    -4.213788  0.252385  3.093947
H    -1.349352  -2.275976  5.562033
H    -0.497281  -2.486733  4.043604
H    -2.690280  -3.491595  3.823662
H    -2.603611  -2.107950  2.756300
H    -3.732364  -1.201693  5.310818
H    -4.564692  -2.661760  4.833059
H    -5.839242  -0.910756  3.900442
H    -4.960274  -1.619516  2.537975
H    -4.736952  0.681700  2.329697
H    -4.289622  0.901725  3.879963
N    0.649015  1.185504  5.220797
C    0.091029  2.351181  4.562942
H    1.563719  1.286782  5.649391
H    0.420175  3.246884  5.104274
H    -1.004879  2.332252  4.590393
H    0.406826  2.442880  3.511594
