33
Energy: -18209.2955471 eV PBE+vdW (tier 2 basis)
C    -0.280883  0.271429  -0.405702
C    0.153607  -0.055513  1.008684
O    1.335419  -0.034823  1.341169
H    0.532341  -0.012052  -1.080986
H    -0.422426  1.358012  -0.490726
H    -1.210153  -0.218345  -0.716847
N    -0.814369  -0.399318  1.934894
C    -2.276403  -0.318890  1.845626
C    -2.908667  -1.397823  0.925724
O    -4.048164  -1.268512  0.485196
H    -0.416565  -0.499647  2.864423
H    -2.625896  -0.596820  2.854518
C    -2.848297  1.076254  1.547756
C    -2.410512  2.137103  2.560165
C    -2.915667  3.551641  2.249208
C    -4.431310  3.726570  2.345724
N    -4.795856  5.138386  2.157572
H    -3.939442  0.964656  1.530344
H    -2.567606  1.390074  0.531365
H    -1.310877  2.165112  2.608815
H    -2.749750  1.842746  3.569187
H    -2.581490  3.840460  1.236734
H    -2.448020  4.269387  2.939476
H    -4.761931  3.430412  3.354329
H    -4.935740  3.043073  1.635978
H    -4.564354  5.436977  1.208450
H    -5.803846  5.261382  2.255860
N    -2.131152  -2.493279  0.711367
C    -2.567432  -3.622452  -0.084885
H    -1.194676  -2.477920  1.100706
H    -2.552331  -4.550864  0.502590
H    -1.931415  -3.755057  -0.971586
H    -3.594175  -3.422734  -0.409827
