33
Energy: -18209.3496893 eV PBE+vdW (tier 2 basis)
C    -1.421618  -1.126309  1.935722
C    -0.217275  -0.221676  2.125292
O    0.881310  -0.669343  2.448166
H    -1.963286  -0.926744  1.000520
H    -2.128509  -1.014360  2.771819
H    -1.057047  -2.157134  1.920840
N    -0.393396  1.129061  1.953547
C    -1.555289  1.864916  1.494499
C    -1.098069  2.828768  0.384497
O    -0.017528  3.409551  0.451061
H    0.463211  1.678668  2.013310
H    -2.283704  1.151398  1.085125
C    -2.218534  2.693466  2.623683
C    -2.915989  1.854222  3.698047
C    -4.272928  1.286053  3.269301
C    -4.884534  0.324189  4.294133
N    -4.152305  -0.951456  4.328199
H    -2.939118  3.395374  2.170998
H    -1.428794  3.311389  3.075383
H    -3.069705  2.485020  4.588105
H    -2.254464  1.037024  4.021288
H    -4.184627  0.753308  2.306073
H    -4.978212  2.114799  3.092699
H    -5.963158  0.201544  4.081929
H    -4.815228  0.776655  5.295230
H    -4.473350  -1.567747  3.581030
H    -4.320438  -1.446756  5.202577
N    -1.992950  3.010819  -0.628260
C    -1.771494  3.944901  -1.716917
H    -2.854283  2.478687  -0.607138
H    -2.526410  4.743838  -1.719527
H    -1.790120  3.432418  -2.688369
H    -0.782244  4.390612  -1.569178
