33
Energy: -18209.1573541 eV PBE+vdW (tier 2 basis)
C    -0.607266  -3.304934  2.663498
C    -0.223958  -1.935771  2.140512
O    0.944125  -1.583541  1.990868
H    -1.083986  -3.908069  1.877655
H    -1.320861  -3.243778  3.496279
H    0.303300  -3.809342  2.996057
N    -1.253363  -1.076572  1.829739
C    -2.679479  -1.358310  1.800366
C    -3.134630  -2.414703  0.766932
O    -3.984197  -3.244123  1.108573
H    -0.935140  -0.180957  1.469453
H    -2.978598  -1.820999  2.752442
C    -3.457981  -0.028766  1.673031
C    -4.967067  -0.190328  1.412254
C    -5.359604  -0.067064  -0.074246
C    -6.647486  -0.804193  -0.450684
N    -6.371869  -2.220382  -0.729994
H    -3.011048  0.578800  0.868337
H    -3.279101  0.524642  2.606019
H    -5.515133  0.570107  1.985898
H    -5.296777  -1.160815  1.811444
H    -4.560750  -0.464189  -0.719226
H    -5.456094  1.000008  -0.326509
H    -7.064170  -0.360934  -1.367982
H    -7.402166  -0.639191  0.346460
H    -7.241391  -2.734070  -0.870972
H    -5.887273  -2.669511  0.051872
N    -2.621367  -2.419602  -0.492911
C    -1.700521  -1.492146  -1.136347
H    -3.063350  -3.120994  -1.080013
H    -1.994024  -0.445013  -0.983145
H    -1.731997  -1.682409  -2.214437
H    -0.665867  -1.623832  -0.793168
