33
Energy: -18209.4871177 eV PBE+vdW (tier 2 basis)
C    0.953026  -0.544782  0.929633
C    0.410789  -0.802938  2.323302
O    1.137495  -0.858345  3.309879
H    1.800688  -1.215511  0.747665
H    1.335770  0.483476  0.888856
H    0.209843  -0.675766  0.132915
N    -0.952689  -0.985453  2.397018
C    -1.667442  -1.034808  3.668124
C    -2.272807  -2.423105  3.980785
O    -3.151045  -2.559048  4.835449
H    -1.498648  -0.815184  1.559348
H    -0.890769  -0.876209  4.434364
C    -2.731398  0.061419  3.788221
C    -3.856217  -0.027800  2.741244
C    -5.152844  0.687694  3.159908
C    -6.093991  -0.152402  4.033424
N    -5.529080  -0.484324  5.346412
H    -2.232362  1.039532  3.720843
H    -3.156334  -0.001152  4.796346
H    -4.095164  -1.086141  2.536218
H    -3.506209  0.395995  1.785217
H    -5.713939  0.973031  2.256252
H    -4.907282  1.622903  3.688262
H    -6.399280  -1.045308  3.447503
H    -7.010206  0.433016  4.203185
H    -6.264271  -0.822133  5.966128
H    -4.842007  -1.240482  5.273195
N    -1.745180  -3.459156  3.280382
C    -2.109435  -4.840528  3.521970
H    -1.002963  -3.239335  2.625790
H    -2.956902  -4.844531  4.215696
H    -1.279177  -5.401127  3.975313
H    -2.404966  -5.337500  2.588153
