33
Energy: -18209.2357753 eV PBE+vdW (tier 2 basis)
C    -0.354427  0.706371  -0.224610
C    0.221619  0.356868  1.132948
O    1.427575  0.210015  1.310957
H    -1.346765  0.280597  -0.412151
H    0.348479  0.361822  -0.988609
H    -0.441110  1.798607  -0.309312
N    -0.656696  0.195350  2.188860
C    -2.090998  0.496091  2.244217
C    -2.944251  -0.496472  1.406813
O    -4.035629  -0.176394  0.943092
H    -0.169620  0.087242  3.074009
H    -2.373780  0.265407  3.284766
C    -2.465622  1.974805  1.976616
C    -3.301154  2.630484  3.083637
C    -4.712703  2.064248  3.262546
C    -5.554973  2.845203  4.274224
N    -5.800898  4.219460  3.811789
H    -3.004784  2.040684  1.021600
H    -1.530677  2.541052  1.868956
H    -3.386470  3.705451  2.869689
H    -2.754589  2.557384  4.041380
H    -4.676764  1.010813  3.582874
H    -5.228095  2.048368  2.288478
H    -5.011026  2.912675  5.230372
H    -6.481631  2.274716  4.479675
H    -6.422030  4.210388  3.001217
H    -6.274643  4.762616  4.532926
N    -2.410821  -1.743727  1.295731
C    -3.066649  -2.817640  0.577389
H    -1.468500  -1.873715  1.648151
H    -3.177374  -3.706117  1.213815
H    -2.506370  -3.098217  -0.326342
H    -4.059663  -2.462824  0.281566
