33
Energy: -18209.19242 eV PBE+vdW (tier 2 basis)
C    0.674721  0.909022  0.367308
C    0.473540  0.436309  1.796443
O    1.416354  0.175407  2.536439
H    -0.259443  1.052156  -0.191046
H    1.297380  0.176679  -0.160658
H    1.228223  1.856344  0.384270
N    -0.837600  0.317643  2.190272
C    -1.211191  0.006851  3.560853
C    -1.648825  -1.442344  3.855068
O    -1.371597  -1.932441  4.947878
H    -1.547576  0.673733  1.561756
H    -0.282804  0.097148  4.139601
C    -2.263675  0.991899  4.102857
C    -1.786418  2.447991  4.181212
C    -0.521465  2.673559  5.023661
C    -0.603103  2.163972  6.466115
N    -1.750723  2.748022  7.176388
H    -2.564107  0.643481  5.100561
H    -3.173432  0.939227  3.480031
H    -2.610248  3.041547  4.601669
H    -1.604732  2.839923  3.167728
H    -0.305383  3.755205  5.036337
H    0.351619  2.205486  4.542643
H    -0.734744  1.071404  6.471055
H    0.370609  2.356107  6.956122
H    -1.853264  2.323134  8.097491
H    -1.601013  3.745976  7.333422
N    -2.369557  -2.157434  2.936397
C    -2.922560  -1.759632  1.653487
H    -2.590329  -3.089927  3.271318
H    -3.442656  -0.792814  1.712327
H    -3.670155  -2.504542  1.358051
H    -2.161765  -1.707182  0.861304
