33
Energy: -18209.5564716 eV PBE+vdW (tier 2 basis)
C    -1.525326  -2.437121  0.829415
C    -1.666924  -0.967364  1.174806
O    -1.975099  -0.134498  0.313480
H    -0.759487  -2.541854  0.050843
H    -2.472559  -2.793017  0.405692
H    -1.256345  -3.066619  1.685846
N    -1.451119  -0.654578  2.478734
C    -1.395697  0.699520  3.002206
C    -0.209877  0.748544  3.973231
O    0.198019  -0.276993  4.528009
H    -1.052682  -1.349712  3.108953
H    -1.234613  1.387394  2.163341
C    -2.695388  1.089541  3.747981
C    -3.890037  1.465723  2.857079
C    -3.897258  2.923500  2.335549
C    -3.481453  3.157106  0.878602
N    -2.064026  2.863169  0.610345
H    -2.486008  1.928470  4.430264
H    -2.958313  0.236277  4.391166
H    -4.797297  1.313842  3.459997
H    -3.971429  0.759367  2.016661
H    -3.264695  3.549127  2.986405
H    -4.919496  3.320887  2.435838
H    -3.657016  4.219235  0.650833
H    -4.160773  2.581291  0.220629
H    -1.747589  3.400634  -0.195786
H    -1.964839  1.873322  0.353433
N    0.348363  1.964742  4.215846
C    -0.023730  3.260871  3.668809
H    1.072898  1.936998  4.927673
H    0.882266  3.857619  3.504115
H    -0.686937  3.819338  4.348926
H    -0.535896  3.154318  2.703682
