33
Energy: -18209.5204681 eV PBE+vdW (tier 2 basis)
C    -3.380720  3.439373  1.135598
C    -2.529194  2.272484  1.596055
O    -1.654121  1.784012  0.886994
H    -4.229460  3.658162  1.795654
H    -3.750330  3.234244  0.124521
H    -2.743158  4.331903  1.074198
N    -2.811003  1.801347  2.860021
C    -1.929475  0.870412  3.556617
C    -2.643969  -0.405872  4.046997
O    -2.121566  -1.144021  4.878414
H    -3.434518  2.363071  3.432069
H    -1.219512  0.531586  2.785283
C    -1.159865  1.547567  4.703436
C    -0.271719  2.712505  4.253338
C    0.907707  2.316680  3.359338
C    1.569656  3.503684  2.636435
N    0.754208  4.195412  1.631562
H    -0.568174  0.766642  5.199794
H    -1.885922  1.899542  5.455942
H    0.109418  3.228290  5.148788
H    -0.895087  3.456392  3.727888
H    0.578787  1.602446  2.588091
H    1.665520  1.790814  3.963409
H    2.480675  3.143307  2.134449
H    1.904579  4.254400  3.370312
H    -0.011633  4.701441  2.076572
H    0.319618  3.515348  1.003404
N    -3.853182  -0.652304  3.469517
C    -4.608628  -1.862076  3.726192
H    -4.159826  -0.007614  2.749668
H    -4.618964  -2.525422  2.848981
H    -5.644536  -1.626782  4.005164
H    -4.122604  -2.385975  4.556300
