33
Energy: -18209.2013703 eV PBE+vdW (tier 2 basis)
C    -0.323406  -0.886940  -0.699197
C    0.176393  -0.463512  0.674529
O    1.373134  -0.483076  0.956250
H    0.537821  -1.247837  -1.267294
H    -0.768860  -0.037945  -1.238223
H    -1.078534  -1.682496  -0.645547
N    -0.756495  -0.066481  1.594221
C    -2.187863  0.094366  1.422801
C    -2.558643  1.511838  1.900275
O    -1.953766  2.038608  2.832144
H    -0.375196  0.338444  2.448197
H    -2.421725  -0.021604  0.356903
C    -3.033227  -0.916210  2.235440
C    -2.955060  -2.387720  1.803119
C    -1.663257  -3.159513  2.126375
C    -1.216788  -3.102954  3.588877
N    -2.286351  -3.542421  4.496979
H    -4.086166  -0.598986  2.167127
H    -2.768143  -0.812142  3.297793
H    -3.153284  -2.462142  0.720463
H    -3.789231  -2.904301  2.298755
H    -0.822410  -2.815658  1.510130
H    -1.825422  -4.214132  1.844513
H    -0.959434  -2.067253  3.855863
H    -0.279623  -3.683478  3.685302
H    -2.469484  -4.539421  4.372017
H    -2.000895  -3.422495  5.468481
N    -3.609886  2.127546  1.285272
C    -4.376148  1.658460  0.142221
H    -3.829890  3.040098  1.671640
H    -5.146444  2.402780  -0.084545
H    -4.885863  0.705379  0.345044
H    -3.753308  1.539709  -0.757107
