33
Energy: -18209.50138 eV PBE+vdW (tier 2 basis)
C    -0.015192  3.784936  2.713823
C    -0.636990  2.605129  3.437750
O    -1.324010  2.743665  4.450775
H    0.597515  4.351258  3.425772
H    -0.817493  4.450342  2.370874
H    0.602959  3.498919  1.854050
N    -0.386676  1.382869  2.885795
C    -0.880216  0.151109  3.470629
C    0.151623  -0.936004  3.142634
O    0.749054  -0.942642  2.065310
H    0.216565  1.272476  2.075185
H    -0.955380  0.313626  4.557539
C    -2.282603  -0.211367  2.927065
C    -2.957573  -1.399563  3.614566
C    -4.388525  -1.629106  3.117011
C    -5.134389  -2.745507  3.849432
N    -4.516798  -4.059829  3.616827
H    -2.197621  -0.393822  1.844473
H    -2.904505  0.686981  3.055114
H    -2.977888  -1.226077  4.706053
H    -2.362880  -2.311569  3.447359
H    -4.368529  -1.865159  2.041384
H    -4.963125  -0.695589  3.231123
H    -6.161932  -2.795317  3.461019
H    -5.217127  -2.478132  4.923101
H    -3.640748  -4.144773  4.132731
H    -5.123008  -4.802440  3.964223
N    0.328128  -1.879138  4.107157
C    1.196051  -3.029507  3.938883
H    -0.192539  -1.776728  4.969892
H    1.685002  -2.933173  2.964005
H    0.624463  -3.968340  3.959401
H    1.964385  -3.062528  4.723044
