33
Energy: -18209.385879 eV PBE+vdW (tier 2 basis)
C    0.660399  -0.675597  0.171613
C    0.193574  -0.346295  1.576217
O    0.887850  -0.582508  2.566017
H    -0.038904  -0.360252  -0.612321
H    0.815386  -1.759407  0.097770
H    1.630750  -0.193586  0.001650
N    -1.036989  0.246421  1.661058
C    -1.671332  0.534000  2.940733
C    -2.665251  -0.604326  3.257538
O    -3.676343  -0.755463  2.568653
H    -1.628491  0.269216  0.837109
H    -0.853923  0.565391  3.670267
C    -2.400084  1.880769  2.916480
C    -2.968863  2.264385  4.286826
C    -3.646860  3.639179  4.323862
C    -4.924102  3.734919  3.488267
N    -5.529382  5.065568  3.629124
H    -3.206446  1.823264  2.169985
H    -1.687153  2.647481  2.576215
H    -3.689503  1.495689  4.611910
H    -2.152567  2.252490  5.027363
H    -3.896592  3.879127  5.371130
H    -2.946468  4.421807  3.991776
H    -5.598160  2.900047  3.768539
H    -4.687148  3.596840  2.422844
H    -6.348923  5.151564  3.028114
H    -5.857827  5.205646  4.585975
N    -2.371227  -1.429011  4.298194
C    -1.207163  -1.400359  5.176391
H    -3.069600  -2.150694  4.450204
H    -1.141657  -2.365824  5.689996
H    -1.284274  -0.613426  5.942523
H    -0.283133  -1.258954  4.601295
