33
Energy: -18209.4371224 eV PBE+vdW (tier 2 basis)
C    0.558836  -0.993065  0.788162
C    0.267025  -0.430629  2.164393
O    1.120980  -0.332970  3.039841
H    0.284775  -0.289690  -0.010047
H    -0.007246  -1.918676  0.610568
H    1.627574  -1.212817  0.729316
N    -1.027507  -0.008554  2.401727
C    -2.186504  -0.155264  1.528324
C    -2.234591  0.881461  0.385804
O    -2.868542  0.653167  -0.647164
H    -1.193734  0.253733  3.370512
H    -2.151762  -1.131685  1.027507
C    -3.459768  -0.070047  2.402881
C    -4.817909  -0.282408  1.713871
C    -5.263013  -1.741815  1.531966
C    -4.452778  -2.608925  0.546896
N    -4.348215  -2.147132  -0.834897
H    -3.453178  0.922622  2.883240
H    -3.342079  -0.809634  3.212200
H    -4.831783  0.238423  0.745601
H    -5.575967  0.220515  2.332554
H    -6.312458  -1.732549  1.192952
H    -5.268663  -2.244983  2.515398
H    -4.899273  -3.615861  0.537298
H    -3.430517  -2.758028  0.931265
H    -3.900124  -1.227350  -0.889473
H    -5.274668  -2.052973  -1.252278
N    -1.569540  2.039229  0.624999
C    -1.515677  3.132591  -0.325220
H    -1.017203  2.080022  1.475651
H    -1.917414  4.056398  0.112986
H    -2.125863  2.852674  -1.190483
H    -0.485355  3.318087  -0.659424
