33
Energy: -18209.2828249 eV PBE+vdW (tier 2 basis)
C    -0.508432  -0.989959  -0.171253
C    -0.036987  0.145321  0.724045
O    1.161071  0.339515  0.952082
H    -1.148470  -0.622842  -0.985963
H    -1.084876  -1.734704  0.397907
H    0.371913  -1.479696  -0.595322
N    -0.993893  0.943245  1.272319
C    -2.425166  0.753573  1.251451
C    -3.063684  1.347352  -0.027424
O    -2.617969  2.349672  -0.573472
H    -0.643755  1.702617  1.877708
H    -2.652758  -0.323242  1.304241
C    -3.056484  1.442490  2.480608
C    -2.840046  0.737701  3.830495
C    -1.421692  0.646890  4.425189
C    -0.711249  1.981779  4.705108
N    -0.004061  2.500758  3.520392
H    -4.141833  1.515442  2.312090
H    -2.689734  2.479494  2.508010
H    -3.243250  -0.286500  3.754473
H    -3.480199  1.250181  4.568001
H    -0.772129  0.021218  3.794542
H    -1.513279  0.109165  5.381464
H    -0.036695  1.849348  5.570454
H    -1.455090  2.736029  5.006484
H    0.278082  3.470584  3.658922
H    0.851807  1.967986  3.346284
N    -4.183959  0.712672  -0.499603
C    -4.807614  -0.502603  -0.002360
H    -4.586487  1.159592  -1.317023
H    -4.139589  -1.374594  -0.073480
H    -5.690944  -0.712531  -0.614951
H    -5.145471  -0.405140  1.040030
