33
Energy: -18209.7607314 eV PBE+vdW (tier 2 basis)
C    -1.608865  -1.305614  -0.922746
C    -2.202992  -1.055920  0.450840
O    -3.271243  -0.455878  0.603439
H    -1.474788  -0.341959  -1.429608
H    -2.323305  -1.890361  -1.515725
H    -0.648690  -1.835124  -0.896023
N    -1.484981  -1.543580  1.499069
C    -1.896714  -1.333224  2.872137
C    -0.617279  -1.261493  3.719549
O    0.394626  -1.889738  3.387212
H    -0.565921  -1.964202  1.382056
H    -2.434073  -0.375627  2.905685
C    -2.844291  -2.458310  3.360096
C    -3.646130  -2.125035  4.622681
C    -4.699414  -1.008041  4.427697
C    -4.581773  0.160170  5.406430
N    -3.357064  0.953547  5.160119
H    -2.248270  -3.370906  3.512271
H    -3.540272  -2.666515  2.533857
H    -2.958127  -1.852336  5.437258
H    -4.147558  -3.043371  4.959819
H    -5.710355  -1.428498  4.527670
H    -4.650638  -0.615838  3.397967
H    -4.522694  -0.224266  6.436429
H    -5.495864  0.777956  5.348314
H    -3.268431  1.685406  5.866846
H    -3.445813  1.440356  4.264849
N    -0.719690  -0.496137  4.830393
C    0.358551  -0.374310  5.790622
H    -1.606580  0.008285  4.996167
H    0.035967  -0.700258  6.790105
H    0.714725  0.663834  5.860188
H    1.186943  -1.009012  5.458338
