33
Energy: -18209.1200054 eV PBE+vdW (tier 2 basis)
C    0.064993  -2.266609  -0.053540
C    0.198470  -0.902583  0.590411
O    1.013105  -0.071607  0.192197
H    -0.972777  -2.597507  -0.170713
H    0.576503  -3.022948  0.558760
H    0.555903  -2.221762  -1.029337
N    -0.592542  -0.605726  1.678855
C    -1.673302  -1.358863  2.321882
C    -1.249001  -2.804490  2.679812
O    -1.828326  -3.788934  2.225872
H    -0.424429  0.336187  2.020202
H    -1.829902  -0.843886  3.283206
C    -2.999399  -1.323420  1.545014
C    -4.242908  -1.663393  2.378374
C    -4.573145  -0.649062  3.477645
C    -5.868421  -0.975339  4.219292
N    -6.111119  -0.008134  5.298033
H    -2.933551  -2.020317  0.699068
H    -3.099568  -0.310879  1.124673
H    -4.126494  -2.667555  2.812897
H    -5.099156  -1.733707  1.688928
H    -4.654241  0.359827  3.034904
H    -3.767772  -0.590274  4.226980
H    -5.778271  -1.971149  4.680566
H    -6.695899  -1.044727  3.484463
H    -6.309691  0.914588  4.907869
H    -6.935091  -0.273715  5.837468
N    -0.197503  -2.939178  3.542370
C    0.605196  -1.906915  4.177668
H    0.048467  -3.908356  3.717332
H    1.139960  -2.355293  5.022353
H    -0.024765  -1.102226  4.580115
H    1.340115  -1.460778  3.492398
