33
Energy: -18209.4873184 eV PBE+vdW (tier 2 basis)
C    2.242007  -1.334290  3.097999
C    0.843354  -0.970494  3.555950
O    -0.135007  -1.142152  2.817112
H    2.250745  -2.388366  2.795066
H    3.017462  -1.171355  3.856185
H    2.483742  -0.736902  2.209771
N    0.752354  -0.455363  4.813199
C    -0.454815  0.059865  5.481860
C    -1.469677  -1.040111  5.893528
O    -1.802634  -1.156755  7.073910
H    1.608806  -0.411700  5.350767
H    -0.103889  0.446366  6.446981
C    -1.108981  1.218654  4.705120
C    -2.290622  1.843819  5.449257
C    -2.907584  3.020401  4.690388
C    -4.103861  3.637336  5.412308
N    -4.631438  4.785110  4.661975
H    -1.431507  0.864735  3.716288
H    -0.331809  1.979357  4.527749
H    -1.965116  2.176955  6.448947
H    -3.060893  1.076863  5.628077
H    -3.225780  2.680971  3.688989
H    -2.155526  3.807303  4.521726
H    -3.780704  4.006650  6.398313
H    -4.854931  2.845004  5.606258
H    -5.023391  4.474251  3.771531
H    -5.396589  5.224968  5.173431
N    -1.964947  -1.782625  4.872775
C    -2.921638  -2.850414  5.082198
H    -1.551737  -1.631427  3.945285
H    -3.799137  -2.719001  4.434161
H    -3.240391  -2.822794  6.129638
H    -2.477713  -3.835011  4.872859
