33
Energy: -18209.5417978 eV PBE+vdW (tier 2 basis)
C    -1.378409  -2.402815  0.450618
C    -1.124940  -1.310872  1.468877
O    -0.192863  -1.379319  2.279590
H    -1.534380  -3.351584  0.978631
H    -0.480803  -2.517950  -0.169703
H    -2.239048  -2.208601  -0.201008
N    -1.979166  -0.251249  1.432906
C    -1.852745  0.911391  2.314413
C    -2.541425  0.631393  3.678899
O    -3.609618  1.148560  3.999928
H    -2.778656  -0.284486  0.810180
H    -0.773643  1.028841  2.500404
C    -2.406195  2.165386  1.644318
C    -1.615212  2.606623  0.410283
C    -2.184293  3.872362  -0.237438
C    -1.466735  4.294514  -1.520527
N    -0.075499  4.691391  -1.261006
H    -2.412563  2.968813  2.394469
H    -3.467131  2.003887  1.391882
H    -1.593472  1.794901  -0.337156
H    -0.567212  2.777929  0.706896
H    -2.140386  4.705890  0.481253
H    -3.249124  3.710163  -0.473134
H    -1.982538  5.169973  -1.941144
H    -1.564323  3.482032  -2.270591
H    0.502097  3.876394  -1.053452
H    0.331015  5.123871  -2.089988
N    -1.837035  -0.237193  4.453157
C    -2.330890  -0.725545  5.725133
H    -1.019306  -0.675267  4.022298
H    -3.190824  -0.111995  6.013915
H    -1.554728  -0.645818  6.497787
H    -2.653952  -1.775620  5.659315
