33
Energy: -18209.4586845 eV PBE+vdW (tier 2 basis)
C    0.361350  0.158891  -0.079856
C    -0.248660  0.273124  1.303373
O    -0.633742  1.339191  1.773179
H    1.030645  -0.704349  -0.188970
H    0.907211  1.078862  -0.310522
H    -0.453512  0.053919  -0.811479
N    -0.361271  -0.919078  1.985254
C    -1.183890  -1.067298  3.182363
C    -0.362216  -1.341959  4.465757
O    -0.917456  -1.688832  5.506069
H    -0.164277  -1.767775  1.464098
H    -1.638597  -0.075997  3.348563
C    -2.284380  -2.125433  3.003308
C    -3.548955  -1.658656  2.271352
C    -3.359274  -1.145831  0.840055
C    -4.679254  -0.925531  0.104061
N    -4.433305  -0.379080  -1.237987
H    -2.557853  -2.465411  4.010836
H    -1.851092  -3.002122  2.488941
H    -4.036253  -0.875944  2.875635
H    -4.253882  -2.506591  2.256774
H    -2.747500  -1.849395  0.251844
H    -2.812678  -0.189689  0.854660
H    -5.340271  -0.292273  0.729730
H    -5.195825  -1.890511  -0.017834
H    -4.068912  0.572483  -1.165816
H    -5.305812  -0.311112  -1.762090
N    0.976492  -1.134737  4.353008
C    1.880516  -1.224637  5.481224
H    1.315051  -0.807156  3.455266
H    2.280056  -0.237557  5.756075
H    2.720013  -1.897969  5.260776
H    1.313535  -1.623548  6.329353
