33
Energy: -18209.3746665 eV PBE+vdW (tier 2 basis)
C    -1.499034  2.253555  1.349702
C    -0.971152  1.660749  2.643018
O    0.200086  1.861953  2.992684
H    -1.317668  3.335002  1.358219
H    -2.565220  2.068405  1.171720
H    -0.923509  1.831776  0.515755
N    -1.872235  0.932104  3.354728
C    -1.714912  0.099636  4.568553
C    -1.177599  0.774519  5.853413
O    -1.600362  0.370798  6.940022
H    -2.792120  0.867250  2.936645
H    -2.748048  -0.139394  4.851184
C    -1.020838  -1.256305  4.303984
C    0.498002  -1.229508  4.101560
C    1.126885  -2.615788  3.887193
C    0.995321  -3.212509  2.482672
N    -0.394011  -3.561048  2.138731
H    -1.501186  -1.721755  3.432224
H    -1.254777  -1.891534  5.173112
H    0.966258  -0.770300  4.985816
H    0.760498  -0.578913  3.254906
H    0.722779  -3.329963  4.627047
H    2.204086  -2.547047  4.104776
H    1.690011  -4.072303  2.405992
H    1.338427  -2.467980  1.746677
H    -0.438071  -3.936182  1.190807
H    -0.727436  -4.305091  2.754631
N    -0.250395  1.746823  5.716332
C    0.350500  2.380409  6.873830
H    0.129573  1.910821  4.773722
H    0.821547  3.319285  6.562308
H    1.112245  1.740186  7.346370
H    -0.419237  2.590401  7.626039
