33
Energy: -18209.2358315 eV PBE+vdW (tier 2 basis)
C    -0.136541  -0.304509  0.302918
C    -0.280329  -0.491468  1.799710
O    0.689455  -0.485285  2.553224
H    -0.864787  -0.871896  -0.288125
H    0.879116  -0.597731  0.022126
H    -0.265244  0.758905  0.057556
N    -1.550310  -0.681328  2.311681
C    -2.846813  -0.538159  1.642285
C    -3.123609  -1.666135  0.610779
O    -3.851828  -1.484717  -0.360806
H    -1.551942  -0.672336  3.327860
H    -3.584575  -0.725172  2.439527
C    -3.143266  0.858235  1.051181
C    -4.591694  1.314419  1.273842
C    -4.886534  1.762863  2.708750
C    -6.373381  2.006746  2.984401
N    -7.126679  0.744795  2.962957
H    -2.931561  0.842594  -0.025359
H    -2.452567  1.578527  1.515669
H    -5.280732  0.507458  0.987433
H    -4.805292  2.152987  0.592361
H    -4.324964  2.684440  2.933207
H    -4.522140  1.010906  3.432777
H    -6.785366  2.651998  2.192827
H    -6.477859  2.568729  3.932677
H    -8.130073  0.921187  2.933840
H    -6.950993  0.211166  3.815154
N    -2.544646  -2.861051  0.913116
C    -2.705187  -4.040957  0.087518
H    -1.891956  -2.873025  1.689460
H    -3.057558  -4.892861  0.684675
H    -1.762382  -4.320422  -0.405183
H    -3.449940  -3.809818  -0.681603
