33
Energy: -18209.6433242 eV PBE+vdW (tier 2 basis)
C    -0.127535  -0.360138  -0.275482
C    -0.171021  -0.541025  1.232071
O    0.553688  -1.350763  1.813072
H    -0.347853  -1.324010  -0.751015
H    0.891029  -0.076470  -0.568622
H    -0.829934  0.395119  -0.648406
N    -1.049209  0.271441  1.888725
C    -1.340228  0.122090  3.303954
C    -2.685699  0.845331  3.538679
O    -3.435426  1.105359  2.590127
H    -1.794155  0.742809  1.375033
H    -1.512357  -0.949160  3.518920
C    -0.199382  0.590433  4.219266
C    0.121333  2.092189  4.136305
C    0.726561  2.675552  5.422667
C    -0.281760  3.072589  6.505986
N    -1.053173  1.927283  7.041044
H    0.688810  -0.003582  3.966301
H    -0.463531  0.308993  5.247244
H    -0.787615  2.665002  3.887373
H    0.811998  2.261943  3.298713
H    1.295546  3.585620  5.178265
H    1.465660  1.971425  5.843638
H    -1.010281  3.775660  6.072248
H    0.254481  3.621632  7.301679
H    -0.416722  1.261893  7.485528
H    -1.674229  2.253135  7.783732
N    -3.000830  1.133672  4.823275
C    -4.238684  1.826415  5.133099
H    -2.270951  1.153548  5.547913
H    -4.256434  2.847583  4.720989
H    -4.345956  1.877638  6.222334
H    -5.096140  1.285795  4.714345
