33
Energy: -18209.4177647 eV PBE+vdW (tier 2 basis)
C    -1.494514  -0.224377  -0.218246
C    -1.101669  0.385482  1.111721
O    -0.051196  1.036230  1.213798
H    -2.518041  -0.617242  -0.247426
H    -0.796279  -1.046240  -0.428581
H    -1.369436  0.525991  -1.006799
N    -1.976205  0.167385  2.132258
C    -1.832844  0.310004  3.596640
C    -1.308240  1.634358  4.208043
O    -1.507224  1.805370  5.412519
H    -2.788633  -0.379422  1.870017
H    -2.870430  0.317549  3.960074
C    -1.171531  -0.935284  4.247401
C    0.162066  -1.411117  3.666994
C    1.358511  -0.479718  3.878228
C    2.615459  -0.930353  3.129216
N    2.364580  -1.017992  1.683176
H    -1.894680  -1.762798  4.170254
H    -1.081968  -0.703320  5.319141
H    0.055091  -1.614378  2.591503
H    0.390475  -2.389049  4.121897
H    1.590256  -0.400645  4.951870
H    1.110080  0.538024  3.543701
H    2.917300  -1.931591  3.479866
H    3.441134  -0.241398  3.395403
H    1.996522  -0.130153  1.333890
H    3.229979  -1.208349  1.179643
N    -0.713628  2.541189  3.403233
C    -0.176461  3.773004  3.950659
H    -0.376872  2.197536  2.492804
H    0.001326  4.479239  3.132041
H    0.769048  3.607752  4.491779
H    -0.892589  4.207240  4.657493
