33
Energy: -18209.1227345 eV PBE+vdW (tier 2 basis)
C    -0.714366  -0.592573  0.148663
C    -0.559003  0.193159  1.440073
O    0.460803  0.822795  1.702450
H    -1.730508  -0.966577  -0.029060
H    -0.024987  -1.446673  0.175894
H    -0.412246  0.044659  -0.690354
N    -1.645012  0.154025  2.275582
C    -1.687025  0.699944  3.634263
C    -0.901176  2.026836  3.808352
O    -0.088316  2.168061  4.715997
H    -2.420452  -0.439144  2.004412
H    -2.742870  0.974006  3.808076
C    -1.303516  -0.333724  4.707633
C    0.062996  -1.001060  4.537453
C    0.388569  -1.948875  5.693256
C    1.744027  -2.634567  5.539342
N    1.994089  -3.556463  6.657510
H    -2.090857  -1.106547  4.725194
H    -1.342710  0.179651  5.679185
H    0.834914  -0.224142  4.457867
H    0.086518  -1.565285  3.590715
H    -0.388115  -2.724729  5.792725
H    0.378921  -1.380435  6.639697
H    2.525812  -1.859130  5.415289
H    1.746334  -3.230392  4.612656
H    2.887582  -4.032879  6.532219
H    2.071593  -3.032144  7.530810
N    -1.263004  3.087893  3.021857
C    -2.139050  3.126163  1.867112
H    -0.663630  3.892522  3.177458
H    -2.457613  4.163010  1.705185
H    -3.042620  2.528684  2.038275
H    -1.651782  2.764529  0.947541
