33
Energy: -18209.2067778 eV PBE+vdW (tier 2 basis)
C    0.226584  -0.358546  0.738802
C    -0.134819  -0.250324  2.209849
O    0.714975  -0.342155  3.092728
H    -0.172825  0.467433  0.136060
H    -0.154067  -1.296718  0.313365
H    1.317320  -0.357811  0.667672
N    -1.454896  -0.049923  2.537996
C    -2.636046  0.036629  1.680250
C    -3.461695  1.246972  2.174489
O    -4.404879  1.109414  2.950525
H    -1.621097  -0.044573  3.542447
H    -2.284993  0.228170  0.657035
C    -3.492367  -1.236420  1.687553
C    -2.791954  -2.456431  1.092157
C    -3.648143  -3.723441  1.161944
C    -2.977031  -4.962104  0.563903
N    -1.732557  -5.290154  1.272836
H    -4.420629  -1.021948  1.134362
H    -3.807113  -1.436219  2.722764
H    -1.842613  -2.646778  1.612317
H    -2.532969  -2.258693  0.036821
H    -4.606010  -3.561085  0.641428
H    -3.910996  -3.928270  2.214717
H    -2.712802  -4.758806  -0.486348
H    -3.713163  -5.789758  0.547511
H    -1.251188  -6.064603  0.816952
H    -1.936807  -5.596414  2.225431
N    -3.075843  2.483819  1.737502
C    -1.912110  2.835265  0.941334
H    -3.602946  3.237945  2.166859
H    -1.909592  2.314557  -0.026642
H    -0.966545  2.620278  1.460931
H    -1.950050  3.909264  0.730952
