33
Energy: -18209.1764516 eV PBE+vdW (tier 2 basis)
C    -3.529600  -0.720728  3.398087
C    -2.601446  -0.084585  4.417925
O    -2.276833  -0.651723  5.457360
H    -4.455348  -1.022904  3.902801
H    -3.056474  -1.632749  3.012793
H    -3.778773  -0.066830  2.552691
N    -2.157768  1.172662  4.105409
C    -1.192664  1.886181  4.925838
C    -1.676554  2.500448  6.261806
O    -0.815541  2.791181  7.090907
H    -2.452237  1.589575  3.230929
H    -0.449921  1.150221  5.265350
C    -0.469164  2.965694  4.101680
C    -1.352147  4.117528  3.608926
C    -0.562607  5.188045  2.850228
C    -1.437229  6.344942  2.344968
N    -0.754431  7.417172  1.617522
H    0.023802  2.473843  3.247790
H    0.329205  3.367771  4.740092
H    -1.859384  4.582386  4.470250
H    -2.155773  3.742093  2.949560
H    -0.042149  4.727880  1.992598
H    0.226504  5.591262  3.506945
H    -1.962427  6.803632  3.198093
H    -2.226039  5.945710  1.686435
H    -0.266421  7.042784  0.802518
H    -0.040973  7.849754  2.205996
N    -2.993676  2.758724  6.518003
C    -4.203026  2.548617  5.737789
H    -3.113385  3.124113  7.457971
H    -4.114195  2.957475  4.724348
H    -5.018036  3.085890  6.236397
H    -4.485153  1.488082  5.672233
