33
Energy: -18209.207722 eV PBE+vdW (tier 2 basis)
C    -2.074050  -1.726274  0.193108
C    -1.007316  -1.215312  1.139682
O    0.011467  -1.863736  1.389895
H    -3.064144  -1.762993  0.669087
H    -1.789746  -2.729402  -0.133974
H    -2.171695  -1.071497  -0.684065
N    -1.201320  0.024883  1.700886
C    -2.482412  0.718952  1.789647
C    -3.027240  1.286674  0.463586
O    -4.230333  1.202137  0.218475
H    -0.495590  0.238101  2.412083
H    -3.266586  0.007201  2.091026
C    -2.460229  1.860145  2.837510
C    -1.695046  1.557250  4.134475
C    -1.986468  0.208501  4.817909
C    -0.718952  -0.402082  5.435175
N    0.311412  -0.608048  4.408650
H    -3.513004  2.098015  3.045217
H    -2.028080  2.767790  2.388953
H    -1.887470  2.380260  4.838741
H    -0.615111  1.596729  3.925028
H    -2.399412  -0.514968  4.097842
H    -2.753704  0.319859  5.597816
H    -0.988933  -1.323104  5.983961
H    -0.309067  0.297907  6.180180
H    0.136565  -1.435768  3.834713
H    1.232864  -0.726955  4.824440
N    -2.173113  1.904046  -0.407059
C    -0.743754  2.164899  -0.306550
H    -2.652427  2.238906  -1.236935
H    -0.491189  2.948265  -1.030761
H    -0.135123  1.276540  -0.524302
H    -0.465072  2.531418  0.688422
