33
Energy: -18209.1913414 eV PBE+vdW (tier 2 basis)
C    0.030370  0.252291  0.303250
C    -0.158411  0.465847  1.791514
O    0.755743  0.819549  2.534060
H    -0.550745  0.979342  -0.281670
H    -0.299696  -0.747624  -0.010381
H    1.091779  0.374652  0.074080
N    -1.417729  0.242665  2.296443
C    -2.641586  -0.022475  1.556483
C    -3.166880  1.134567  0.673520
O    -3.655851  0.868427  -0.424263
H    -1.485150  0.418552  3.295316
H    -2.452419  -0.819725  0.822218
C    -3.751382  -0.513484  2.501372
C    -3.462974  -1.877280  3.135394
C    -4.574308  -2.335321  4.083722
C    -4.341743  -3.721066  4.689476
N    -3.163779  -3.738233  5.568436
H    -4.682824  -0.564108  1.918921
H    -3.922701  0.238196  3.291149
H    -2.506092  -1.834583  3.678581
H    -3.331250  -2.622451  2.332297
H    -5.533494  -2.348573  3.540461
H    -4.680116  -1.609274  4.905717
H    -4.297300  -4.468925  3.871360
H    -5.213430  -3.985003  5.305513
H    -3.141944  -4.597856  6.115990
H    -2.301416  -3.727849  5.023431
N    -3.095956  2.425094  1.116325
C    -2.653393  2.970863  2.392605
H    -3.472283  3.078816  0.436787
H    -3.092235  2.432697  3.243094
H    -3.001955  4.007853  2.453719
H    -1.560151  2.969274  2.499815
