33
Energy: -18209.2574465 eV PBE+vdW (tier 2 basis)
C    -0.170813  -0.587665  -0.120754
C    -0.514511  -0.708426  1.354797
O    -0.267389  -1.723250  1.999458
H    0.916437  -0.461710  -0.215659
H    -0.660024  0.255275  -0.625218
H    -0.442263  -1.521596  -0.624477
N    -1.067280  0.421594  1.906597
C    -1.575919  0.509030  3.280528
C    -2.206985  1.884131  3.540371
O    -3.146757  2.012079  4.317976
H    -1.432502  1.106022  1.253445
H    -2.396737  -0.213154  3.411409
C    -0.534603  0.194641  4.385646
C    0.639454  1.163926  4.578073
C    1.658654  1.227619  3.434863
C    2.907855  2.026785  3.797811
N    3.800375  2.151823  2.637217
H    -0.159631  -0.819161  4.197993
H    -1.113268  0.154622  5.319957
H    1.165384  0.844825  5.492914
H    0.266413  2.178063  4.800227
H    1.221624  1.674569  2.529232
H    1.947449  0.201911  3.148859
H    3.386412  1.563539  4.684284
H    2.614376  3.044920  4.100684
H    4.158249  1.233259  2.369660
H    4.615863  2.717867  2.872311
N    -1.645804  2.939852  2.868911
C    -2.057066  4.307636  3.135089
H    -0.744536  2.790944  2.426450
H    -1.881564  4.926861  2.247870
H    -1.517173  4.743318  3.990243
H    -3.125174  4.307096  3.374907
