33
Energy: -18209.2821075 eV PBE+vdW (tier 2 basis)
C    -2.391149  -0.443505  -0.415360
C    -1.365868  -0.342593  0.697543
O    -0.441142  0.467739  0.663699
H    -3.125329  -1.245833  -0.270368
H    -1.867789  -0.602949  -1.365977
H    -2.921159  0.514244  -0.491336
N    -1.532226  -1.228831  1.728833
C    -0.717972  -1.191909  2.938859
C    -0.117685  -2.587603  3.214137
O    -0.381840  -3.248895  4.221390
H    -2.349808  -1.827364  1.721891
H    0.118804  -0.526900  2.674657
C    -1.439159  -0.558970  4.152057
C    -2.957487  -0.772172  4.265793
C    -3.470122  -2.202510  4.512650
C    -3.494933  -2.644144  5.980526
N    -2.183453  -2.515342  6.621804
H    -1.267543  0.525435  4.082941
H    -0.948268  -0.905815  5.069045
H    -3.435131  -0.370003  3.357511
H    -3.311055  -0.128784  5.086627
H    -2.878115  -2.932847  3.938914
H    -4.502542  -2.280578  4.136434
H    -4.205061  -2.002284  6.529380
H    -3.912185  -3.671667  6.015539
H    -2.202099  -2.911823  7.560322
H    -1.478815  -3.020552  6.079145
N    0.757189  -3.073393  2.285759
C    1.214882  -2.481939  1.039371
H    1.087710  -4.006097  2.514730
H    2.238368  -2.821693  0.840122
H    1.227335  -1.387949  1.096731
H    0.579666  -2.766659  0.186057
