33
Energy: -18209.4645761 eV PBE+vdW (tier 2 basis)
C    -3.052217  -1.593244  -0.813822
C    -2.237248  -0.566142  -0.051050
O    -1.106705  -0.233678  -0.408909
H    -3.181178  -1.244959  -1.846127
H    -4.038896  -1.786774  -0.375843
H    -2.485398  -2.531656  -0.854043
N    -2.858188  -0.025505  1.040688
C    -2.175996  0.851828  1.972041
C    -2.424989  0.311565  3.387927
O    -3.465268  -0.281738  3.675336
H    -3.709132  -0.449822  1.402710
H    -1.107416  0.803554  1.720334
C    -2.683877  2.312343  1.882221
C    -2.399970  3.020343  0.547292
C    -1.059430  3.762696  0.445048
C    0.203657  2.905296  0.541418
N    1.383489  3.699644  0.174483
H    -2.247540  2.891756  2.712503
H    -3.768241  2.283099  2.068045
H    -3.198454  3.758301  0.378924
H    -2.486387  2.296162  -0.277060
H    -1.024313  4.550033  1.219886
H    -1.020577  4.288221  -0.521316
H    0.128057  2.059474  -0.156754
H    0.281222  2.463020  1.557568
H    1.552685  4.434571  0.863196
H    2.218673  3.114552  0.161914
N    -1.435867  0.580325  4.283214
C    -1.520533  0.228684  5.688288
H    -0.600837  1.041440  3.941180
H    -2.482192  -0.270731  5.845161
H    -1.472884  1.122108  6.326539
H    -0.712051  -0.457766  5.975006
