33
Energy: -18209.4344964 eV PBE+vdW (tier 2 basis)
C    -2.914089  -0.515703  -0.673065
C    -1.743084  -0.666339  0.280732
O    -0.578348  -0.615851  -0.098751
H    -2.772417  -1.197285  -1.519922
H    -2.909857  0.506544  -1.073157
H    -3.890734  -0.710581  -0.212084
N    -2.085465  -0.880450  1.598640
C    -1.101384  -0.851697  2.674160
C    -0.859636  -2.222741  3.346016
O    -0.199901  -2.304899  4.379544
H    -3.062090  -0.780298  1.853220
H    -0.148872  -0.603071  2.179429
C    -1.414686  0.224795  3.724501
C    -2.746399  0.042370  4.459106
C    -2.981381  1.119378  5.523552
C    -4.349743  1.042742  6.201853
N    -4.485916  -0.171979  7.016088
H    -1.387123  1.207211  3.228435
H    -0.595472  0.205267  4.455806
H    -2.758252  -0.955057  4.926796
H    -3.592441  0.071913  3.746883
H    -2.881035  2.113400  5.057324
H    -2.198948  1.045610  6.294659
H    -5.139300  1.153713  5.428528
H    -4.456010  1.902508  6.879472
H    -4.534414  -1.003560  6.427111
H    -5.353572  -0.148251  7.550964
N    -1.399393  -3.294116  2.703646
C    -1.167969  -4.658760  3.132009
H    -1.871703  -3.112217  1.825360
H    -2.115113  -5.206829  3.226679
H    -0.675440  -4.619579  4.109693
H    -0.514810  -5.197189  2.429775
