33
Energy: -18209.4789113 eV PBE+vdW (tier 2 basis)
C    0.419091  0.422294  0.279774
C    0.302026  0.423326  1.791310
O    1.308985  0.421805  2.511588
H    1.053243  1.262827  -0.026548
H    -0.542889  0.487118  -0.242859
H    0.927835  -0.500044  -0.028791
N    -0.966417  0.427930  2.283913
C    -1.379841  0.296917  3.690835
C    -1.118347  1.542639  4.574934
O    -2.027793  1.995134  5.271650
H    -1.717080  0.466166  1.606169
H    -2.474092  0.242722  3.658882
C    -0.842551  -0.978683  4.374540
C    -1.137891  -2.285200  3.628602
C    -2.624277  -2.602494  3.439188
C    -2.886183  -3.914687  2.696180
N    -2.417399  -5.077996  3.461221
H    -1.298244  -1.006946  5.376265
H    0.241154  -0.883766  4.520292
H    -0.661925  -3.097077  4.199975
H    -0.636132  -2.270270  2.646284
H    -3.114354  -1.794503  2.871238
H    -3.121008  -2.646129  4.421476
H    -2.445332  -3.844523  1.679653
H    -3.970949  -4.030992  2.557844
H    -2.762154  -5.941257  3.042684
H    -1.399333  -5.139476  3.443950
N    0.147151  2.027683  4.542593
C    0.564307  3.164139  5.338489
H    0.821555  1.537190  3.944752
H    1.005043  3.946018  4.704409
H    1.305100  2.870263  6.096633
H    -0.318216  3.567262  5.846541
