33
Energy: -18209.1012471 eV PBE+vdW (tier 2 basis)
C    -0.644835  -0.323563  -0.601491
C    -0.116892  -0.156164  0.806377
O    1.095633  -0.028298  1.020827
H    -1.362345  0.466595  -0.863727
H    -1.160777  -1.284820  -0.716039
H    0.207508  -0.270773  -1.283603
N    -0.983839  -0.164728  1.868153
C    -2.415613  0.118286  1.961070
C    -3.240781  -0.549489  0.838872
O    -3.165854  -1.759004  0.642378
H    -0.495390  0.114731  2.723180
H    -2.761176  -0.454346  2.839681
C    -2.692517  1.601190  2.308695
C    -2.168701  2.721888  1.388838
C    -0.668974  3.083093  1.432575
C    -0.045024  3.300077  2.819207
N    0.394246  2.034254  3.434262
H    -2.275842  1.763283  3.313415
H    -3.782363  1.715380  2.433185
H    -2.731145  3.630168  1.659715
H    -2.430170  2.523402  0.335398
H    -0.555006  4.017974  0.862922
H    -0.062022  2.342478  0.894712
H    -0.779602  3.771651  3.493173
H    0.783236  4.025340  2.711786
H    0.830879  2.214341  4.338443
H    1.107678  1.595114  2.843303
N    -4.088728  0.263388  0.145242
C    -4.970047  -0.235553  -0.892541
H    -4.079228  1.255581  0.342654
H    -6.015097  0.032040  -0.685280
H    -4.873767  -1.326106  -0.909987
H    -4.690906  0.160526  -1.879646
