33
Energy: -18209.1139378 eV PBE+vdW (tier 2 basis)
C    -0.027113  0.874414  0.284537
C    0.044022  0.658952  1.787026
O    1.093259  0.753939  2.415690
H    0.467722  1.821859  0.040797
H    -1.047859  0.886335  -0.118162
H    0.537427  0.073924  -0.210900
N    -1.149684  0.364370  2.392251
C    -1.276886  0.006253  3.805382
C    -0.545502  0.988625  4.759523
O    0.158856  0.577413  5.674519
H    -1.967502  0.261133  1.805008
H    -2.352758  0.105904  4.036232
C    -0.849898  -1.438375  4.096001
C    -1.687940  -2.479904  3.350657
C    -1.227014  -3.928096  3.561291
C    -1.382276  -4.447589  4.990493
N    -1.039543  -5.876675  5.054196
H    -0.910888  -1.582899  5.181681
H    0.214114  -1.542051  3.837725
H    -1.659662  -2.268675  2.269535
H    -2.747326  -2.389516  3.652128
H    -0.169075  -4.015921  3.257723
H    -1.793439  -4.597294  2.896091
H    -2.436065  -4.345473  5.296844
H    -0.789610  -3.821923  5.684331
H    -0.050398  -6.007257  4.834138
H    -1.166025  -6.228741  6.003514
N    -0.796076  2.327744  4.618967
C    -1.607160  3.035458  3.647429
H    -0.241578  2.885317  5.260610
H    -1.872222  4.014658  4.064554
H    -2.545122  2.502667  3.447109
H    -1.088546  3.196997  2.689303
