33
Energy: -18209.0704234 eV PBE+vdW (tier 2 basis)
C    -0.418100  -1.369791  -0.069525
C    -0.558434  -0.614992  1.243630
O    0.152476  0.356006  1.499940
H    -0.516986  -0.655345  -0.895651
H    -1.145049  -2.179883  -0.206735
H    0.594009  -1.790657  -0.121481
N    -1.522345  -1.110237  2.080729
C    -1.893881  -0.704686  3.446310
C    -3.258622  0.032145  3.480463
O    -4.197686  -0.496762  4.081426
H    -2.059501  -1.890732  1.721458
H    -2.150471  -1.643344  3.958149
C    -0.756037  -0.067882  4.266389
C    -1.031725  -0.017816  5.780013
C    -1.965928  1.092067  6.292854
C    -1.540919  2.518700  5.938208
N    -0.219766  2.850303  6.493169
H    -0.491954  0.924069  3.883334
H    0.134196  -0.689647  4.094439
H    -0.060051  0.083087  6.288198
H    -1.431796  -0.989905  6.109823
H    -2.010150  1.011443  7.389694
H    -2.989371  0.929005  5.927179
H    -2.267846  3.213704  6.383567
H    -1.607661  2.666131  4.842287
H    0.516979  2.351495  5.992831
H    -0.022448  3.842812  6.366495
N    -3.417597  1.238449  2.868601
C    -2.511687  2.014549  2.040474
H    -4.370522  1.580563  2.960453
H    -2.532071  3.067727  2.352613
H    -2.796155  1.961773  0.977885
H    -1.483074  1.651815  2.124849
