33
Energy: -18209.1962689 eV PBE+vdW (tier 2 basis)
C    -0.358970  -1.134289  -0.040426
C    0.025525  -0.020866  0.921337
O    1.201614  0.293191  1.097874
H    -1.129820  -0.824525  -0.759615
H    -0.738200  -2.013158  0.498867
H    0.542883  -1.421773  -0.587087
N    -0.978231  0.615151  1.600833
C    -2.409010  0.388113  1.555925
C    -3.091449  1.767833  1.489800
O    -2.608414  2.734794  2.075121
H    -0.683599  1.406898  2.171248
H    -2.638569  -0.195320  0.654890
C    -2.975478  -0.364083  2.788746
C    -2.507163  -1.818592  2.952785
C    -1.152846  -1.997354  3.648506
C    -0.665989  -3.444484  3.635540
N    0.590561  -3.571442  4.380724
H    -4.073905  -0.346507  2.707456
H    -2.730908  0.222296  3.688194
H    -2.492588  -2.308718  1.964087
H    -3.269419  -2.361654  3.533987
H    -1.225898  -1.657899  4.693420
H    -0.388803  -1.361875  3.178082
H    -0.599387  -3.788240  2.581307
H    -1.412922  -4.090581  4.124886
H    0.916265  -4.537815  4.378301
H    1.322758  -3.016446  3.934351
N    -4.269444  1.853967  0.806568
C    -4.919836  0.824716  0.011771
H    -4.685242  2.779794  0.829069
H    -4.305795  0.507168  -0.844364
H    -5.854235  1.235263  -0.384563
H    -5.176120  -0.062072  0.609194
