33
Energy: -18209.1036024 eV PBE+vdW (tier 2 basis)
C    -0.980803  0.141653  -0.182963
C    -0.789474  -0.431321  1.205845
O    -0.046403  -1.388921  1.417949
H    -1.024357  1.236274  -0.204940
H    -1.923978  -0.226287  -0.611830
H    -0.155771  -0.213410  -0.806273
N    -1.505076  0.115910  2.246798
C    -2.385378  1.288563  2.295087
C    -3.491849  1.244285  1.213372
O    -3.640614  2.146537  0.393385
H    -1.294161  -0.340663  3.128999
H    -2.908787  1.199302  3.262953
C    -1.659240  2.638762  2.294986
C    -0.614948  2.757489  3.408314
C    0.115685  4.110220  3.452779
C    -0.597091  5.234388  4.210192
N    -1.894282  5.585866  3.614432
H    -2.412214  3.428975  2.403213
H    -1.184014  2.801038  1.316302
H    0.132865  1.959327  3.284725
H    -1.094701  2.578682  4.387144
H    0.335149  4.443665  2.423241
H    1.097144  3.973639  3.932427
H    0.100141  6.092368  4.288926
H    -0.792303  4.897914  5.241200
H    -1.760507  5.980778  2.681783
H    -2.356395  6.307125  4.168135
N    -4.316544  0.152300  1.217338
C    -4.329585  -0.989671  2.116595
H    -5.006896  0.179282  0.473744
H    -5.310130  -1.474224  2.046757
H    -4.193058  -0.677826  3.160808
H    -3.553765  -1.729948  1.873979
