33
Energy: -18209.0975596 eV PBE+vdW (tier 2 basis)
C    0.404161  1.231526  0.311597
C    -0.000161  1.245037  1.776533
O    0.385376  2.110460  2.555247
H    0.230042  2.227968  -0.110896
H    -0.126939  0.485513  -0.293013
H    1.482050  1.033348  0.248808
N    -0.839660  0.230736  2.158131
C    -1.239472  -0.034454  3.541651
C    -1.604912  1.256687  4.323420
O    -1.101260  1.507354  5.412098
H    -1.063980  -0.479762  1.471915
H    -2.172155  -0.622641  3.471828
C    -0.194890  -0.869952  4.298131
C    -0.747850  -1.602052  5.522977
C    0.296068  -2.501318  6.192791
C    -0.245023  -3.309406  7.373245
N    -0.576255  -2.445079  8.513326
H    0.630523  -0.206972  4.592512
H    0.213232  -1.606652  3.587120
H    -1.614089  -2.219459  5.221370
H    -1.118361  -0.852395  6.236221
H    1.140280  -1.887640  6.544328
H    0.699852  -3.206005  5.446576
H    0.533234  -4.010122  7.710833
H    -1.095624  -3.930235  7.019769
H    -0.890386  -3.003560  9.306510
H    -1.345079  -1.815887  8.280668
N    -2.603817  2.044104  3.814591
C    -3.281196  1.968126  2.534808
H    -2.733714  2.889577  4.361496
H    -3.526691  0.930133  2.278881
H    -2.691172  2.397954  1.709675
H    -4.226864  2.518882  2.607521
