33
Energy: -18209.0492822 eV PBE+vdW (tier 2 basis)
C    -1.956018  -2.310314  2.051925
C    -1.468695  -0.976300  2.590481
O    -0.401370  -0.486669  2.237756
H    -2.464943  -2.127330  1.095125
H    -2.654858  -2.826080  2.723434
H    -1.091668  -2.953603  1.859377
N    -2.317080  -0.402453  3.515552
C    -2.300511  0.999387  3.910359
C    -2.839038  1.878639  2.748237
O    -2.988210  1.440877  1.613216
H    -3.223211  -0.850636  3.587443
H    -3.035004  1.079386  4.730453
C    -0.935489  1.481148  4.461469
C    -0.745181  1.261722  5.968272
C    -0.684423  -0.194535  6.454579
C    0.458244  -1.028868  5.867197
N    1.773796  -0.446682  6.186054
H    -0.832472  2.554302  4.251490
H    -0.151831  0.992413  3.871506
H    -1.554969  1.777672  6.512990
H    0.179630  1.774738  6.277177
H    -1.633215  -0.707775  6.231980
H    -0.577234  -0.183224  7.550243
H    0.299462  -1.174607  4.784047
H    0.422175  -2.027804  6.326102
H    2.508897  -1.122988  5.979857
H    1.961874  0.353056  5.579881
N    -3.183783  3.169331  3.057246
C    -3.155661  3.855065  4.336703
H    -3.499003  3.693803  2.247062
H    -3.941224  4.620241  4.348628
H    -2.191630  4.347830  4.539668
H    -3.361781  3.162890  5.162098
