33
Energy: -18209.162091 eV PBE+vdW (tier 2 basis)
C    0.190194  -0.684332  0.118051
C    0.108690  -0.478744  1.621129
O    1.063761  -0.674335  2.366440
H    -0.768685  -0.564309  -0.401930
H    0.583629  -1.688556  -0.079820
H    0.908667  0.034757  -0.295696
N    -1.108512  -0.066874  2.093844
C    -1.344104  0.258920  3.494703
C    -1.039570  -0.867129  4.508506
O    -0.529264  -0.569674  5.585777
H    -1.861376  0.092978  1.434818
H    -0.642917  1.050264  3.799579
C    -2.786879  0.773869  3.650688
C    -3.131839  1.278449  5.052192
C    -4.562939  1.813294  5.149853
C    -4.918249  2.364402  6.532176
N    -4.915368  1.306387  7.551953
H    -3.495075  -0.022561  3.364771
H    -2.927017  1.593023  2.924361
H    -2.418255  2.067758  5.340498
H    -2.985721  0.461080  5.772838
H    -5.276692  1.011576  4.899908
H    -4.707408  2.616244  4.407683
H    -5.935199  2.781738  6.495684
H    -4.238609  3.209754  6.765821
H    -3.962211  1.005939  7.758636
H    -5.297766  1.659090  8.428838
N    -1.425295  -2.154528  4.252055
C    -1.991134  -2.760478  3.059520
H    -1.134416  -2.782978  4.994654
H    -2.412333  -3.733475  3.339047
H    -1.243924  -2.923500  2.267613
H    -2.809570  -2.158356  2.648549
