33
Energy: -18209.1022869 eV PBE+vdW (tier 2 basis)
C    0.240937  -0.035081  0.183167
C    0.201525  -0.499002  1.621158
O    1.163523  -1.075335  2.136360
H    1.289614  0.019222  -0.118836
H    -0.284197  -0.768684  -0.443898
H    -0.230729  0.939655  0.020077
N    -0.945656  -0.335217  2.360926
C    -2.158974  0.458811  2.176415
C    -2.695993  0.381455  0.726588
O    -2.919083  -0.704637  0.201218
H    -0.844782  -0.761326  3.278400
H    -2.941658  -0.092961  2.723698
C    -2.063799  1.844756  2.856287
C    -1.023914  2.856235  2.316152
C    -0.045726  3.374416  3.380086
C    1.037706  2.347925  3.743145
N    1.878750  2.041101  2.581723
H    -1.842490  1.640309  3.915734
H    -3.070584  2.291626  2.864313
H    -1.542255  3.716814  1.863940
H    -0.409513  2.409506  1.522070
H    -0.591833  3.673953  4.289888
H    0.449690  4.283749  3.003793
H    0.565894  1.409825  4.070336
H    1.607305  2.720454  4.614366
H    2.669845  2.678768  2.515224
H    2.239717  1.088885  2.622932
N    -2.961875  1.573875  0.121157
C    -3.490105  1.655630  -1.227147
H    -2.667233  2.426582  0.580489
H    -3.824729  0.653579  -1.514524
H    -2.722714  1.987316  -1.942401
H    -4.339474  2.349795  -1.270036
