33
Energy: -18209.4310884 eV PBE+vdW (tier 2 basis)
C    -1.274966  -1.250351  -0.467689
C    -1.150265  -0.924909  1.008419
O    -0.408244  -1.547717  1.762984
H    -1.108322  -0.368174  -1.100704
H    -2.277237  -1.637994  -0.701518
H    -0.536164  -2.018749  -0.708539
N    -1.904207  0.129436  1.477772
C    -2.915305  0.898812  0.764878
C    -2.382502  2.159843  0.046853
O    -3.118574  2.805249  -0.696807
H    -1.845876  0.244169  2.487136
H    -3.330729  0.278077  -0.041537
C    -4.064678  1.292585  1.709613
C    -4.830535  0.113115  2.318396
C    -5.480108  -0.821012  1.293520
C    -6.440129  -1.836820  1.920288
N    -7.594110  -1.165587  2.534184
H    -4.745444  1.931944  1.130940
H    -3.655616  1.927101  2.514249
H    -5.618159  0.512358  2.972972
H    -4.166710  -0.479935  2.969562
H    -4.711282  -1.379684  0.735723
H    -6.028230  -0.225151  0.542234
H    -5.914717  -2.386397  2.717113
H    -6.717547  -2.585383  1.153140
H    -8.210119  -0.787678  1.812976
H    -8.151028  -1.826825  3.074222
N    -1.085998  2.476075  0.305514
C    -0.424261  3.623171  -0.282354
H    -0.572937  1.849445  0.916627
H    -0.064286  4.314087  0.492551
H    -1.156842  4.141843  -0.910382
H    0.427453  3.316243  -0.905540
