33
Energy: -18209.2145862 eV PBE+vdW (tier 2 basis)
C    -0.248593  -1.774138  1.586355
C    -0.499806  -0.435305  2.252228
O    0.371028  0.108316  2.926112
H    -0.968249  -2.059063  0.814692
H    -0.254931  -2.547327  2.367159
H    0.758198  -1.750782  1.156154
N    -1.756851  0.141964  2.174381
C    -2.873574  -0.086048  1.248899
C    -3.380918  -1.550143  1.235675
O    -3.831736  -2.071167  0.219047
H    -1.759157  1.043616  2.646071
H    -3.715178  0.463154  1.704941
C    -2.706883  0.511682  -0.160439
C    -1.517241  0.035358  -0.996689
C    -1.425707  0.725053  -2.364759
C    -2.545364  0.351706  -3.337126
N    -2.350402  1.028801  -4.626067
H    -2.645130  1.606240  -0.044982
H    -3.645801  0.303034  -0.691376
H    -1.581062  -1.053485  -1.144662
H    -0.581288  0.230832  -0.452009
H    -0.460273  0.458226  -2.826461
H    -1.411199  1.820056  -2.243192
H    -3.516286  0.683322  -2.939882
H    -2.600147  -0.753175  -3.410657
H    -1.502397  0.685938  -5.080537
H    -3.121066  0.818913  -5.260365
N    -3.362957  -2.157610  2.454654
C    -3.792017  -3.527067  2.654210
H    -2.904794  -1.661443  3.211454
H    -4.481357  -3.599013  3.505617
H    -2.937984  -4.198071  2.832112
H    -4.308592  -3.851305  1.744711
