33
Energy: -18209.5321992 eV PBE+vdW (tier 2 basis)
C    0.791937  -2.448689  1.373918
C    -0.399455  -1.554774  1.662363
O    -1.529589  -1.799392  1.233459
H    0.653922  -2.926555  0.399110
H    0.825020  -3.229747  2.147038
H    1.747732  -1.909578  1.390174
N    -0.126413  -0.483174  2.458160
C    -1.134954  0.401102  3.001803
C    -0.375059  1.517808  3.739603
O    0.822647  1.419426  4.010284
H    0.810456  -0.317868  2.822424
H    -1.711296  0.845907  2.172664
C    -2.133004  -0.338027  3.929117
C    -1.478147  -1.062233  5.110619
C    -2.301768  -2.253835  5.616633
C    -2.340379  -3.442089  4.646605
N    -0.994568  -3.986649  4.409164
H    -2.658940  -1.051372  3.281668
H    -2.893220  0.375678  4.285230
H    -1.298602  -0.355606  5.934959
H    -0.493095  -1.442688  4.806069
H    -3.338493  -1.943519  5.828506
H    -1.887887  -2.596569  6.579956
H    -2.730507  -3.119500  3.670252
H    -3.056645  -4.190311  5.037523
H    -0.657524  -4.480628  5.236899
H    -1.022284  -4.669809  3.652848
N    -1.132435  2.594724  4.081892
C    -0.613899  3.717865  4.839293
H    -2.109013  2.596438  3.812612
H    0.452447  3.537207  5.008941
H    -1.118321  3.812242  5.811425
H    -0.732663  4.658214  4.283792
