33
Energy: -18209.1590291 eV PBE+vdW (tier 2 basis)
C    2.649723  -0.038120  1.016204
C    1.538205  0.809616  0.425648
O    1.750167  1.904527  -0.087006
H    3.568636  0.553428  1.003966
H    2.802982  -0.946509  0.416387
H    2.433236  -0.348000  2.048350
N    0.258371  0.310920  0.510510
C    -0.140436  -1.022673  0.917257
C    0.253377  -2.087121  -0.142525
O    0.486358  -1.784566  -1.310134
H    -0.413563  0.861371  -0.016082
H    0.397752  -1.256165  1.848400
C    -1.662406  -1.067934  1.235958
C    -2.595668  -1.453524  0.081013
C    -2.613768  -0.496395  -1.117513
C    -3.304913  -1.089230  -2.348117
N    -2.604869  -2.303917  -2.788570
H    -1.929270  -0.080214  1.643350
H    -1.821220  -1.779361  2.058490
H    -3.616937  -1.541654  0.485392
H    -2.335137  -2.457221  -0.286926
H    -1.584476  -0.244638  -1.417773
H    -3.107021  0.450170  -0.844571
H    -3.365957  -0.302450  -3.124691
H    -4.342215  -1.368129  -2.098495
H    -1.620738  -2.095129  -2.971006
H    -3.004651  -2.655944  -3.657455
N    0.347298  -3.383956  0.280939
C    -0.007902  -3.948871  1.571141
H    0.517652  -4.031818  -0.483075
H    0.490060  -4.918960  1.680496
H    -1.092459  -4.103991  1.685358
H    0.340659  -3.309336  2.391312
