33
Energy: -18209.3814085 eV PBE+vdW (tier 2 basis)
C    -1.334991  -0.340772  -1.199322
C    -0.825263  -0.072999  0.209907
O    0.351108  0.214650  0.419982
H    -2.054759  0.429252  -1.513737
H    -1.828428  -1.319409  -1.285644
H    -0.476356  -0.314917  -1.875263
N    -1.720544  -0.188834  1.244405
C    -3.156390  -0.271487  1.118440
C    -3.810235  1.132754  0.983399
O    -3.251579  2.176783  1.315474
H    -1.378771  0.204201  2.139070
H    -3.387036  -0.799491  0.181128
C    -3.777937  -1.132443  2.255845
C    -3.291642  -0.874837  3.688501
C    -3.620613  0.504445  4.304166
C    -2.379522  1.260764  4.791243
N    -1.436641  1.483669  3.689152
H    -3.554226  -2.181021  2.008464
H    -4.874664  -1.031522  2.212673
H    -2.203664  -1.032308  3.720693
H    -3.721940  -1.668207  4.316767
H    -4.306908  0.385445  5.155286
H    -4.154478  1.139235  3.581898
H    -1.865741  0.655632  5.555199
H    -2.701961  2.194086  5.291018
H    -1.825129  2.140309  3.006410
H    -0.550169  1.858717  4.022055
N    -5.064612  1.108788  0.444680
C    -5.874041  2.299972  0.268907
H    -5.454617  0.214027  0.173283
H    -6.171982  2.424557  -0.781072
H    -5.263890  3.158132  0.569333
H    -6.777955  2.268218  0.894050
