33
Energy: -18209.5323213 eV PBE+vdW (tier 2 basis)
C    -1.596553  -0.500512  -0.589955
C    -1.331946  -0.995968  0.816299
O    -1.030161  -2.172702  1.047586
H    -0.707493  -0.693695  -1.202984
H    -1.841611  0.567221  -0.643320
H    -2.422657  -1.080202  -1.020157
N    -1.435018  -0.064738  1.806373
C    -1.194214  -0.385498  3.215278
C    -2.495239  -0.986785  3.817530
O    -3.301245  -0.312164  4.455873
H    -1.779200  0.861881  1.581249
H    -0.416719  -1.164430  3.212991
C    -0.710243  0.847026  3.981953
C    0.154752  0.531405  5.211040
C    -0.523888  -0.273549  6.323271
C    0.346249  -0.441434  7.581359
N    0.659335  0.766826  8.351556
H    -1.590913  1.435689  4.282572
H    -0.115331  1.463497  3.290833
H    0.499714  1.494266  5.622176
H    1.065108  -0.000658  4.883633
H    -0.786802  -1.279641  5.956114
H    -1.478716  0.202830  6.598624
H    1.303419  -0.914677  7.307508
H    -0.153504  -1.145187  8.264081
H    -0.199320  1.248462  8.622953
H    1.199275  1.428412  7.793581
N    -2.643467  -2.309391  3.538634
C    -3.847836  -3.041504  3.880110
H    -2.004821  -2.693943  2.839382
H    -3.592401  -4.054137  4.216358
H    -4.538822  -3.117117  3.026152
H    -4.356732  -2.507585  4.689348
