33
Energy: -18209.3759668 eV PBE+vdW (tier 2 basis)
C    0.310218  -0.717023  0.251132
C    0.157493  -0.118694  1.635007
O    1.116071  0.205947  2.329303
H    -0.241108  -0.145270  -0.507730
H    -0.075053  -1.746382  0.222725
H    1.373596  -0.727703  -0.000166
N    -1.132000  0.061435  2.095376
C    -2.376096  -0.358267  1.458481
C    -2.800508  0.537857  0.272213
O    -3.522772  0.099440  -0.621044
H    -1.173532  0.363353  3.065814
H    -2.264385  -1.366089  1.030040
C    -3.485041  -0.402091  2.529728
C    -4.809086  -1.016665  2.073349
C    -5.864354  -1.012862  3.181440
C    -7.189875  -1.633518  2.743860
N    -8.157176  -1.630273  3.849275
H    -3.657736  0.623622  2.898640
H    -3.091046  -0.980812  3.381478
H    -4.628984  -2.050941  1.737047
H    -5.185655  -0.479289  1.191350
H    -6.045087  0.026004  3.510112
H    -5.499762  -1.554927  4.068435
H    -7.019614  -2.682835  2.456185
H    -7.547547  -1.113609  1.832372
H    -8.425233  -0.672657  4.081991
H    -9.015118  -2.108670  3.574645
N    -2.350144  1.820389  0.331223
C    -2.659212  2.810319  -0.680815
H    -1.692334  2.042588  1.071243
H    -3.154603  3.686155  -0.239606
H    -3.336134  2.343945  -1.404786
H    -1.752123  3.144025  -1.204446
