33
Energy: -18209.4583332 eV PBE+vdW (tier 2 basis)
C    0.059153  -0.291475  0.037167
C    0.061876  -0.049211  1.532795
O    1.120436  0.053693  2.167097
H    -0.905847  -0.084570  -0.441762
H    0.316118  -1.344903  -0.142963
H    0.836798  0.324379  -0.426801
N    -1.165925  0.015281  2.115245
C    -1.473257  0.055216  3.555091
C    -1.174271  1.414531  4.240373
O    -2.042693  1.954098  4.927435
H    -1.964907  -0.031873  1.495863
H    -2.566470  -0.021132  3.614741
C    -0.867001  -1.102977  4.374702
C    -1.427072  -2.503464  4.087256
C    -0.998371  -3.157072  2.768153
C    -1.330076  -4.658901  2.682766
N    -0.631331  -5.559679  3.602732
H    -1.068664  -0.855757  5.427843
H    0.225721  -1.103256  4.257870
H    -2.529000  -2.482303  4.147117
H    -1.097075  -3.149739  4.917597
H    0.087660  -3.020830  2.625401
H    -1.483416  -2.654757  1.916620
H    -1.122110  -5.008104  1.659667
H    -2.411680  -4.804470  2.836648
H    -0.860395  -5.347951  4.573728
H    0.380132  -5.454354  3.510831
N    0.080672  1.893761  4.060097
C    0.534161  3.131512  4.661450
H    0.717324  1.334200  3.481594
H    0.879234  3.839244  3.894532
H    1.358722  2.951221  5.366309
H    -0.306679  3.574110  5.205989
