33
Energy: -18209.4622019 eV PBE+vdW (tier 2 basis)
C    -1.095384  -0.833609  0.004233
C    -0.635259  -0.699543  1.440595
O    0.560957  -0.788060  1.751183
H    -2.184283  -0.784828  -0.117412
H    -0.729426  -1.785608  -0.398948
H    -0.636267  -0.030601  -0.586376
N    -1.613056  -0.485298  2.359027
C    -1.390827  -0.194700  3.774980
C    -1.063574  -1.446816  4.646567
O    -1.588078  -1.647212  5.743355
H    -2.575582  -0.483001  2.042403
H    -0.473864  0.417826  3.817983
C    -2.547683  0.646760  4.338381
C    -4.003001  0.227982  4.044109
C    -4.508898  -1.074529  4.683893
C    -4.223088  -2.348019  3.884522
N    -4.526412  -3.527310  4.701309
H    -2.411660  1.672323  3.963447
H    -2.407986  0.682869  5.427262
H    -4.199506  0.214363  2.954671
H    -4.626970  1.056862  4.410218
H    -5.595767  -1.011450  4.840241
H    -4.051881  -1.178596  5.678398
H    -3.181250  -2.339549  3.511379
H    -4.872712  -2.374066  2.993657
H    -4.384796  -4.383416  4.164906
H    -3.872910  -3.563181  5.486575
N    -0.112971  -2.251731  4.114877
C    0.374567  -3.418729  4.825353
H    0.379959  -1.911746  3.282065
H    0.996370  -4.011880  4.146482
H    -0.467145  -4.032359  5.170346
H    0.970695  -3.143930  5.709017
