33
Energy: -18209.139506 eV PBE+vdW (tier 2 basis)
C    1.051024  -0.611356  0.923781
C    0.362543  -0.775671  2.264818
O    0.997612  -0.941867  3.302387
H    0.553089  0.110172  0.263479
H    1.085106  -1.576657  0.399937
H    2.079243  -0.290530  1.112668
N    -1.018296  -0.754264  2.295801
C    -1.935059  -0.334865  1.231918
C    -3.341820  -0.084410  1.792892
O    -4.068093  0.794507  1.328846
H    -1.361020  -0.682995  3.251000
H    -1.615952  0.629461  0.806125
C    -2.084056  -1.377279  0.090707
C    -2.564108  -0.759218  -1.235619
C    -3.399045  -1.727921  -2.095347
C    -4.914022  -1.600658  -1.890665
N    -5.322045  -1.748844  -0.481208
H    -2.790255  -2.155122  0.414576
H    -1.121385  -1.882017  -0.061136
H    -1.685357  -0.414175  -1.800709
H    -3.156926  0.146014  -1.030622
H    -3.087377  -2.764778  -1.891622
H    -3.197285  -1.547681  -3.162228
H    -5.411761  -2.392251  -2.469672
H    -5.244897  -0.637710  -2.327296
H    -5.193588  -0.862556  0.013143
H    -6.321486  -1.945853  -0.436341
N    -3.743005  -0.939661  2.778689
C    -5.114732  -0.962562  3.256247
H    -3.171130  -1.760939  2.948884
H    -5.138197  -1.279808  4.305135
H    -5.739827  -1.643795  2.658127
H    -5.525946  0.048363  3.173148
