33
Energy: -18209.1413184 eV PBE+vdW (tier 2 basis)
C    -0.077841  1.336352  1.436254
C    -0.363796  0.203455  2.404164
O    0.463458  -0.158055  3.236586
H    1.003795  1.494521  1.419771
H    -0.556765  2.261078  1.788622
H    -0.430700  1.134338  0.417302
N    -1.603677  -0.391161  2.358979
C    -2.693848  -0.201741  1.412551
C    -2.262860  -0.615332  -0.026118
O    -1.494867  -1.553676  -0.203878
H    -1.663578  -1.190891  2.980046
H    -3.429932  -0.975813  1.679730
C    -3.406983  1.164221  1.547555
C    -3.735133  1.571516  2.989882
C    -4.702742  0.630506  3.713255
C    -5.034217  1.068562  5.142051
N    -5.750981  2.352344  5.167602
H    -4.351964  1.117778  0.980143
H    -2.797627  1.956343  1.087194
H    -4.170571  2.582013  2.953814
H    -2.800023  1.649652  3.566532
H    -4.273431  -0.382947  3.766184
H    -5.642186  0.554933  3.141561
H    -4.101979  1.069181  5.741848
H    -5.695360  0.315535  5.594262
H    -6.163996  2.507211  6.086664
H    -5.108906  3.129872  5.013206
N    -2.826475  0.093586  -1.047718
C    -2.577226  -0.219455  -2.442793
H    -3.423609  0.879010  -0.823519
H    -3.512642  -0.452888  -2.969847
H    -1.921149  -1.095601  -2.471377
H    -2.079069  0.615146  -2.955915
