33
Energy: -18209.5957592 eV PBE+vdW (tier 2 basis)
C    -1.649990  2.630346  2.801167
C    -1.009067  1.583777  3.698063
O    -0.287082  1.888037  4.644076
H    -0.860767  3.238802  2.341539
H    -2.254551  3.301842  3.423661
H    -2.280025  2.200826  2.012587
N    -1.277193  0.281668  3.350796
C    -0.922834  -0.822830  4.237480
C    0.495449  -1.393557  4.029658
O    0.927195  -2.267034  4.780106
H    -2.058635  0.120522  2.697933
H    -0.921930  -0.442412  5.271931
C    -1.944742  -1.959976  4.088639
C    -3.388312  -1.536093  4.420484
C    -4.452004  -2.059457  3.442818
C    -4.214033  -1.723019  1.965700
N    -3.880202  -0.297703  1.763948
H    -1.614585  -2.785887  4.729381
H    -1.878324  -2.335991  3.055157
H    -3.449062  -0.438378  4.449841
H    -3.648927  -1.870696  5.434544
H    -5.434381  -1.661512  3.747306
H    -4.536287  -3.154968  3.521554
H    -5.100793  -2.042048  1.389096
H    -3.367412  -2.307961  1.576637
H    -3.831430  -0.091884  0.765189
H    -4.626829  0.292980  2.137049
N    1.179425  -0.889513  2.969671
C    2.547756  -1.258435  2.674746
H    0.738346  -0.124051  2.471525
H    2.813059  -2.095715  3.329638
H    3.239962  -0.425914  2.868673
H    2.655207  -1.572768  1.627409
