33
Energy: -18209.2776958 eV PBE+vdW (tier 2 basis)
C    -0.967171  0.405680  0.428477
C    -0.848719  -0.147578  1.836510
O    -0.073660  0.349250  2.657336
H    -1.472977  1.379107  0.482179
H    -1.526142  -0.241680  -0.258356
H    0.038369  0.576415  0.028248
N    -1.658356  -1.210875  2.110466
C    -1.912147  -1.789802  3.441015
C    -2.273221  -0.664192  4.455060
O    -3.374111  -0.121858  4.324734
H    -2.319643  -1.463961  1.387045
H    -2.894673  -2.270619  3.333649
C    -0.943671  -2.937324  3.806311
C    0.577236  -2.676293  3.774764
C    1.264284  -2.622563  5.159032
C    2.263713  -1.474748  5.300747
N    1.559824  -0.184067  5.226620
H    -1.179435  -3.747023  3.099143
H    -1.244211  -3.315756  4.795848
H    0.762661  -1.743057  3.229101
H    1.057745  -3.461199  3.175183
H    1.773862  -3.576327  5.362841
H    0.507233  -2.505780  5.949684
H    3.066992  -1.577703  4.545223
H    2.748105  -1.538092  6.286003
H    1.319129  0.067401  4.263427
H    2.135188  0.570786  5.596023
N    -1.427628  -0.380520  5.472211
C    -1.768134  0.689042  6.395995
H    -0.416452  -0.543440  5.376859
H    -2.713758  0.468800  6.906276
H    -1.883301  1.655086  5.880768
H    -0.964360  0.767784  7.136171
