33
Energy: -18209.2310321 eV PBE+vdW (tier 2 basis)
C    0.313766  0.011486  -0.001354
C    -0.122930  -0.154515  1.445455
O    0.160548  -1.154686  2.097363
H    1.408024  0.099454  -0.026278
H    -0.118356  0.886742  -0.502849
H    0.044828  -0.894071  -0.557168
N    -0.811470  0.915399  1.963432
C    -1.446358  0.920433  3.288021
C    -2.251194  2.210279  3.495961
O    -3.275842  2.217490  4.169362
H    -1.188787  1.572283  1.288954
H    -2.187858  0.108059  3.337592
C    -0.477465  0.706570  4.479775
C    0.592991  1.769070  4.758111
C    1.719675  1.884862  3.723190
C    2.918682  2.698475  4.220403
N    3.573718  2.034972  5.355014
H    -0.003506  -0.273090  4.338872
H    -1.127625  0.620881  5.362880
H    1.059775  1.515343  5.721086
H    0.127641  2.757980  4.910596
H    1.358741  2.340717  2.787763
H    2.061754  0.874461  3.440708
H    2.570955  3.683677  4.571572
H    3.596880  2.891479  3.365884
H    4.296395  2.630921  5.756812
H    4.037397  1.179383  5.046271
N    -1.744667  3.336699  2.897552
C    -2.327461  4.645675  3.137668
H    -0.789611  3.295748  2.557129
H    -2.154416  5.295329  2.271714
H    -1.911158  5.125753  4.036985
H    -3.404183  4.519648  3.289747
