33
Energy: -18209.5721815 eV PBE+vdW (tier 2 basis)
C    -0.621213  2.250383  0.580607
C    -0.200145  0.918586  1.175853
O    0.972824  0.681659  1.477375
H    0.221803  2.941975  0.657913
H    -1.496967  2.675520  1.089509
H    -0.882982  2.136731  -0.481752
N    -1.178555  -0.017790  1.387247
C    -2.538678  -0.004872  0.873618
C    -3.591826  0.555601  1.857465
O    -4.754647  0.732954  1.497124
H    -0.811458  -0.952830  1.663176
H    -2.605385  0.650643  -0.008775
C    -2.948661  -1.423386  0.437320
C    -2.154259  -1.970423  -0.772570
C    -1.185747  -3.141587  -0.526673
C    0.149829  -2.831438  0.159803
N    0.010978  -2.606623  1.611507
H    -4.018346  -1.377885  0.199942
H    -2.850127  -2.098778  1.301441
H    -1.594103  -1.147600  -1.246671
H    -2.877962  -2.304254  -1.529999
H    -0.942531  -3.581777  -1.506291
H    -1.705198  -3.941117  0.030416
H    0.581147  -1.913264  -0.267718
H    0.859602  -3.647312  -0.067994
H    -0.256287  -3.470320  2.085502
H    0.903281  -2.305300  2.006593
N    -3.126948  0.815707  3.107268
C    -3.962816  1.339839  4.166525
H    -2.139443  0.638665  3.265421
H    -3.593730  2.312286  4.522059
H    -4.008105  0.647206  5.018923
H    -4.971781  1.468785  3.759096
