33
Energy: -18209.0859314 eV PBE+vdW (tier 2 basis)
C    -0.747101  -1.099421  -0.989087
C    -0.300670  -1.336417  0.441352
O    0.732833  -1.946641  0.702146
H    -0.207103  -1.803960  -1.627282
H    -0.481768  -0.078846  -1.300089
H    -1.826424  -1.232393  -1.133675
N    -1.065148  -0.809013  1.455601
C    -2.351384  -0.130436  1.400004
C    -3.456155  -1.077605  0.842039
O    -3.448284  -2.273092  1.111219
H    -0.726904  -1.087604  2.370317
H    -2.648743  -0.008284  2.452471
C    -2.288284  1.283941  0.776727
C    -1.126747  2.177807  1.239130
C    -1.184116  2.702582  2.682944
C    -0.707621  1.741925  3.776216
N    -0.674412  2.433157  5.070756
H    -3.233274  1.804544  1.006906
H    -2.232844  1.199111  -0.319506
H    -1.110779  3.046555  0.564289
H    -0.174012  1.651448  1.073542
H    -2.201281  3.047763  2.928870
H    -0.545648  3.600124  2.739071
H    0.263860  1.305360  3.469954
H    -1.409010  0.901023  3.885574
H    -0.412443  1.787975  5.815980
H    0.036085  3.166795  5.061160
N    -4.433960  -0.485615  0.095604
C    -5.563041  -1.226704  -0.435768
H    -4.352996  0.499748  -0.119302
H    -6.513938  -0.789080  -0.102518
H    -5.488688  -2.253162  -0.061961
H    -5.547051  -1.247475  -1.534795
