33
Energy: -18208.8485455 eV PBE+vdW (tier 2 basis)
C    0.047885  -0.280416  0.563270
C    -0.088734  -0.145522  2.067311
O    0.873778  -0.373364  2.800673
H    -0.068606  0.689619  0.063994
H    -0.687199  -0.967675  0.128949
H    1.053461  -0.661447  0.366867
N    -1.273507  0.263964  2.643012
C    -2.660778  0.523062  2.221938
C    -3.617555  -0.475764  2.920783
O    -4.486935  -0.045762  3.680032
H    -1.151334  0.320130  3.652617
H    -2.945663  1.472570  2.700461
C    -2.902330  0.718815  0.717722
C    -4.291852  1.280551  0.358448
C    -5.495462  0.328915  0.429437
C    -5.385781  -0.916101  -0.448630
N    -6.646788  -1.668113  -0.416250
H    -2.719815  -0.203558  0.152353
H    -2.153436  1.444170  0.369516
H    -4.220126  1.669877  -0.669770
H    -4.497318  2.154515  0.995964
H    -6.391467  0.884025  0.113228
H    -5.683795  0.026844  1.470102
H    -4.510920  -1.520124  -0.136055
H    -5.201608  -0.615663  -1.493243
H    -6.575723  -2.518309  -0.975274
H    -6.853722  -1.963807  0.539335
N    -3.488019  -1.819630  2.705980
C    -2.490682  -2.561407  1.952003
H    -4.132324  -2.356598  3.278319
H    -2.412756  -2.200648  0.918738
H    -2.810038  -3.608067  1.904175
H    -1.494479  -2.524549  2.414812
