33
Energy: -18209.097995 eV PBE+vdW (tier 2 basis)
C    0.081279  -0.667543  2.396461
C    -1.158411  -0.138896  3.085249
O    -1.314571  -0.216322  4.302461
H    -0.119156  -1.153437  1.434650
H    0.571976  -1.366807  3.078828
H    0.769968  0.167520  2.203537
N    -2.124880  0.480901  2.320735
C    -2.228929  0.681791  0.869643
C    -2.296620  -0.679335  0.126910
O    -1.400603  -1.067219  -0.620972
H    -2.878208  0.848133  2.893817
H    -3.209500  1.165701  0.735471
C    -1.163075  1.618724  0.273726
C    -1.675079  2.509794  -0.867443
C    -2.140049  1.781907  -2.133623
C    -2.519582  2.746977  -3.265771
N    -2.979735  2.140289  -4.518314
H    -0.313690  1.016347  -0.076454
H    -0.801846  2.260781  1.089028
H    -0.865418  3.206557  -1.139217
H    -2.496128  3.144219  -0.488199
H    -3.010859  1.140110  -1.914961
H    -1.347834  1.099064  -2.479497
H    -1.653862  3.385986  -3.504106
H    -3.309891  3.432167  -2.917752
H    -3.804321  1.561756  -4.350108
H    -2.264783  1.512559  -4.889545
N    -3.408752  -1.442480  0.344834
C    -4.514837  -1.204644  1.256738
H    -3.359871  -2.348652  -0.110714
H    -4.245001  -1.393446  2.306512
H    -5.340556  -1.870676  0.982925
H    -4.887163  -0.174992  1.171840
