33
Energy: -18209.3803047 eV PBE+vdW (tier 2 basis)
C    -0.999891  2.500697  1.327665
C    -0.246205  1.227700  1.656364
O    0.876282  1.228114  2.152774
H    -0.403146  3.348783  1.672126
H    -1.988758  2.528755  1.805264
H    -1.161444  2.593239  0.244087
N    -0.888172  0.037090  1.379665
C    -2.168964  -0.153593  0.708034
C    -3.394064  0.145649  1.599507
O    -4.470004  0.470741  1.099540
H    -0.299858  -0.780364  1.522670
H    -2.256000  0.542670  -0.138386
C    -2.219686  -1.601848  0.172868
C    -3.475791  -2.000012  -0.609807
C    -3.689578  -1.218324  -1.909683
C    -4.928623  -1.659035  -2.691429
N    -4.816797  -3.048592  -3.164208
H    -2.096752  -2.283880  1.030906
H    -1.333749  -1.737166  -0.469098
H    -4.365287  -1.891526  0.029466
H    -3.377339  -3.072479  -0.839922
H    -2.805080  -1.328417  -2.558328
H    -3.804276  -0.148587  -1.678876
H    -5.026491  -1.019170  -3.580208
H    -5.826704  -1.473015  -2.069481
H    -4.971385  -3.704277  -2.397931
H    -5.543750  -3.245298  -3.851580
N    -3.189665  -0.017510  2.934437
C    -4.226035  0.203478  3.922846
H    -2.237638  -0.201876  3.233446
H    -3.976307  1.045735  4.583685
H    -4.383530  -0.693259  4.537796
H    -5.151953  0.436096  3.385764
