33
Energy: -18209.3424497 eV PBE+vdW (tier 2 basis)
C    1.426602  -2.092929  0.185117
C    1.212955  -1.663856  1.627052
O    1.993271  -1.969458  2.521659
H    0.820475  -1.536549  -0.540925
H    1.179910  -3.160009  0.099984
H    2.487300  -1.980377  -0.064030
N    0.089975  -0.894362  1.839391
C    -0.466939  -0.539561  3.151491
C    0.588406  0.032288  4.134180
O    0.517457  -0.178223  5.342781
H    -0.528605  -0.766849  1.046651
H    -1.133385  0.316104  2.949381
C    -1.328899  -1.630973  3.802043
C    -0.626312  -2.956546  4.116973
C    -1.399869  -3.834297  5.108593
C    -1.568423  -3.226698  6.518711
N    -0.359696  -2.768667  7.202107
H    -2.200626  -1.812803  3.151929
H    -1.722144  -1.186544  4.726613
H    0.373997  -2.752751  4.520580
H    -0.462166  -3.522380  3.187525
H    -0.871185  -4.797447  5.202269
H    -2.401283  -4.074974  4.708834
H    -2.066742  -3.974693  7.156145
H    -2.259707  -2.370716  6.478924
H    0.048392  -1.967396  6.714683
H    0.349039  -3.503281  7.218572
N    1.491434  0.883992  3.576988
C    2.604865  1.413528  4.342640
H    1.576079  0.860575  2.567253
H    2.921364  2.374418  3.920043
H    3.460995  0.721119  4.349252
H    2.276002  1.564025  5.375859
