33
Energy: -18208.7762302 eV PBE+vdW (tier 2 basis)
C    0.095402  0.039148  0.336831
C    -0.093898  -0.168951  1.826525
O    0.865579  -0.490554  2.530935
H    1.146122  -0.168662  0.117139
H    -0.135562  1.069033  0.039212
H    -0.531499  -0.630888  -0.264149
N    -1.316506  0.029092  2.427905
C    -2.709698  0.316102  2.045123
C    -3.647831  -0.867914  2.388491
O    -4.643335  -0.661252  3.081935
H    -1.217218  -0.126328  3.429508
H    -3.049757  1.085958  2.752478
C    -3.019280  0.865672  0.630511
C    -3.226425  2.388107  0.541242
C    -1.997581  3.309290  0.581153
C    -1.223725  3.403107  1.901880
N    -2.117456  3.667918  3.037224
H    -3.970149  0.404528  0.325406
H    -2.286115  0.529305  -0.110947
H    -3.924975  2.686185  1.336796
H    -3.747340  2.584500  -0.408843
H    -2.344373  4.322486  0.314741
H    -1.287815  3.031132  -0.215495
H    -0.429664  4.164315  1.772558
H    -0.709936  2.456823  2.113804
H    -1.589702  3.680463  3.909443
H    -2.552471  4.587738  2.948766
N    -3.375888  -2.122662  1.918362
C    -2.328770  -2.578695  1.020411
H    -4.066390  -2.802411  2.220492
H    -2.266577  -1.956354  0.117912
H    -2.577022  -3.594806  0.695085
H    -1.341436  -2.605835  1.501962
