33
Energy: -18209.2423947 eV PBE+vdW (tier 2 basis)
C    -0.445170  0.725641  1.309927
C    -0.327594  -0.289342  2.428070
O    0.594061  -0.244800  3.240470
H    -0.791312  0.282330  0.370920
H    0.545459  1.165418  1.162764
H    -1.131803  1.530437  1.610509
N    -1.305185  -1.254528  2.578150
C    -2.409083  -1.672217  1.728072
C    -1.967980  -2.322263  0.390050
O    -0.890324  -2.096762  -0.152756
H    -1.060066  -1.890609  3.330678
H    -2.888900  -2.487368  2.287702
C    -3.491181  -0.587365  1.513645
C    -4.407736  -0.386372  2.730353
C    -5.203916  -1.611022  3.209274
C    -6.308751  -2.140126  2.289232
N    -5.814142  -2.769114  1.037775
H    -4.078850  -0.852112  0.625079
H    -3.007414  0.365466  1.267393
H    -5.111121  0.432378  2.505691
H    -3.791853  -0.029177  3.570433
H    -5.684991  -1.342130  4.163132
H    -4.525261  -2.444555  3.451297
H    -7.030660  -1.329768  2.080375
H    -6.863268  -2.911365  2.841912
H    -6.472385  -3.489059  0.739072
H    -5.805985  -2.081697  0.283324
N    -2.911437  -3.175590  -0.102639
C    -2.758241  -3.847321  -1.377313
H    -3.803742  -3.254985  0.397125
H    -2.907883  -4.930547  -1.270507
H    -1.739686  -3.661924  -1.735220
H    -3.468573  -3.467333  -2.127818
