33
Energy: -18209.2389104 eV PBE+vdW (tier 2 basis)
C    -0.353426  0.062252  0.262896
C    0.036267  0.231286  1.723775
O    1.067823  0.812003  2.053947
H    -1.308458  0.560799  0.041715
H    -0.457321  -0.994576  -0.018361
H    0.430850  0.517201  -0.347442
N    -0.818285  -0.280351  2.663584
C    -2.067999  -0.984681  2.461027
C    -2.939301  -0.710761  3.700449
O    -2.432048  -0.420809  4.782929
H    -0.584443  -0.091684  3.638241
H    -2.572139  -0.581498  1.570142
C    -1.885328  -2.514277  2.255803
C    -1.225341  -3.245826  3.425050
C    -0.980884  -4.726295  3.125572
C    -0.316761  -5.468882  4.283654
N    -0.139352  -6.890432  3.958136
H    -1.278433  -2.651900  1.347282
H    -2.865079  -2.967610  2.036245
H    -1.850959  -3.150681  4.326726
H    -0.269779  -2.754683  3.666043
H    -0.345360  -4.817929  2.227015
H    -1.928377  -5.233466  2.882911
H    -0.967145  -5.410659  5.170397
H    0.624941  -4.949075  4.551844
H    0.542141  -6.997674  3.205002
H    0.239478  -7.395064  4.759574
N    -4.289239  -0.851596  3.561027
C    -5.056465  -1.046595  2.340804
H    -4.798003  -0.686096  4.423601
H    -6.120029  -0.968115  2.588402
H    -4.890605  -2.037051  1.893768
H    -4.833572  -0.279017  1.585562
