33
Energy: -18209.2996826 eV PBE+vdW (tier 2 basis)
C    -3.346057  -2.725486  -1.010318
C    -1.923623  -2.246958  -0.762847
O    -0.952824  -2.958905  -1.008879
H    -3.847221  -2.113422  -1.774312
H    -3.960164  -2.696583  -0.100810
H    -3.289242  -3.755673  -1.371062
N    -1.756490  -0.985795  -0.251015
C    -2.751986  0.032299  0.028893
C    -2.284550  1.344802  -0.627562
O    -1.099780  1.669962  -0.618957
H    -0.789388  -0.667438  -0.201456
H    -3.709471  -0.284959  -0.408822
C    -2.941940  0.279562  1.543752
C    -3.512537  -0.922530  2.300060
C    -3.666025  -0.703010  3.811312
C    -2.345770  -0.647525  4.581188
N    -2.599958  -0.524733  6.023399
H    -3.607420  1.148953  1.675655
H    -1.964060  0.572788  1.953593
H    -2.872025  -1.801652  2.124701
H    -4.500484  -1.171993  1.879171
H    -4.270583  -1.515208  4.241457
H    -4.233060  0.227431  3.992357
H    -1.704524  0.159422  4.176424
H    -1.799642  -1.590016  4.418979
H    -1.723126  -0.558903  6.543571
H    -3.020784  0.382232  6.232129
N    -3.276516  2.112335  -1.161133
C    -3.033264  3.418020  -1.747404
H    -4.223364  1.753700  -1.141157
H    -3.343699  3.443421  -2.800760
H    -1.956367  3.607338  -1.689678
H    -3.565405  4.207532  -1.198634
