33
Energy: -18209.4124277 eV PBE+vdW (tier 2 basis)
C    -0.352516  2.124033  2.059333
C    -0.352826  0.937940  3.004085
O    0.519992  0.765218  3.850345
H    -1.296206  2.684857  2.100673
H    -0.209267  1.798857  1.018827
H    0.474704  2.780368  2.340588
N    -1.398487  0.046518  2.885447
C    -2.475827  0.048838  1.904325
C    -3.694232  0.927668  2.279733
O    -4.590347  1.120099  1.460400
H    -1.306073  -0.764023  3.492465
H    -2.101375  0.477731  0.963798
C    -2.952312  -1.382981  1.597130
C    -3.598726  -2.119010  2.774851
C    -4.096246  -3.513876  2.389509
C    -4.770332  -4.252755  3.544029
N    -5.193666  -5.594530  3.125430
H    -2.094774  -1.956601  1.212429
H    -3.680459  -1.304046  0.778218
H    -4.441174  -1.521133  3.158789
H    -2.888131  -2.218636  3.614304
H    -3.262801  -4.129546  2.016704
H    -4.809673  -3.422174  1.552447
H    -5.594190  -3.624949  3.940877
H    -4.048333  -4.375555  4.366930
H    -5.586676  -6.108954  3.913506
H    -5.934474  -5.530190  2.425490
N    -3.687091  1.432462  3.541189
C    -4.753033  2.264523  4.061567
H    -2.886912  1.206932  4.122714
H    -4.375445  3.251048  4.364176
H    -5.240155  1.792418  4.926289
H    -5.491993  2.393708  3.263228
