33
Energy: -18209.1189645 eV PBE+vdW (tier 2 basis)
C    -1.114905  0.506144  -0.235193
C    -0.968062  -0.101389  1.151460
O    -0.265847  -1.090906  1.359394
H    -1.238969  1.597007  -0.215187
H    -1.999724  0.075851  -0.726856
H    -0.230978  0.250974  -0.826711
N    -1.705324  0.534954  2.113818
C    -1.969377  0.185602  3.515764
C    -1.283460  1.128431  4.537294
O    -1.974055  1.647123  5.416396
H    -2.219560  1.347927  1.793608
H    -3.027764  0.432331  3.678222
C    -1.779865  -1.282874  3.940921
C    -2.570038  -2.361605  3.182054
C    -4.090453  -2.172252  3.050755
C    -4.562037  -1.323722  1.851626
N    -4.169985  -1.787353  0.515762
H    -2.080460  -1.298917  5.000779
H    -0.717578  -1.553879  3.910449
H    -2.381858  -3.304735  3.716682
H    -2.116449  -2.506656  2.190917
H    -4.501516  -1.738259  3.978687
H    -4.556011  -3.166966  2.956211
H    -4.209420  -0.287791  1.954392
H    -5.660493  -1.265677  1.870478
H    -4.603897  -2.689905  0.315018
H    -3.162250  -1.948690  0.476806
N    0.059447  1.353000  4.476641
C    1.061040  0.861687  3.545142
H    0.366393  2.003540  5.194188
H    2.008231  0.723711  4.081258
H    1.232447  1.564018  2.713833
H    0.773500  -0.102807  3.114818
