33
Energy: -18209.1387101 eV PBE+vdW (tier 2 basis)
C    0.369409  -0.270660  2.162244
C    -0.582166  0.242952  3.222830
O    -0.167713  0.827554  4.222178
H    -0.049825  -0.323292  1.153758
H    0.700825  -1.280838  2.442670
H    1.247491  0.381801  2.163645
N    -1.933111  -0.008106  3.104572
C    -2.759776  -0.521763  2.009068
C    -2.148187  -1.732460  1.267146
O    -2.012817  -1.748989  0.043110
H    -2.443479  0.394697  3.886656
H    -3.653699  -0.937745  2.507988
C    -3.271045  0.557207  1.038888
C    -2.205297  1.406747  0.340774
C    -2.760371  2.253883  -0.810953
C    -3.333942  1.435793  -1.988683
N    -2.472771  0.409056  -2.575230
H    -3.950404  1.217081  1.602686
H    -3.891947  0.039908  0.294004
H    -1.423140  0.751188  -0.065355
H    -1.714207  2.063585  1.074037
H    -1.949846  2.898002  -1.189795
H    -3.544811  2.936749  -0.440205
H    -3.626418  2.136665  -2.786118
H    -4.266850  0.938911  -1.680496
H    -1.581574  0.808024  -2.872993
H    -2.261083  -0.323530  -1.894170
N    -1.812499  -2.819563  2.020574
C    -1.953224  -3.032132  3.451929
H    -1.420172  -3.573618  1.465279
H    -2.901227  -2.623476  3.823569
H    -1.135633  -2.579895  4.031658
H    -1.961408  -4.111369  3.642009
