33
Energy: -18209.4177604 eV PBE+vdW (tier 2 basis)
C    -0.226697  2.116271  1.270274
C    -0.810908  1.037911  2.162539
O    -1.559737  1.292790  3.100152
H    0.574332  1.760085  0.610114
H    0.153739  2.930710  1.896856
H    -1.034630  2.529092  0.651244
N    -0.444302  -0.251206  1.845932
C    -1.073451  -1.419123  2.450047
C    -0.261320  -2.070101  3.593526
O    -0.665068  -3.099364  4.130380
H    0.089351  -0.396770  0.995425
H    -1.988683  -1.053015  2.940980
C    -1.418105  -2.474375  1.390097
C    -2.472819  -2.062899  0.355100
C    -3.877519  -1.772705  0.925730
C    -4.213903  -0.276365  1.059862
N    -5.556984  0.044448  1.546018
H    -1.753145  -3.367707  1.933994
H    -0.486859  -2.766722  0.873169
H    -2.536368  -2.877524  -0.380533
H    -2.125170  -1.183994  -0.215286
H    -3.993454  -2.262417  1.907234
H    -4.637397  -2.230985  0.272832
H    -4.089781  0.200461  0.072833
H    -3.499835  0.223416  1.730289
H    -5.667962  -0.260407  2.513697
H    -6.265251  -0.451298  1.002170
N    0.883266  -1.426859  3.944200
C    1.704868  -1.847304  5.061138
H    1.077047  -0.548299  3.477511
H    1.328412  -2.817677  5.402396
H    1.646166  -1.132733  5.895001
H    2.755164  -1.954336  4.758079
