33
Energy: -18209.5615929 eV PBE+vdW (tier 2 basis)
C    0.132416  0.506404  -1.123825
C    -0.018446  0.031164  0.307457
O    0.298919  -1.113340  0.651265
H    -0.254097  1.518641  -1.293280
H    -0.388142  -0.195849  -1.786058
H    1.196523  0.482484  -1.391677
N    -0.514205  0.945620  1.182116
C    -0.748052  0.632296  2.578130
C    -1.954141  1.465356  3.025289
O    -2.203409  2.559503  2.515849
H    -0.845127  1.857751  0.877217
H    -0.980237  -0.441900  2.625432
C    0.499397  0.924136  3.454464
C    0.559876  0.162738  4.787549
C    0.597582  -1.373300  4.686996
C    1.935503  -1.997576  4.272682
N    2.401044  -1.530494  2.963868
H    0.549585  2.008337  3.638810
H    1.379953  0.649825  2.861026
H    -0.287912  0.460204  5.426896
H    1.459411  0.502380  5.325300
H    -0.184427  -1.735678  3.997752
H    0.336833  -1.795278  5.670267
H    1.819853  -3.099138  4.338774
H    2.698958  -1.722200  5.019872
H    3.247318  -2.026581  2.687738
H    1.700676  -1.695280  2.233970
N    -2.686395  0.922525  4.035876
C    -3.808456  1.602809  4.654941
H    -2.426415  0.001818  4.368543
H    -3.921655  2.571460  4.157412
H    -3.630649  1.768842  5.726634
H    -4.737493  1.029155  4.532505
