33
Energy: -18209.3336042 eV PBE+vdW (tier 2 basis)
C    -0.722650  -1.572798  -0.874512
C    0.249925  -0.736004  -0.074860
O    1.424341  -0.601376  -0.421116
H    -0.171502  -2.416706  -1.302280
H    -1.093448  -0.951265  -1.701364
H    -1.582746  -1.940183  -0.305234
N    -0.193279  -0.121834  1.079806
C    -1.573393  0.167330  1.494433
C    -2.334870  -1.091835  1.999007
O    -3.561758  -1.128729  2.037788
H    0.529593  0.473257  1.475196
H    -1.462496  0.771761  2.411758
C    -2.409641  0.995092  0.504450
C    -2.142154  2.506775  0.550692
C    -0.800035  3.045896  0.023263
C    -0.613183  3.042504  -1.498237
N    -0.407205  1.694082  -2.047396
H    -3.459564  0.814492  0.771518
H    -2.266579  0.620890  -0.516159
H    -2.263240  2.843824  1.594790
H    -2.947974  3.007260  -0.011206
H    0.051456  2.523240  0.489409
H    -0.710521  4.092812  0.353997
H    0.211719  3.739968  -1.744192
H    -1.519956  3.458061  -1.966609
H    -0.371180  1.733604  -3.066070
H    0.496226  1.321405  -1.745356
N    -1.532554  -2.089689  2.459260
C    -2.052036  -3.323823  3.011400
H    -0.533211  -1.969922  2.332469
H    -1.655821  -3.501867  4.020523
H    -1.800623  -4.185700  2.376187
H    -3.142057  -3.230952  3.066145
