33
Energy: -18209.5106082 eV PBE+vdW (tier 2 basis)
C    2.437092  -0.262930  0.752363
C    1.154585  0.076458  1.482654
O    1.052404  1.087867  2.186477
H    3.247667  -0.357976  1.485458
H    2.693425  0.571317  0.087585
H    2.377997  -1.184862  0.161155
N    0.119274  -0.792786  1.305331
C    -1.188067  -0.593222  1.935723
C    -1.122992  -1.151989  3.382705
O    -1.490770  -2.290545  3.669768
H    0.278666  -1.658266  0.802108
H    -1.327136  0.497005  1.987861
C    -2.305437  -1.224207  1.100740
C    -3.667682  -0.525193  1.243540
C    -4.367815  -0.620590  2.608044
C    -4.791417  -2.031527  3.028115
N    -5.743247  -2.618064  2.064844
H    -2.378133  -2.291106  1.363282
H    -2.005512  -1.166655  0.043337
H    -4.344474  -0.925246  0.472319
H    -3.538765  0.539446  0.989049
H    -5.268047  0.011774  2.567991
H    -3.725372  -0.199737  3.398236
H    -5.310755  -1.956680  3.994619
H    -3.895003  -2.651045  3.202068
H    -6.180263  -3.444650  2.472272
H    -5.249544  -2.950083  1.235282
N    -0.595062  -0.266307  4.268887
C    -0.305256  -0.628144  5.643117
H    -0.142694  0.555122  3.863177
H    -0.521251  0.216547  6.308940
H    0.746949  -0.923840  5.777398
H    -0.939363  -1.477887  5.916552
