33
Energy: -18208.8882407 eV PBE+vdW (tier 2 basis)
C    0.177168  0.865485  0.164097
C    0.115449  0.030021  1.427426
O    1.145491  -0.442017  1.910700
H    -0.092826  1.909675  0.366209
H    -0.489942  0.499789  -0.624651
H    1.209850  0.829909  -0.192716
N    -1.079745  -0.193996  2.077651
C    -2.513118  0.055085  1.848108
C    -3.277000  -1.288904  1.757522
O    -4.179538  -1.526311  2.561949
H    -0.904154  -0.745717  2.915543
H    -2.900088  0.467157  2.792672
C    -2.875497  1.077556  0.760032
C    -4.345688  1.532302  0.768593
C    -5.389706  0.572078  0.173621
C    -5.115898  0.101053  -1.256482
N    -4.903344  1.232167  -2.171046
H    -2.611967  0.725573  -0.245196
H    -2.256194  1.966771  0.942050
H    -4.382628  2.473857  0.203658
H    -4.644045  1.776121  1.800213
H    -6.364045  1.089473  0.192469
H    -5.516252  -0.311917  0.812838
H    -5.943163  -0.570164  -1.559080
H    -4.204677  -0.516341  -1.279792
H    -5.745673  1.808081  -2.220488
H    -4.728576  0.899099  -3.119004
N    -2.945258  -2.204181  0.798127
C    -1.880153  -2.188265  -0.191395
H    -3.484223  -3.059874  0.888903
H    -2.053084  -3.013716  -0.890582
H    -0.883733  -2.314640  0.254914
H    -1.885379  -1.261073  -0.777570
