33
Energy: -18209.5364717 eV PBE+vdW (tier 2 basis)
C    -1.145419  -1.596556  0.463892
C    -1.064908  -0.702270  1.683289
O    -0.017496  -0.570998  2.328113
H    -2.136202  -1.614072  -0.006364
H    -0.866649  -2.617460  0.752685
H    -0.407941  -1.252218  -0.271875
N    -2.211155  -0.048585  2.021011
C    -2.289665  0.885687  3.144298
C    -2.577043  0.114835  4.461556
O    -3.680643  0.111028  5.003133
H    -3.064798  -0.258480  1.515971
H    -1.285742  1.325575  3.231683
C    -3.330585  1.973521  2.888008
C    -3.098660  2.805238  1.619274
C    -1.769415  3.566844  1.587853
C    -1.566866  4.407476  0.325566
N    -2.543037  5.502598  0.233074
H    -3.338492  2.632464  3.768598
H    -4.329082  1.510739  2.867664
H    -3.933462  3.518789  1.541119
H    -3.163600  2.160908  0.725398
H    -0.930152  2.856413  1.655572
H    -1.703701  4.228424  2.466604
H    -1.569366  3.734433  -0.556968
H    -0.567373  4.864152  0.364735
H    -2.277947  6.152522  -0.506340
H    -3.465881  5.147817  -0.018248
N    -1.483985  -0.549253  4.926225
C    -1.536377  -1.428338  6.077341
H    -0.662777  -0.559160  4.317614
H    -0.698750  -1.224329  6.757216
H    -1.499163  -2.488073  5.782151
H    -2.479772  -1.244665  6.602277
