33
Energy: -18209.1344347 eV PBE+vdW (tier 2 basis)
C    -0.695379  -0.707100  -0.587405
C    -0.027604  -0.388665  0.733752
O    1.163522  -0.619575  0.934272
H    -1.377719  0.077469  -0.932827
H    -1.284791  -1.630929  -0.500028
H    0.093575  -0.868224  -1.326825
N    -0.792921  0.143180  1.749007
C    -2.196098  0.565558  1.779860
C    -3.151205  -0.541255  1.265394
O    -3.892617  -0.368219  0.300635
H    -0.238476  0.330712  2.579159
H    -2.424909  0.688938  2.852297
C    -2.459861  1.914528  1.095359
C    -3.751680  2.592906  1.558832
C    -4.002175  3.929667  0.858333
C    -5.289825  4.614010  1.312629
N    -5.460529  5.906218  0.635132
H    -2.494062  1.768010  0.006598
H    -1.598032  2.564413  1.309471
H    -3.705728  2.755674  2.650357
H    -4.601726  1.918611  1.375697
H    -4.049127  3.761006  -0.231474
H    -3.159232  4.618331  1.027181
H    -5.232632  4.813290  2.394676
H    -6.138581  3.915465  1.166592
H    -5.598546  5.763085  -0.366687
H    -6.297505  6.380338  0.974494
N    -3.141224  -1.727325  1.944285
C    -2.342767  -2.121032  3.093570
H    -3.766915  -2.417702  1.541310
H    -2.811229  -2.996573  3.556801
H    -2.314677  -1.326445  3.851184
H    -1.308315  -2.376811  2.822957
