33
Energy: -18208.9370444 eV PBE+vdW (tier 2 basis)
C    0.316997  0.842843  0.142442
C    0.203347  0.077049  1.450362
O    1.103669  -0.646655  1.853316
H    0.854069  1.780851  0.342081
H    -0.651963  1.087262  -0.311978
H    0.911925  0.254301  -0.562826
N    -0.996995  0.269841  2.105092
C    -1.271523  -0.006459  3.514697
C    -0.324390  0.841735  4.415048
O    0.571753  1.530129  3.938502
H    -1.569777  1.003774  1.705733
H    -2.269256  0.435420  3.681039
C    -1.468815  -1.509796  3.848920
C    -0.294166  -2.492039  3.781702
C    0.892882  -2.165267  4.689115
C    2.038505  -3.175137  4.586882
N    2.486022  -3.323680  3.196687
H    -2.249605  -1.857493  3.155072
H    -1.923090  -1.566013  4.848497
H    0.062967  -2.578324  2.750665
H    -0.693338  -3.484363  4.053330
H    0.570735  -2.107798  5.742721
H    1.292013  -1.175535  4.423446
H    1.697428  -4.162481  4.944592
H    2.839868  -2.849593  5.280046
H    3.394269  -3.783022  3.153769
H    2.580627  -2.407787  2.752902
N    -0.567587  0.870874  5.764159
C    -1.638575  0.289258  6.552322
H    0.104752  1.454097  6.252184
H    -2.593430  0.307815  6.011213
H    -1.768662  0.891127  7.459688
H    -1.431915  -0.748185  6.857683
