33
Energy: -18209.5720068 eV PBE+vdW (tier 2 basis)
C    0.538428  -1.328502  0.160199
C    0.063550  -0.773917  1.488247
O    0.254834  -1.379789  2.546560
H    0.303148  -0.684071  -0.695179
H    0.079420  -2.313092  0.007053
H    1.624058  -1.478302  0.209003
N    -0.563113  0.434386  1.425906
C    -1.230300  1.050530  2.557814
C    -2.613230  1.513156  2.071627
O    -2.808641  1.822997  0.895518
H    -0.843887  0.813028  0.523299
H    -1.337116  0.275650  3.329676
C    -0.442102  2.262311  3.114175
C    0.845304  1.910797  3.880309
C    0.673327  1.756367  5.401052
C    -0.219408  0.610440  5.888758
N    0.349180  -0.695284  5.570908
H    -1.108499  2.850726  3.765715
H    -0.211072  2.908771  2.254571
H    1.575628  2.716270  3.713122
H    1.305227  1.007018  3.453691
H    0.272319  2.701704  5.804633
H    1.667295  1.614602  5.851874
H    -1.258315  0.765646  5.511594
H    -0.297330  0.687777  6.984047
H    -0.171067  -1.440135  6.031759
H    0.327130  -0.896222  4.566145
N    -3.563835  1.584298  3.041429
C    -4.903665  2.088134  2.803519
H    -3.307871  1.293161  3.978272
H    -5.094293  3.005239  3.378658
H    -5.659804  1.337178  3.069272
H    -4.986492  2.314664  1.735618
