33
Energy: -18208.9982064 eV PBE+vdW (tier 2 basis)
C    0.424502  0.251813  0.124254
C    0.160047  0.332221  1.614678
O    0.900236  0.951870  2.378286
H    0.193607  1.228971  -0.320977
H    -0.167783  -0.516332  -0.388102
H    1.490206  0.056622  -0.037913
N    -0.958446  -0.322210  2.050226
C    -1.476786  -0.180488  3.413539
C    -1.527937  1.334317  3.777485
O    -2.256967  2.038205  3.077927
H    -1.596367  -0.673369  1.347309
H    -2.553794  -0.382620  3.322411
C    -0.931863  -1.243640  4.394034
C    0.549443  -1.617094  4.298493
C    0.989188  -2.556555  5.423553
C    2.461318  -2.963164  5.338792
N    3.348022  -1.804771  5.520805
H    -1.522659  -2.159926  4.228946
H    -1.184731  -0.923974  5.417101
H    1.163760  -0.709504  4.304248
H    0.735827  -2.100200  3.325672
H    0.369827  -3.469081  5.409644
H    0.819575  -2.071502  6.398973
H    2.629752  -3.506355  4.385874
H    2.681675  -3.674951  6.147817
H    4.317289  -2.109494  5.605862
H    3.312569  -1.191740  4.705597
N    -0.940479  1.856181  4.898060
C    0.289266  1.464653  5.578892
H    -1.162770  2.846990  4.952934
H    0.537655  2.256146  6.294036
H    1.121915  1.353455  4.871947
H    0.173224  0.536069  6.149392
