33
Energy: -18209.4942301 eV PBE+vdW (tier 2 basis)
C    -0.833265  1.408882  1.090226
C    -0.502851  0.671897  2.371036
O    0.165734  1.197835  3.270878
H    -1.394707  2.316938  1.343677
H    -1.419023  0.815743  0.377483
H    0.101440  1.726127  0.611746
N    -0.985199  -0.595983  2.469599
C    -0.835687  -1.436249  3.658745
C    0.548151  -2.152263  3.704957
O    0.661467  -3.377609  3.703300
H    -1.454259  -1.003197  1.668983
H    -0.851657  -0.744820  4.515963
C    -2.004185  -2.419197  3.786813
C    -2.299395  -3.269093  2.542678
C    -3.319675  -4.391230  2.785627
C    -4.698444  -3.937359  3.274556
N    -5.343528  -3.026992  2.314991
H    -2.895719  -1.843280  4.079983
H    -1.768621  -3.089376  4.625544
H    -1.362627  -3.723719  2.192735
H    -2.675449  -2.639151  1.716684
H    -2.903577  -5.095841  3.523471
H    -3.451896  -4.950768  1.847519
H    -4.612915  -3.513855  4.294693
H    -5.340705  -4.825170  3.365857
H    -4.912823  -2.102205  2.349674
H    -6.322813  -2.888918  2.563618
N    1.588359  -1.282391  3.777974
C    2.971002  -1.714119  3.807332
H    1.360078  -0.283561  3.774140
H    2.984990  -2.809005  3.827526
H    3.482210  -1.333421  4.702533
H    3.517589  -1.366647  2.918457
