33
Energy: -18209.3231565 eV PBE+vdW (tier 2 basis)
C    0.012043  -0.600279  1.665980
C    -1.070697  -1.412592  2.346141
O    -0.795111  -2.260684  3.194086
H    -0.345443  0.147197  0.951896
H    0.674851  -1.300538  1.140842
H    0.612933  -0.107011  2.439327
N    -2.382795  -1.237826  1.951978
C    -3.004496  -0.063142  1.319923
C    -2.670790  0.062164  -0.193036
O    -2.785716  1.130491  -0.788068
H    -3.003103  -1.817360  2.511399
H    -4.085081  -0.287539  1.327747
C    -2.813926  1.271712  2.059554
C    -3.619981  1.428699  3.359375
C    -3.302125  0.475036  4.521782
C    -1.878128  0.580633  5.074811
N    -1.593192  -0.538949  5.978054
H    -3.118913  2.054926  1.352982
H    -1.743685  1.440709  2.244092
H    -4.692286  1.342104  3.117269
H    -3.482529  2.465784  3.707084
H    -3.483257  -0.570054  4.225932
H    -4.007989  0.661707  5.344595
H    -1.783185  1.518372  5.644236
H    -1.155588  0.658878  4.238621
H    -1.430829  -1.385037  5.425461
H    -0.727795  -0.368022  6.490053
N    -2.317624  -1.106371  -0.792397
C    -2.013416  -1.204689  -2.205335
H    -2.218974  -1.918494  -0.192638
H    -2.655537  -1.948578  -2.696485
H    -0.962111  -1.481181  -2.370647
H    -2.196169  -0.222541  -2.654273
