33
Energy: -18209.3759977 eV PBE+vdW (tier 2 basis)
C    -1.050568  2.358751  -0.092057
C    -0.614883  1.905141  1.288697
O    0.550386  2.078959  1.668831
H    -0.820071  3.425454  -0.200660
H    -2.114135  2.197026  -0.305050
H    -0.454030  1.818518  -0.838185
N    -1.589372  1.324729  2.041200
C    -1.536471  0.671068  3.367069
C    -1.035130  1.503314  4.573357
O    -1.542691  1.287105  5.676224
H    -2.500244  1.281294  1.601259
H    -2.593013  0.516327  3.619926
C    -0.891728  -0.735053  3.345409
C    0.635674  -0.802399  3.242708
C    1.183953  -2.234731  3.283691
C    0.851626  -3.076820  2.051098
N    1.471559  -4.403900  2.152532
H    -1.360800  -1.289269  2.517757
H    -1.211053  -1.232711  4.274428
H    1.073475  -0.236176  4.078172
H    0.980383  -0.299054  2.328099
H    0.822531  -2.761338  4.181242
H    2.281355  -2.184040  3.381588
H    1.147023  -2.509840  1.143799
H    -0.235880  -3.232274  1.981757
H    2.489345  -4.319693  2.147042
H    1.224670  -4.980043  1.347973
N    -0.047835  2.398243  4.354286
C    0.523194  3.168828  5.442219
H    0.393871  2.399911  3.425102
H    1.055283  4.032050  5.027425
H    1.226828  2.573081  6.044837
H    -0.273637  3.517396  6.109817
