33
Energy: -18209.1398164 eV PBE+vdW (tier 2 basis)
C    -0.267324  0.078822  -0.147823
C    -0.075753  0.068237  1.355890
O    1.035005  0.104581  1.882680
H    -0.796618  0.984952  -0.476106
H    -0.857415  -0.782426  -0.490488
H    0.719509  0.050711  -0.616212
N    -1.212403  0.025155  2.126598
C    -2.593649  0.089790  1.682679
C    -3.108082  1.443567  1.130181
O    -4.067243  1.419885  0.358509
H    -1.021231  0.037738  3.124267
H    -2.713921  -0.576260  0.816281
C    -3.554768  -0.431917  2.768878
C    -3.624696  0.400482  4.054778
C    -4.577525  -0.177022  5.109978
C    -6.053663  -0.153998  4.708907
N    -6.886397  -0.666031  5.803239
H    -3.261455  -1.466104  3.009620
H    -4.546965  -0.483507  2.302046
H    -3.935238  1.429788  3.809545
H    -2.625171  0.481943  4.513026
H    -4.460024  0.401097  6.041611
H    -4.293173  -1.211908  5.357179
H    -6.218997  -0.809607  3.841247
H    -6.319034  0.871930  4.380121
H    -6.859013  -0.028958  6.600800
H    -7.862474  -0.726331  5.514250
N    -2.522462  2.630421  1.472221
C    -1.471469  2.965016  2.427163
H    -2.980519  3.408038  1.006408
H    -1.645623  2.511868  3.410362
H    -1.483261  4.052283  2.563179
H    -0.470803  2.676155  2.080363
