33
Energy: -18209.5492431 eV PBE+vdW (tier 2 basis)
C    -1.972844  0.649572  0.812747
C    -1.202123  0.614807  2.117666
O    -0.017442  0.975324  2.167347
H    -3.027465  0.364767  0.909263
H    -1.485854  -0.031824  0.103369
H    -1.909058  1.660016  0.391315
N    -1.897692  0.174992  3.200318
C    -1.388852  -0.098002  4.555120
C    -0.994538  1.161823  5.362327
O    -1.403245  1.320323  6.521481
H    -2.871187  -0.059381  3.050012
H    -2.247170  -0.515269  5.099399
C    -0.260035  -1.151230  4.561876
C    0.066826  -1.732007  5.946334
C    -0.969683  -2.730842  6.517854
C    -1.864405  -2.230687  7.658757
N    -2.847413  -1.225279  7.233967
H    0.644876  -0.714487  4.118665
H    -0.570570  -1.969710  3.892877
H    0.241438  -0.916384  6.666150
H    1.033814  -2.246217  5.850524
H    -0.428910  -3.610257  6.900240
H    -1.617082  -3.100442  5.705744
H    -1.215239  -1.879912  8.486553
H    -2.420201  -3.096476  8.049235
H    -2.421327  -0.290614  7.197050
H    -3.605605  -1.172193  7.912908
N    -0.156973  2.025296  4.753089
C    0.314892  3.226036  5.416103
H    0.145288  1.796510  3.797325
H    0.885738  3.822240  4.696723
H    0.960351  2.985375  6.273487
H    -0.527241  3.822687  5.791896
