33
Energy: -18209.5111966 eV PBE+vdW (tier 2 basis)
C    0.018303  0.005281  0.360071
C    -0.499820  0.032631  1.782061
O    -0.556352  -0.989129  2.476722
H    -0.586757  -0.698693  -0.224447
H    1.046730  -0.376970  0.369208
H    0.006787  0.984917  -0.132885
N    -0.888806  1.251219  2.254352
C    -1.380644  1.440848  3.619063
C    -2.900168  1.126259  3.683790
O    -3.759488  2.005900  3.697542
H    -0.917228  2.042491  1.620875
H    -0.854357  0.688613  4.222938
C    -1.060863  2.847332  4.118398
C    -1.255405  3.042057  5.630260
C    -0.461644  2.121954  6.572568
C    1.076718  2.194005  6.479649
N    1.756107  1.428880  5.427215
H    -1.713999  3.560546  3.592380
H    -0.025519  3.089149  3.831186
H    -2.327350  2.943181  5.856363
H    -0.996872  4.087130  5.864906
H    -0.776984  1.071604  6.450726
H    -0.750731  2.390880  7.601837
H    1.498973  1.854376  7.437613
H    1.386051  3.247129  6.375938
H    1.471233  1.731320  4.497119
H    1.525303  0.436920  5.493722
N    -3.157877  -0.208969  3.709138
C    -4.504126  -0.743326  3.645627
H    -2.361194  -0.826506  3.539694
H    -4.625470  -1.561776  4.366803
H    -4.746510  -1.121049  2.640496
H    -5.203041  0.062796  3.892071
