33
Energy: -18209.158527 eV PBE+vdW (tier 2 basis)
C    0.475924  0.405804  1.416494
C    0.046050  -0.459155  2.584077
O    0.817162  -0.789580  3.483923
H    0.047960  1.414994  1.501097
H    0.144744  0.000497  0.451156
H    1.566066  0.481464  1.432629
N    -1.266349  -0.865614  2.608700
C    -2.344878  -0.495575  1.702458
C    -2.689034  1.010670  1.675848
O    -2.887742  1.566359  0.595044
H    -1.495418  -1.445497  3.411313
H    -2.040154  -0.698329  0.664345
C    -3.580091  -1.362587  2.008235
C    -4.745480  -1.152050  1.037154
C    -5.979321  -2.024331  1.313790
C    -5.864912  -3.506714  0.942624
N    -4.950231  -4.242949  1.830978
H    -3.925655  -1.163051  3.037286
H    -3.270491  -2.416824  1.985451
H    -4.397482  -1.334837  0.007203
H    -5.052195  -0.095613  1.057468
H    -6.825894  -1.611082  0.744085
H    -6.269807  -1.937540  2.376245
H    -5.465600  -3.588194  -0.080718
H    -6.885079  -3.937337  0.914757
H    -5.347688  -4.303505  2.769976
H    -4.837240  -5.203603  1.506878
N    -2.793483  1.708253  2.847668
C    -2.602444  1.286654  4.228695
H    -3.008314  2.687281  2.686134
H    -3.005480  2.071218  4.879131
H    -1.544973  1.133854  4.485518
H    -3.152421  0.364501  4.454104
