33
Energy: -18209.2322434 eV PBE+vdW (tier 2 basis)
C    0.182521  -0.183496  1.277737
C    -0.263928  -0.107609  2.730724
O    0.549657  -0.067351  3.650471
H    -0.118722  0.715161  0.719700
H    -0.232968  -1.055523  0.756280
H    1.273661  -0.247555  1.271346
N    -1.611669  -0.087428  2.981798
C    -2.711283  -0.029865  2.039342
C    -3.658566  1.099637  2.484728
O    -3.805395  1.363782  3.676118
H    -1.867424  0.088518  3.952977
H    -2.305252  0.183995  1.042267
C    -3.520795  -1.349089  1.983063
C    -2.719903  -2.549043  1.479216
C    -3.532786  -3.847421  1.477942
C    -2.772061  -5.055952  0.928603
N    -1.654230  -5.434865  1.802008
H    -4.406895  -1.197481  1.344613
H    -3.903821  -1.549626  2.996036
H    -1.829187  -2.667681  2.115270
H    -2.357366  -2.347564  0.455401
H    -4.443947  -3.705658  0.873323
H    -3.860490  -4.076793  2.504080
H    -2.470476  -4.844599  -0.118834
H    -3.458718  -5.913990  0.887165
H    -1.256426  -6.326037  1.507616
H    -0.897798  -4.752428  1.749417
N    -4.361065  1.748434  1.511020
C    -4.244297  1.593104  0.070203
H    -4.994661  2.455768  1.869758
H    -4.963105  2.266477  -0.407911
H    -4.480108  0.570666  -0.258698
H    -3.242414  1.859260  -0.298887
