33
Energy: -18209.188338 eV PBE+vdW (tier 2 basis)
C    0.844258  1.879203  0.255164
C    1.356066  2.617999  1.474696
O    2.512416  3.028542  1.525724
H    1.161064  2.432235  -0.635657
H    1.337140  0.897733  0.223961
H    -0.236271  1.722795  0.221836
N    0.538380  2.751269  2.585438
C    -0.920099  2.668824  2.740653
C    -1.518736  1.286701  2.384776
O    -2.683342  1.161878  2.013459
H    1.018130  3.286910  3.305606
H    -1.066598  2.702321  3.834581
C    -1.711813  3.881535  2.203877
C    -1.588427  4.281797  0.727523
C    -2.402558  3.468905  -0.290061
C    -3.921682  3.576125  -0.127714
N    -4.377468  4.971488  -0.218786
H    -1.385868  4.739840  2.811270
H    -2.765964  3.712799  2.464418
H    -0.528767  4.295192  0.429991
H    -1.924845  5.325912  0.655123
H    -2.147146  2.401089  -0.252262
H    -2.126314  3.813094  -1.301701
H    -4.209863  3.188220  0.859308
H    -4.394988  2.904226  -0.869493
H    -4.273682  5.318538  -1.173684
H    -5.369689  5.038166  0.005485
N    -0.686043  0.236284  2.623511
C    -1.073092  -1.140807  2.395431
H    0.267142  0.454257  2.893092
H    -0.898496  -1.751369  3.291523
H    -0.518495  -1.581471  1.553648
H    -2.142050  -1.151358  2.157444
