33
Energy: -18209.1560387 eV PBE+vdW (tier 2 basis)
C    0.079896  0.404125  1.047252
C    -0.175113  0.310925  2.539687
O    0.654031  0.698031  3.359881
H    0.896695  1.113841  0.890773
H    -0.796304  0.722324  0.469392
H    0.391156  -0.580460  0.670804
N    -1.357252  -0.245988  2.966831
C    -2.483110  -0.772035  2.202711
C    -2.010758  -1.854989  1.192824
O    -1.234203  -2.737671  1.541952
H    -1.386365  -0.356269  3.974691
H    -3.066707  -1.359074  2.930095
C    -3.424815  0.325406  1.664983
C    -3.959768  1.241403  2.768714
C    -4.825414  2.399847  2.256116
C    -6.068583  1.995152  1.456748
N    -6.899891  1.042525  2.204376
H    -4.281805  -0.163491  1.174944
H    -2.909411  0.935022  0.903418
H    -3.113142  1.660256  3.331380
H    -4.545687  0.634898  3.476164
H    -4.217622  3.070624  1.627143
H    -5.141031  3.008304  3.120096
H    -5.766397  1.501484  0.519615
H    -6.602275  2.918066  1.157247
H    -7.262422  1.478781  3.053831
H    -7.712486  0.765628  1.654166
N    -2.533606  -1.773942  -0.064150
C    -2.208632  -2.729995  -1.105203
H    -3.138987  -0.994614  -0.287421
H    -3.116972  -3.193804  -1.513425
H    -1.580015  -3.505603  -0.655376
H    -1.652508  -2.254571  -1.925988
