33
Energy: -18209.0419629 eV PBE+vdW (tier 2 basis)
C    1.689684  -0.243150  0.641410
C    1.090994  -0.433133  2.025970
O    1.656943  -1.095740  2.887974
H    2.399223  0.595055  0.685310
H    0.944071  -0.026642  -0.134775
H    2.246631  -1.145367  0.369944
N    -0.131870  0.182021  2.189433
C    -0.802932  0.470665  3.449877
C    -0.165594  1.720147  4.113044
O    0.967201  2.100502  3.843364
H    -0.404416  0.785630  1.422585
H    -1.840061  0.732184  3.177352
C    -0.869306  -0.715974  4.440192
C    -1.911276  -1.790155  4.104431
C    -1.639363  -2.616435  2.843210
C    -2.588671  -3.803867  2.701922
N    -2.349512  -4.512654  1.437400
H    -1.099623  -0.304815  5.433553
H    0.132993  -1.153823  4.510279
H    -2.910473  -1.323880  4.029006
H    -1.966954  -2.473291  4.968550
H    -0.598594  -2.979842  2.868708
H    -1.723209  -1.993925  1.941428
H    -3.629628  -3.441563  2.686152
H    -2.495277  -4.448038  3.600413
H    -1.404829  -4.901136  1.427543
H    -2.986149  -5.304311  1.344222
N    -0.939397  2.381352  5.034369
C    -2.363648  2.229529  5.286759
H    -0.479654  3.204081  5.411629
H    -2.982660  2.518524  4.421769
H    -2.636949  2.878615  6.125659
H    -2.623959  1.201519  5.571321
