33
Energy: -18209.1501045 eV PBE+vdW (tier 2 basis)
C    0.738856  -0.437631  1.314070
C    0.044983  0.672672  2.085288
O    0.663354  1.494697  2.753809
H    1.555997  -0.001700  0.727659
H    0.074995  -1.000583  0.645801
H    1.188195  -1.135244  2.032832
N    -1.320550  0.697543  1.971524
C    -2.182291  1.602484  2.733438
C    -1.726597  3.085230  2.675242
O    -1.674917  3.771815  3.689208
H    -1.766504  -0.039319  1.439842
H    -3.163251  1.567092  2.226494
C    -2.371002  1.158627  4.189999
C    -3.002343  -0.226800  4.329968
C    -3.203576  -0.645814  5.789215
C    -3.825768  -2.040793  5.943049
N    -4.047634  -2.515673  7.312101
H    -2.989998  1.914796  4.691461
H    -1.392484  1.191847  4.689815
H    -2.371997  -0.980392  3.827927
H    -3.976934  -0.246515  3.809279
H    -3.842945  0.093550  6.300968
H    -2.232903  -0.623588  6.313158
H    -3.189428  -2.782537  5.433314
H    -4.795858  -2.068579  5.420570
H    -4.659588  -1.871578  7.815678
H    -3.166529  -2.532285  7.828214
N    -1.487993  3.636786  1.444609
C    -1.517960  3.037849  0.124411
H    -1.158839  4.594157  1.516957
H    -1.652069  3.836291  -0.615565
H    -2.365977  2.349901  0.017712
H    -0.594294  2.490614  -0.121223
