33
Energy: -18208.9455842 eV PBE+vdW (tier 2 basis)
C    0.144983  0.579841  1.337369
C    -0.229277  -0.400441  2.433012
O    0.649000  -0.966556  3.085724
H    -0.230699  1.587385  1.554450
H    -0.245649  0.284307  0.356322
H    1.237034  0.607182  1.295783
N    -1.548311  -0.658229  2.738015
C    -2.873796  -0.315861  2.199726
C    -3.632921  -1.603024  1.785317
O    -4.679146  -1.899581  2.364666
H    -1.591801  -1.315484  3.514643
H    -3.474131  0.034586  3.053784
C    -2.929862  0.773268  1.123836
C    -4.362691  1.069920  0.663631
C    -4.441433  2.054498  -0.513219
C    -4.158204  1.463414  -1.899004
N    -2.758260  1.028233  -2.068144
H    -2.340147  0.501967  0.243654
H    -2.489934  1.694052  1.536284
H    -4.943174  1.466029  1.511142
H    -4.866612  0.134428  0.373090
H    -3.769359  2.912893  -0.335326
H    -5.456072  2.479521  -0.550001
H    -4.472600  2.201757  -2.661467
H    -4.794573  0.575997  -2.041980
H    -2.635097  0.606374  -2.989290
H    -2.138923  1.841078  -2.047310
N    -3.136152  -2.398668  0.792772
C    -1.949780  -2.245092  -0.037974
H    -3.717902  -3.215191  0.634389
H    -2.003978  -1.353546  -0.679725
H    -1.882740  -3.121952  -0.690909
H    -1.032026  -2.207275  0.562801
