33
Energy: -18209.2023244 eV PBE+vdW (tier 2 basis)
C    -3.428160  -0.713777  -2.176633
C    -2.129971  -0.275699  -1.528869
O    -1.201755  0.183656  -2.188367
H    -3.957319  -1.508716  -1.639444
H    -3.201589  -1.042235  -3.195568
H    -4.099779  0.153255  -2.244944
N    -1.998081  -0.414758  -0.159499
C    -3.012020  -0.750347  0.847031
C    -3.486325  -2.223414  0.753839
O    -4.607314  -2.568301  1.122118
H    -1.140680  0.013096  0.179734
H    -2.463586  -0.700003  1.801134
C    -4.176259  0.258327  0.929248
C    -4.926367  0.328643  2.270635
C    -4.037815  0.579222  3.505006
C    -3.735716  -0.682506  4.316803
N    -2.741103  -0.403278  5.360757
H    -4.902611  0.048707  0.132094
H    -3.741585  1.246880  0.713876
H    -5.504853  -0.594679  2.408686
H    -5.662426  1.140250  2.177398
H    -4.529815  1.305455  4.171896
H    -3.083544  1.050393  3.215174
H    -3.321444  -1.467569  3.666011
H    -4.692975  -1.088089  4.700243
H    -3.103666  0.290730  6.016994
H    -2.552855  -1.242964  5.908801
N    -2.542214  -3.090533  0.295192
C    -2.782677  -4.512705  0.157391
H    -1.680700  -2.687747  -0.057923
H    -2.780896  -4.820530  -0.898316
H    -3.767373  -4.726982  0.586286
H    -2.021802  -5.093931  0.695776
