33
Energy: -18209.086456 eV PBE+vdW (tier 2 basis)
C    0.082686  0.578225  0.498082
C    -0.123202  -0.372541  1.663157
O    0.809823  -1.011347  2.142119
H    1.095106  0.419992  0.117620
H    -0.640170  0.412213  -0.310928
H    -0.007961  1.621912  0.828729
N    -1.383467  -0.486645  2.207285
C    -2.673483  0.037537  1.750465
C    -3.089578  -0.633862  0.410232
O    -3.225934  -1.851759  0.354817
H    -1.423367  -1.227043  2.900726
H    -3.399070  -0.382300  2.463258
C    -2.794030  1.569031  1.847430
C    -4.247203  2.057862  1.944065
C    -4.403915  3.580322  1.854128
C    -4.115060  4.157194  0.466242
N    -4.340277  5.605044  0.452509
H    -2.271343  2.059104  1.011372
H    -2.246024  1.884115  2.747597
H    -4.667252  1.707026  2.899356
H    -4.862675  1.586041  1.159880
H    -3.754456  4.081270  2.588737
H    -5.437837  3.844796  2.130650
H    -4.718379  3.598988  -0.282002
H    -3.058276  3.993925  0.202378
H    -4.087814  6.004985  -0.450745
H    -5.328577  5.814815  0.599457
N    -3.280070  0.189853  -0.661027
C    -3.683717  -0.303769  -1.964033
H    -3.161246  1.187171  -0.534696
H    -4.644583  0.131070  -2.273043
H    -3.790808  -1.390651  -1.884882
H    -2.927804  -0.074458  -2.728223
