33
Energy: -18209.3095407 eV PBE+vdW (tier 2 basis)
C    0.714443  0.213072  -0.078728
C    0.981689  0.363573  1.405018
O    2.098041  0.639507  1.835394
H    1.645071  -0.107172  -0.556957
H    0.444689  1.194478  -0.493451
H    -0.089543  -0.491122  -0.320254
N    -0.064950  0.165731  2.287479
C    -1.501728  0.021869  2.033094
C    -1.907432  -1.354278  1.445613
O    -3.001136  -1.515508  0.909117
H    0.209724  0.390186  3.239837
H    -1.954593  0.015081  3.037881
C    -2.155172  1.174123  1.248716
C    -1.877591  2.567359  1.824672
C    -2.348205  2.806279  3.268536
C    -3.836223  2.547878  3.523760
N    -4.683417  3.436732  2.717165
H    -3.231341  0.957462  1.220084
H    -1.829542  1.141415  0.200141
H    -2.350928  3.310792  1.164853
H    -0.798754  2.781542  1.771678
H    -2.126783  3.850281  3.535660
H    -1.765431  2.181838  3.966589
H    -4.047921  2.763062  4.581256
H    -4.061299  1.471759  3.377509
H    -5.656190  3.362258  3.013698
H    -4.666446  3.160181  1.734878
N    -0.996293  -2.347682  1.627749
C    -1.221932  -3.710484  1.190622
H    -0.118285  -2.093429  2.067447
H    -1.186710  -4.409965  2.037391
H    -0.474512  -4.019013  0.446164
H    -2.217249  -3.752486  0.735300
