33
Energy: -18209.3563725 eV PBE+vdW (tier 2 basis)
C    -0.700526  -0.332976  0.115030
C    -0.055430  -0.496290  1.476810
O    0.909031  -1.231041  1.670992
H    -0.731243  0.718372  -0.201720
H    -1.737983  -0.696680  0.124634
H    -0.124378  -0.916102  -0.607539
N    -0.597562  0.236653  2.513018
C    -1.811131  1.048841  2.494473
C    -1.637028  2.404529  1.776043
O    -2.601429  2.984715  1.279624
H    -0.210647  -0.006122  3.421891
H    -2.610858  0.530956  1.942477
C    -2.276966  1.257129  3.950204
C    -3.658644  1.901430  4.095159
C    -4.110624  2.126052  5.546167
C    -4.545748  0.882614  6.328672
N    -3.418103  -0.009775  6.646291
H    -1.526091  1.873881  4.474589
H    -2.282730  0.277834  4.449785
H    -4.405157  1.274788  3.579015
H    -3.669153  2.864436  3.566081
H    -4.966723  2.818181  5.534698
H    -3.317260  2.650123  6.108791
H    -5.257625  0.306752  5.716123
H    -5.103572  1.214493  7.226293
H    -3.754407  -0.856233  7.105889
H    -2.789667  0.444994  7.310963
N    -0.369590  2.900907  1.784446
C    -0.017004  4.170012  1.181720
H    0.356528  2.295824  2.153878
H    0.427654  4.851322  1.920505
H    -0.937514  4.618360  0.792190
H    0.692930  4.036001  0.353145
