33
Energy: -18209.4217577 eV PBE+vdW (tier 2 basis)
C    0.552710  1.448320  1.108933
C    -0.015484  0.980328  2.436447
O    0.197296  1.578679  3.486863
H    -0.072223  2.273476  0.739927
H    0.582388  0.663880  0.341969
H    1.562934  1.838340  1.270815
N    -0.787863  -0.152513  2.367706
C    -1.657845  -0.597147  3.459266
C    -2.444516  0.616275  4.034145
O    -3.024142  1.374963  3.256496
H    -1.039468  -0.466344  1.438739
H    -2.452257  -1.178957  2.965967
C    -0.976190  -1.556866  4.450384
C    0.280354  -1.043721  5.165829
C    0.655235  -1.851549  6.415399
C    -0.429889  -1.910796  7.497394
N    -1.009564  -0.578815  7.756684
H    -0.728435  -2.481822  3.904789
H    -1.745769  -1.848613  5.181837
H    0.156687  0.013448  5.429550
H    1.127979  -1.059724  4.465961
H    1.569500  -1.414034  6.849438
H    0.917833  -2.887472  6.145388
H    -0.002381  -2.382467  8.401158
H    -1.254590  -2.562291  7.170989
H    -0.279869  0.071016  8.057089
H    -1.679655  -0.630684  8.524654
N    -2.543405  0.721125  5.381063
C    -3.267878  1.832543  5.968285
H    -1.946550  0.180461  6.016549
H    -3.308219  1.686280  7.053731
H    -4.289929  1.880087  5.571451
H    -2.780744  2.795456  5.751560
