33
Energy: -18209.4132022 eV PBE+vdW (tier 2 basis)
C    -0.630872  -1.365071  -0.240486
C    -0.510477  -0.900483  1.195970
O    0.555718  -0.983703  1.819172
H    0.093198  -0.810599  -0.850411
H    -1.633168  -1.229077  -0.664766
H    -0.358780  -2.426466  -0.294516
N    -1.642102  -0.386143  1.750604
C    -1.678838  0.160994  3.111034
C    -1.893813  -0.981884  4.142055
O    -2.964847  -1.200814  4.706559
H    -2.503532  -0.403932  1.218389
H    -0.662476  0.547408  3.281539
C    -2.644602  1.351503  3.230010
C    -4.167291  1.127813  3.229475
C    -4.740754  0.325153  2.057736
C    -6.271629  0.307181  2.005870
N    -6.838490  -0.227249  3.248129
H    -2.369816  2.046245  2.418527
H    -2.387434  1.869480  4.166046
H    -4.636569  2.125666  3.230866
H    -4.465340  0.642621  4.163627
H    -4.392604  -0.721319  2.121942
H    -4.382634  0.731205  1.094126
H    -6.581646  -0.244542  1.095301
H    -6.640922  1.339077  1.888185
H    -7.853546  -0.293846  3.184069
H    -6.488308  -1.169881  3.426823
N    -0.761865  -1.712483  4.338859
C    -0.740869  -2.903431  5.164075
H    0.020573  -1.519741  3.708005
H    -0.719415  -3.820700  4.555589
H    0.137753  -2.899626  5.822289
H    -1.649728  -2.910965  5.775030
