33
Energy: -18209.3483124 eV PBE+vdW (tier 2 basis)
C    -0.644141  -0.143432  -0.840197
C    -0.017090  0.033703  0.534012
O    1.199648  0.130215  0.679662
H    -1.294255  0.705740  -1.096475
H    -1.245710  -1.059050  -0.909461
H    0.168679  -0.192977  -1.569289
N    -0.858390  0.083855  1.615344
C    -2.308404  0.054259  1.653909
C    -2.780687  1.209186  2.556046
O    -2.168248  1.507772  3.578517
H    -0.407731  0.305893  2.502193
H    -2.688538  0.199012  0.632471
C    -2.866427  -1.274888  2.216139
C    -2.544373  -2.493448  1.353465
C    -3.045759  -3.806774  1.958943
C    -2.825634  -5.020863  1.052580
N    -3.614123  -4.909987  -0.184295
H    -3.958959  -1.173625  2.326834
H    -2.462881  -1.404447  3.233166
H    -1.454075  -2.560956  1.210397
H    -2.987458  -2.376403  0.352409
H    -4.122664  -3.724325  2.190576
H    -2.543801  -3.990251  2.922456
H    -3.035664  -5.941669  1.630125
H    -1.763996  -5.068147  0.764012
H    -3.343579  -5.634587  -0.848484
H    -4.604836  -5.057203  0.014506
N    -3.930753  1.822700  2.156651
C    -4.570910  2.874195  2.925719
H    -4.357295  1.522123  1.288730
H    -4.650375  3.800698  2.340877
H    -3.947174  3.062045  3.805861
H    -5.574841  2.573067  3.256317
