33
Energy: -18209.1479513 eV PBE+vdW (tier 2 basis)
C    -0.488537  1.116012  0.072286
C    -0.792117  0.130040  1.187532
O    -0.723983  -1.084791  1.030510
H    -0.660466  2.165298  0.344288
H    -1.106231  0.865001  -0.798522
H    0.560379  0.995715  -0.226930
N    -1.152173  0.690760  2.384691
C    -1.421719  -0.104170  3.572587
C    -2.715636  -0.950883  3.569076
O    -2.724508  -2.002163  4.204542
H    -1.190038  1.700257  2.457334
H    -0.637560  -0.871724  3.648623
C    -1.390057  0.777592  4.831032
C    -0.001593  1.343397  5.154714
C    0.055245  2.155988  6.455768
C    -0.703592  3.492468  6.410388
N    -0.612219  4.334601  7.605899
H    -1.734278  0.157000  5.670861
H    -2.131020  1.588041  4.723415
H    0.362081  1.970755  4.323353
H    0.704928  0.501661  5.222397
H    1.110239  2.365785  6.696972
H    -0.333075  1.546607  7.289737
H    -1.773278  3.316632  6.219627
H    -0.337359  4.085098  5.555272
H    -0.996423  3.845547  8.415694
H    0.364775  4.532155  7.828478
N    -3.841112  -0.514788  2.926269
C    -4.113411  0.709456  2.192766
H    -4.597463  -1.187662  3.001970
H    -5.200486  0.806933  2.089286
H    -3.672946  0.710861  1.185067
H    -3.759962  1.597656  2.732115
