33
Energy: -18209.502273 eV PBE+vdW (tier 2 basis)
C    1.589344  -1.117616  0.422357
C    1.143796  -0.822871  1.840061
O    1.909310  -0.998630  2.800731
H    2.515548  -0.566150  0.220960
H    0.844754  -0.863713  -0.341581
H    1.823238  -2.187450  0.346612
N    -0.127568  -0.366918  1.977794
C    -0.850891  -0.095888  3.233334
C    -0.428544  1.222695  3.928441
O    -1.277113  2.061330  4.231409
H    -0.652198  -0.217781  1.125237
H    -1.888403  0.088126  2.926623
C    -0.829880  -1.268555  4.232644
C    -1.321295  -2.598919  3.649639
C    -1.007214  -3.819301  4.532120
C    0.394507  -4.415111  4.346490
N    1.477134  -3.533003  4.802597
H    -1.475807  -0.971374  5.072755
H    0.175000  -1.385015  4.652020
H    -0.871507  -2.762512  2.655752
H    -2.407771  -2.534145  3.477952
H    -1.730423  -4.617320  4.301283
H    -1.150422  -3.563032  5.594028
H    0.499278  -4.726736  3.285417
H    0.450367  -5.337486  4.943551
H    2.336215  -4.068822  4.919794
H    1.688315  -2.806980  4.113758
N    0.898362  1.332784  4.191839
C    1.464541  2.477690  4.875888
H    1.499052  0.550731  3.916894
H    2.263692  2.937339  4.277763
H    1.878568  2.192619  5.854085
H    0.665039  3.209874  5.031152
