33
Energy: -18209.1437789 eV PBE+vdW (tier 2 basis)
C    -0.601827  1.334606  0.187788
C    -0.660212  1.074294  1.683509
O    -0.525599  1.967760  2.513312
H    -1.415443  2.019888  -0.081432
H    -0.683503  0.429233  -0.427230
H    0.341967  1.842556  -0.045173
N    -0.869975  -0.231131  2.043803
C    -1.004929  -0.649943  3.429758
C    0.283404  -0.664953  4.284518
O    0.184564  -0.454617  5.490892
H    -0.978455  -0.925240  1.314215
H    -1.620354  0.101872  3.945007
C    -1.698018  -2.019287  3.518943
C    -3.165318  -1.997206  3.074117
C    -3.834216  -3.376658  3.051651
C    -3.959198  -4.045138  4.421609
N    -4.662545  -5.328085  4.301573
H    -1.622603  -2.346562  4.564434
H    -1.133667  -2.759567  2.923055
H    -3.243447  -1.553161  2.069460
H    -3.725103  -1.322057  3.742232
H    -3.289525  -4.056677  2.376997
H    -4.844226  -3.268929  2.621932
H    -4.436682  -3.332426  5.125002
H    -2.959655  -4.259714  4.828281
H    -4.686791  -5.809337  5.200406
H    -5.635003  -5.175706  4.029524
N    1.496884  -0.955959  3.724790
C    1.860684  -1.340903  2.371758
H    2.243824  -0.911693  4.410822
H    1.871955  -0.490839  1.674343
H    1.193256  -2.115536  1.972026
H    2.869180  -1.769759  2.401933
