33
Energy: -18209.0963981 eV PBE+vdW (tier 2 basis)
C    0.674454  -0.032433  0.344486
C    0.361455  0.562205  1.707820
O    1.005011  1.493302  2.180416
H    0.736504  0.780735  -0.388241
H    -0.057892  -0.773277  -0.000500
H    1.662728  -0.507961  0.389560
N    -0.699945  -0.006389  2.361622
C    -1.101380  0.328168  3.729543
C    -1.127341  1.856614  3.996049
O    -0.546927  2.349133  4.956883
H    -1.156745  -0.799019  1.927242
H    -2.146809  -0.013225  3.814254
C    -0.248124  -0.405574  4.778129
C    -0.881282  -0.521382  6.173710
C    -2.244828  -1.224482  6.236834
C    -2.245836  -2.667152  5.734260
N    -3.593206  -3.245505  5.824312
H    0.712622  0.119204  4.859685
H    -0.033580  -1.407698  4.376392
H    -0.974582  0.485046  6.602089
H    -0.169128  -1.062212  6.817720
H    -3.011003  -0.659963  5.681385
H    -2.586196  -1.217812  7.285674
H    -1.471556  -3.238220  6.286642
H    -1.950667  -2.697463  4.673316
H    -3.902299  -3.265800  6.797652
H    -3.591224  -4.214097  5.504017
N    -1.917378  2.626568  3.184417
C    -2.655607  2.260740  1.991368
H    -1.834098  3.615140  3.399411
H    -3.434464  3.013319  1.818696
H    -3.159297  1.294398  2.118449
H    -2.020886  2.205338  1.092702
