33
Energy: -18209.2438609 eV PBE+vdW (tier 2 basis)
C    0.098378  0.097526  0.852785
C    -0.158528  0.111860  2.350245
O    0.754478  0.061508  3.169554
H    -0.251941  1.020689  0.369836
H    -0.404266  -0.746779  0.361036
H    1.177097  0.008614  0.701631
N    -1.467522  0.199881  2.762449
C    -2.676174  0.129601  1.942768
C    -3.692202  1.119797  2.557538
O    -4.593926  0.746752  3.310364
H    -1.585187  0.111355  3.769616
H    -2.409799  0.483028  0.936338
C    -3.263668  -1.279814  1.846645
C    -4.390733  -1.391349  0.807289
C    -5.298069  -2.619200  0.998139
C    -6.459275  -2.409784  1.977938
N    -6.017015  -2.147956  3.353116
H    -3.623350  -1.582760  2.838344
H    -2.448107  -1.971335  1.586048
H    -3.942375  -1.413109  -0.199060
H    -5.019961  -0.485536  0.835216
H    -4.695417  -3.480333  1.328862
H    -5.736680  -2.895836  0.026648
H    -7.064113  -3.328950  1.991464
H    -7.113860  -1.611570  1.568396
H    -5.673984  -1.188115  3.449574
H    -6.804449  -2.237625  3.994099
N    -3.524928  2.439066  2.257696
C    -2.455900  3.054012  1.487181
H    -4.170691  3.048683  2.749802
H    -2.656886  4.127848  1.415943
H    -2.415103  2.659206  0.462138
H    -1.472070  2.917436  1.958874
