33
Energy: -18209.4370975 eV PBE+vdW (tier 2 basis)
C    1.664008  1.665934  0.579371
C    0.972979  1.536339  1.922409
O    1.582561  1.749238  2.978942
H    1.001489  1.509223  -0.280427
H    2.116573  2.662282  0.508733
H    2.479836  0.932965  0.536186
N    -0.339992  1.182593  1.876403
C    -1.214007  0.831133  3.007268
C    -1.646734  2.014124  3.910006
O    -2.836363  2.144924  4.203721
H    -0.739113  1.042058  0.956667
H    -2.159122  0.520063  2.547517
C    -0.672172  -0.334038  3.860853
C    -0.354728  -1.631737  3.105290
C    -1.543409  -2.368233  2.460117
C    -1.866594  -1.973023  1.017007
N    -2.894454  -2.861154  0.463256
H    -1.431827  -0.532682  4.632663
H    0.231995  0.000754  4.386746
H    0.118010  -2.308835  3.831536
H    0.419781  -1.439548  2.344407
H    -2.443116  -2.233968  3.085771
H    -1.342861  -3.449664  2.450553
H    -0.958536  -2.090923  0.404305
H    -2.145102  -0.900570  0.965177
H    -3.773818  -2.745018  0.969375
H    -3.088701  -2.628833  -0.510656
N    -0.646553  2.811638  4.356119
C    -0.884453  3.934706  5.240034
H    0.308942  2.568081  4.070254
H    -0.463867  4.858707  4.819722
H    -0.436409  3.765814  6.230356
H    -1.966772  4.052645  5.359221
