33
Energy: -18208.9885806 eV PBE+vdW (tier 2 basis)
C    -0.324888  0.239140  0.070661
C    -0.230724  0.139522  1.580794
O    0.838270  0.252881  2.179295
H    -0.204541  1.293102  -0.214445
H    -1.275042  -0.128071  -0.336756
H    0.502961  -0.322755  -0.375311
N    -1.414069  -0.076132  2.231145
C    -1.537696  0.014837  3.688967
C    -0.859378  1.335018  4.164854
O    -1.331690  2.382112  3.717614
H    -2.264491  0.007315  1.688790
H    -2.590907  0.280857  3.859501
C    -1.328057  -1.333872  4.416412
C    -0.240343  -2.276449  3.888346
C    -0.132739  -3.603954  4.655917
C    0.680487  -3.574871  5.953398
N    0.060441  -2.739793  6.996450
H    -2.287028  -1.875350  4.345738
H    -1.183244  -1.138301  5.486846
H    0.738443  -1.780131  3.875682
H    -0.465959  -2.501932  2.835346
H    0.342636  -4.351227  4.001676
H    -1.142552  -4.000124  4.867880
H    1.673637  -3.148267  5.740290
H    0.851474  -4.619520  6.279530
H    -0.841504  -3.134445  7.269545
H    0.637374  -2.740226  7.838127
N    0.101843  1.374931  5.134458
C    1.121033  0.389661  5.483637
H    0.356691  2.343742  5.307883
H    1.833934  0.880831  6.155546
H    1.661523  0.046815  4.590657
H    0.701700  -0.471529  6.018692
