33
Energy: -18209.0695992 eV PBE+vdW (tier 2 basis)
C    0.638009  -0.235018  0.446143
C    0.397798  0.036915  1.921787
O    1.312789  0.207034  2.721211
H    -0.222545  0.005457  -0.191638
H    0.872260  -1.301655  0.320037
H    1.509410  0.339623  0.116070
N    -0.919652  0.064506  2.295619
C    -1.368400  0.109939  3.688214
C    -0.740284  1.286905  4.483818
O    -0.278565  1.124040  5.607254
H    -1.614961  -0.138021  1.588556
H    -2.451059  0.323039  3.635499
C    -1.176112  -1.208950  4.449838
C    -1.928872  -2.423121  3.889077
C    -1.302845  -3.113178  2.668041
C    -1.857114  -4.519001  2.413152
N    -1.529072  -5.427911  3.519002
H    -1.500195  -1.020992  5.481600
H    -0.099077  -1.419395  4.515479
H    -2.974560  -2.149030  3.659290
H    -1.987818  -3.178211  4.686131
H    -0.209746  -3.178977  2.809181
H    -1.446932  -2.521726  1.751574
H    -1.495586  -4.870315  1.426559
H    -2.955792  -4.469426  2.342681
H    -1.996565  -6.326034  3.402057
H    -0.526403  -5.619536  3.536278
N    -0.799248  2.538582  3.929168
C    -1.345951  2.983041  2.661761
H    -0.330200  3.229879  4.505351
H    -1.571574  4.053857  2.737975
H    -2.287367  2.468794  2.430130
H    -0.653752  2.834415  1.818396
