33
Energy: -18209.4030936 eV PBE+vdW (tier 2 basis)
C    -1.060822  1.140004  0.044931
C    -0.775244  0.621418  1.437957
O    0.339721  0.228015  1.783913
H    -0.791396  2.207214  0.025230
H    -2.116055  1.045553  -0.242306
H    -0.431071  0.608182  -0.674820
N    -1.826389  0.716191  2.309986
C    -1.742219  0.270351  3.685376
C    -2.890970  -0.720279  3.925605
O    -3.958934  -0.609333  3.320617
H    -2.770323  0.832251  1.950905
H    -0.760785  -0.214633  3.788608
C    -1.868215  1.427216  4.709442
C    -0.629465  2.320783  4.886843
C    -0.133293  3.109695  3.665894
C    -1.165074  4.044132  3.037916
N    -0.639527  4.625094  1.792861
H    -2.107955  0.991157  5.692272
H    -2.751802  2.022907  4.433258
H    0.202800  1.697419  5.250589
H    -0.855052  3.025336  5.704786
H    0.248623  2.425542  2.897439
H    0.735483  3.709359  3.987510
H    -1.477218  4.800293  3.787489
H    -2.067481  3.475860  2.769596
H    -1.303561  5.294577  1.403103
H    0.217687  5.148022  1.980996
N    -2.694303  -1.687680  4.865027
C    -1.471451  -1.978621  5.597670
H    -3.501566  -2.284344  5.014661
H    -1.635732  -2.880228  6.196757
H    -1.192217  -1.166028  6.284720
H    -0.625556  -2.172564  4.923522
