33
Energy: -18209.5035183 eV PBE+vdW (tier 2 basis)
C    -1.558486  3.496315  3.506027
C    -1.208808  2.259860  4.313172
O    -1.153447  2.272285  5.543526
H    -2.554402  3.844492  3.807225
H    -1.550764  3.330780  2.421891
H    -0.845345  4.291813  3.754826
N    -0.976573  1.131005  3.581721
C    -0.519840  -0.100083  4.189833
C    0.247531  -0.868881  3.099673
O    0.246373  -0.500414  1.922844
H    -0.864554  1.164721  2.569513
H    0.183424  0.159272  4.999873
C    -1.674800  -0.903777  4.844006
C    -2.830045  -1.314297  3.923902
C    -2.552828  -2.482635  2.971984
C    -3.795156  -2.959439  2.197059
N    -4.896610  -3.541047  2.969649
H    -2.057290  -0.261588  5.649297
H    -1.255985  -1.795008  5.341232
H    -3.155680  -0.435768  3.343010
H    -3.681603  -1.576450  4.572362
H    -2.139825  -3.334168  3.542358
H    -1.786230  -2.201951  2.233996
H    -3.481884  -3.708824  1.454285
H    -4.206866  -2.116771  1.618796
H    -4.565803  -4.323990  3.535528
H    -5.293112  -2.859767  3.616886
N    0.917738  -1.967995  3.533915
C    1.600188  -2.878096  2.633555
H    0.830502  -2.225035  4.509800
H    1.007279  -3.786903  2.448570
H    2.575335  -3.165417  3.045810
H    1.749566  -2.360238  1.680878
