33
Energy: -18209.4408345 eV PBE+vdW (tier 2 basis)
C    -3.479368  -0.198677  -0.300877
C    -2.201220  -0.260337  0.507204
O    -1.428863  -1.213574  0.451429
H    -3.614296  0.764864  -0.810461
H    -4.345260  -0.366294  0.360883
H    -3.443583  -0.999916  -1.043942
N    -1.916138  0.811383  1.332542
C    -2.767391  1.938074  1.692203
C    -2.197442  3.311240  1.262649
O    -2.749759  4.354275  1.607684
H    -1.127474  0.619793  1.948356
H    -3.701577  1.841696  1.120446
C    -3.116241  1.928472  3.190819
C    -4.142069  0.848203  3.552322
C    -5.586815  1.238760  3.214019
C    -6.543022  0.043677  3.155080
N    -6.324838  -0.737951  1.924651
H    -3.489278  2.927477  3.456054
H    -2.183581  1.782132  3.760126
H    -4.078166  0.631452  4.629778
H    -3.887971  -0.092787  3.039104
H    -5.628431  1.759438  2.241680
H    -5.953647  1.967097  3.953988
H    -7.584689  0.398128  3.261611
H    -6.351401  -0.619400  4.012610
H    -6.697033  -1.681877  2.021454
H    -6.827611  -0.310929  1.145697
N    -1.092437  3.257462  0.472865
C    -0.456724  4.440420  -0.070139
H    -0.749094  2.333549  0.230575
H    -0.526972  4.465456  -1.167014
H    0.602706  4.486626  0.216944
H    -0.977255  5.313668  0.338062
