33
Energy: -18208.8775831 eV PBE+vdW (tier 2 basis)
C    -0.276731  -0.159457  -0.082764
C    -0.061183  0.049551  1.399287
O    1.070927  0.175929  1.862396
H    0.481349  0.420230  -0.619763
H    -0.121361  -1.223924  -0.300631
H    -1.275520  0.101330  -0.442609
N    -1.141751  0.063525  2.253419
C    -2.583559  0.020280  2.053061
C    -3.023237  -1.095827  1.070270
O    -2.376743  -2.129189  0.940242
H    -0.833309  0.150791  3.217432
H    -2.978097  -0.377961  3.004971
C    -3.209211  1.438747  1.943642
C    -2.811974  2.390956  0.797098
C    -3.705089  2.398981  -0.466705
C    -3.199831  1.628231  -1.688816
N    -2.046982  2.306203  -2.295393
H    -2.928029  1.927478  2.888521
H    -4.309132  1.360221  2.001145
H    -1.755967  2.229578  0.533376
H    -2.832947  3.404768  1.219013
H    -3.842148  3.440390  -0.792786
H    -4.714540  2.038926  -0.203750
H    -4.001298  1.615016  -2.442968
H    -3.008203  0.570746  -1.422910
H    -1.242082  2.283053  -1.667674
H    -1.754638  1.817898  -3.141900
N    -4.227465  -0.889693  0.463524
C    -4.822162  -1.858918  -0.435877
H    -4.676963  0.010000  0.570884
H    -5.850019  -2.098098  -0.132153
H    -4.212989  -2.767637  -0.394090
H    -4.834612  -1.487704  -1.471586
