33
Energy: -18209.290314 eV PBE+vdW (tier 2 basis)
C    0.620844  -0.558857  1.575208
C    0.090466  -0.678887  2.991220
O    0.804934  -1.094149  3.906374
H    0.219246  0.298105  1.019807
H    0.391814  -1.482668  1.024315
H    1.709034  -0.467352  1.642029
N    -1.208475  -0.323156  3.235281
C    -2.272937  -0.037217  2.294801
C    -3.067480  1.167009  2.829727
O    -3.250794  1.311667  4.036708
H    -1.484224  -0.349450  4.215477
H    -1.813832  0.198503  1.327206
C    -3.262579  -1.216512  2.092280
C    -2.608062  -2.538226  1.657574
C    -2.167617  -3.445243  2.816049
C    -1.207118  -4.558494  2.392370
N    0.078590  -3.995272  1.954641
H    -4.001742  -0.898059  1.340357
H    -3.826775  -1.357495  3.028004
H    -1.740919  -2.335205  1.012146
H    -3.321887  -3.095761  1.031162
H    -3.055551  -3.897084  3.286170
H    -1.678719  -2.852241  3.603366
H    -1.635535  -5.115535  1.543168
H    -1.112234  -5.279829  3.226766
H    0.691951  -4.730167  1.604145
H    0.560919  -3.562761  2.746130
N    -3.602202  2.024527  1.912311
C    -3.416997  2.020244  0.470136
H    -4.142996  2.777288  2.326391
H    -3.768889  1.086198  0.008998
H    -2.367135  2.181551  0.182592
H    -4.006810  2.838963  0.044990
