33
Energy: -18209.13639 eV PBE+vdW (tier 2 basis)
C    0.366527  -3.244293  0.922461
C    0.599578  -1.853642  1.473852
O    1.711920  -1.479036  1.841582
H    -0.624170  -3.659950  1.137126
H    0.482150  -3.213294  -0.170569
H    1.144141  -3.900163  1.324412
N    -0.462293  -0.978134  1.533762
C    -1.878811  -1.161540  1.204191
C    -2.530181  -2.318292  2.004210
O    -3.101868  -3.253091  1.446496
H    -0.173880  -0.060214  1.857455
H    -2.364084  -0.236032  1.558506
C    -2.172785  -1.288177  -0.295821
C    -1.651880  -0.104900  -1.111644
C    -1.960528  -0.230528  -2.605055
C    -1.447899  0.950607  -3.426678
N    -1.730982  0.755466  -4.854179
H    -3.261465  -1.386707  -0.415479
H    -1.753278  -2.230329  -0.675121
H    -0.562826  -0.011049  -0.972170
H    -2.089976  0.831981  -0.723646
H    -3.051205  -0.325147  -2.747970
H    -1.519136  -1.155553  -3.007605
H    -0.354775  1.022883  -3.312871
H    -1.868471  1.889196  -3.010334
H    -2.738383  0.768091  -5.021196
H    -1.338136  1.518198  -5.405690
N    -2.451239  -2.253051  3.367041
C    -1.859246  -1.227564  4.210458
H    -2.871012  -3.057099  3.822783
H    -2.268568  -1.333274  5.221468
H    -2.119793  -0.220136  3.858401
H    -0.763979  -1.304380  4.265740
