33
Energy: -18208.833769 eV PBE+vdW (tier 2 basis)
C    0.170565  -0.235095  1.541466
C    -0.756014  -0.809713  2.594814
O    -0.482124  -1.845661  3.195505
H    -0.303932  -0.262272  0.551015
H    1.072159  -0.852322  1.517852
H    0.452012  0.802502  1.761511
N    -1.926810  -0.143768  2.876363
C    -2.554840  1.028751  2.255567
C    -3.001605  0.690681  0.800660
O    -3.875099  -0.164665  0.668378
H    -2.520220  -0.686511  3.496016
H    -3.534175  1.084084  2.753088
C    -1.851310  2.356563  2.581649
C    -2.765995  3.572697  2.398587
C    -2.039534  4.903324  2.599686
C    -2.953952  6.119031  2.460974
N    -2.186197  7.363934  2.586351
H    -0.925502  2.488719  2.008110
H    -1.539920  2.293410  3.635197
H    -3.605897  3.494776  3.109151
H    -3.229420  3.558251  1.397694
H    -1.216023  5.002202  1.874265
H    -1.567848  4.914895  3.597736
H    -3.787095  6.028774  3.187369
H    -3.413531  6.113260  1.459814
H    -2.787275  8.173076  2.430591
H    -1.816389  7.459243  3.533504
N    -2.476312  1.289229  -0.316587
C    -1.444887  2.294295  -0.533523
H    -2.929093  0.923651  -1.149558
H    -0.477724  2.004399  -0.105654
H    -1.723751  3.282857  -0.144211
H    -1.306130  2.393881  -1.615360
