33
Energy: -18209.0851611 eV PBE+vdW (tier 2 basis)
C    -0.091053  0.502785  0.832240
C    -0.702592  -0.192364  2.033233
O    -0.022242  -0.861472  2.807371
H    0.989784  0.554139  0.988372
H    -0.482993  1.512801  0.660981
H    -0.290046  -0.092307  -0.070083
N    -2.059037  -0.083373  2.229723
C    -3.066006  0.655919  1.480557
C    -3.048135  0.256655  -0.022502
O    -2.971147  -0.921495  -0.353216
H    -2.380749  -0.658056  3.001361
H    -4.029277  0.243819  1.816725
C    -3.076293  2.168935  1.796059
C    -3.078169  2.545126  3.286642
C    -4.358772  2.232344  4.079069
C    -4.480541  0.809812  4.633653
N    -5.674716  0.699130  5.478921
H    -3.966861  2.618142  1.324913
H    -2.195092  2.645001  1.335886
H    -2.902086  3.629652  3.337556
H    -2.210279  2.079473  3.779128
H    -5.253178  2.458732  3.476790
H    -4.400108  2.919981  4.940098
H    -3.534959  0.547293  5.150029
H    -4.605213  0.083428  3.816088
H    -5.799440  -0.259942  5.802504
H    -5.570927  1.275820  6.315372
N    -3.163774  1.278505  -0.918137
C    -3.197567  1.055836  -2.351416
H    -3.178988  2.229140  -0.572038
H    -4.085290  1.521103  -2.800526
H    -3.234652  -0.025899  -2.516570
H    -2.298931  1.457859  -2.841225
