33
Energy: -18209.0901751 eV PBE+vdW (tier 2 basis)
C    0.782059  -0.528724  0.590255
C    0.500314  -0.476346  2.082105
O    1.312772  -0.870916  2.913467
H    0.781461  -1.580032  0.273323
H    1.786796  -0.131754  0.406080
H    0.056966  0.022643  -0.021448
N    -0.714416  0.056647  2.424782
C    -1.290550  0.043278  3.769838
C    -0.259798  0.291493  4.900507
O    -0.206378  -0.433556  5.888804
H    -1.348012  0.287967  1.668409
H    -1.946526  0.931355  3.812507
C    -2.199063  -1.182606  4.026908
C    -1.706229  -2.563922  3.569681
C    -0.600685  -3.236292  4.395014
C    -1.016406  -3.636136  5.811504
N    -2.147895  -4.580425  5.797393
H    -3.147351  -0.980848  3.503211
H    -2.437541  -1.192252  5.098973
H    -1.379850  -2.501014  2.519120
H    -2.583013  -3.228203  3.572544
H    0.283770  -2.590002  4.457175
H    -0.279071  -4.142667  3.852180
H    -1.327280  -2.740253  6.365907
H    -0.123198  -4.025716  6.336478
H    -2.475402  -4.755558  6.747105
H    -1.847778  -5.484041  5.427220
N    0.471990  1.448098  4.849430
C    0.610933  2.414689  3.777411
H    1.138045  1.503573  5.613576
H    1.305744  2.083356  2.989410
H    0.990784  3.351874  4.201848
H    -0.358905  2.633352  3.314624
