33
Energy: -18209.2564915 eV PBE+vdW (tier 2 basis)
C    0.049693  -0.040039  1.681573
C    -0.892090  -0.888940  2.510502
O    -0.477405  -1.746220  3.286138
H    0.968605  -0.612655  1.523846
H    0.309777  0.864027  2.249908
H    -0.364070  0.273511  0.716528
N    -2.253494  -0.692963  2.367934
C    -2.984520  0.382613  1.690673
C    -2.962442  0.276026  0.142939
O    -3.225721  1.245341  -0.563995
H    -2.775103  -1.239339  3.047814
H    -4.039992  0.197811  1.945226
C    -2.642157  1.814252  2.146711
C    -2.598346  2.050859  3.661825
C    -3.934251  1.974749  4.420899
C    -4.399863  0.574233  4.829538
N    -5.592934  0.665285  5.678919
H    -3.379916  2.480576  1.679976
H    -1.676202  2.107367  1.712441
H    -2.185442  3.060174  3.806114
H    -1.870909  1.368621  4.132619
H    -4.733811  2.464994  3.843626
H    -3.832071  2.563423  5.348010
H    -3.549556  0.039949  5.300764
H    -4.689806  -0.011180  3.942752
H    -5.927197  -0.264020  5.933791
H    -5.366780  1.141721  6.553562
N    -2.691673  -0.966820  -0.340889
C    -2.672651  -1.270834  -1.757326
H    -2.458753  -1.684796  0.336653
H    -1.676654  -1.605470  -2.080294
H    -2.932711  -0.353841  -2.297030
H    -3.405161  -2.051399  -2.005569
