33
Energy: -18209.1677709 eV PBE+vdW (tier 2 basis)
C    0.757106  -1.259723  0.168239
C    0.124278  -1.567452  1.514806
O    0.269384  -2.652059  2.070911
H    0.259834  -1.870354  -0.596856
H    1.809915  -1.563081  0.195452
H    0.692108  -0.204858  -0.126728
N    -0.602186  -0.542286  2.061447
C    -1.444115  -0.642471  3.258190
C    -0.866513  -1.575040  4.354182
O    -1.543842  -2.470513  4.856204
H    -0.723341  0.292592  1.499968
H    -1.431462  0.364442  3.712667
C    -2.906778  -0.981017  2.936154
C    -3.127674  -2.254612  2.103239
C    -4.574224  -2.776449  2.171234
C    -4.848883  -3.734764  3.336297
N    -4.650747  -3.111262  4.651944
H    -3.343526  -0.120511  2.401729
H    -3.449454  -1.052882  3.887448
H    -2.440364  -3.044326  2.438186
H    -2.861680  -2.046536  1.055367
H    -4.806064  -3.319281  1.241472
H    -5.278976  -1.929981  2.224352
H    -4.227024  -4.641722  3.187050
H    -5.898134  -4.061833  3.274026
H    -5.028143  -3.716612  5.380397
H    -3.650122  -3.013072  4.849091
N    0.363002  -1.269759  4.866000
C    1.346448  -0.315611  4.391522
H    0.672489  -1.959023  5.544365
H    1.930544  -0.694547  3.538080
H    2.037347  -0.089311  5.212424
H    0.868813  0.625629  4.094502
