33
Energy: -18209.5430212 eV PBE+vdW (tier 2 basis)
C    1.229784  -1.291605  0.623021
C    0.907384  -0.806824  2.018441
O    1.751997  -0.819102  2.926788
H    0.611979  -0.816925  -0.150285
H    1.047765  -2.378640  0.589808
H    2.287262  -1.105701  0.412052
N    -0.380509  -0.407617  2.210208
C    -1.063856  -0.151313  3.490386
C    -0.658124  1.169108  4.194877
O    -1.534947  1.930400  4.607799
H    -0.973482  -0.401850  1.389897
H    -2.113869  0.022433  3.221864
C    -1.011564  -1.330148  4.486928
C    -1.867259  -2.555325  4.122502
C    -1.439627  -3.384290  2.901170
C    -0.057307  -4.025816  3.022167
N    0.350118  -4.622250  1.739733
H    -1.382366  -0.934071  5.443967
H    0.035501  -1.612338  4.660511
H    -2.909225  -2.226945  3.977047
H    -1.888079  -3.216162  5.004722
H    -1.460203  -2.775957  1.985874
H    -2.188842  -4.179472  2.747423
H    -0.070048  -4.746568  3.864126
H    0.693926  -3.265416  3.276527
H    1.275976  -5.042783  1.824013
H    -0.285407  -5.379242  1.481346
N    0.673446  1.363513  4.349219
C    1.216072  2.527783  5.018820
H    1.297777  0.633668  3.983997
H    1.898142  3.080441  4.357287
H    1.766351  2.242847  5.927379
H    0.382108  3.179783  5.299969
