33
Energy: -18209.5603371 eV PBE+vdW (tier 2 basis)
C    1.052682  2.078488  1.445164
C    0.216342  1.231178  2.381478
O    0.077494  1.524183  3.575405
H    0.640839  3.095358  1.431186
H    1.090882  1.695628  0.418018
H    2.073124  2.144170  1.842305
N    -0.377007  0.137760  1.827633
C    -1.253168  -0.760530  2.583062
C    -0.390836  -1.795707  3.359699
O    -0.232412  -2.951298  2.968443
H    -0.169622  -0.102880  0.864982
H    -1.775988  -0.126956  3.315674
C    -2.262043  -1.434802  1.659013
C    -3.391523  -2.127494  2.426878
C    -4.331692  -2.949889  1.536647
C    -5.058480  -2.165524  0.439816
N    -5.817409  -1.038499  0.999577
H    -1.732110  -2.172727  1.034869
H    -2.682149  -0.662922  0.996800
H    -3.973900  -1.366297  2.967399
H    -2.956313  -2.800496  3.179744
H    -5.083068  -3.441225  2.177878
H    -3.767032  -3.766543  1.058744
H    -5.677625  -2.876708  -0.141475
H    -4.326035  -1.748451  -0.268689
H    -6.559955  -1.381535  1.611380
H    -6.276302  -0.510637  0.257611
N    0.165902  -1.277898  4.486789
C    1.111533  -2.019908  5.296989
H    0.088471  -0.264451  4.602171
H    0.901591  -1.868414  6.363565
H    2.150333  -1.714971  5.096324
H    1.009474  -3.083002  5.054919
