33
Energy: -18209.4578859 eV PBE+vdW (tier 2 basis)
C    -1.959743  1.389896  -1.059519
C    -1.071069  0.878973  0.056759
O    0.154443  0.870256  -0.015865
H    -2.559857  2.249408  -0.728174
H    -2.665905  0.620328  -1.401849
H    -1.319909  1.695771  -1.890826
N    -1.708221  0.434621  1.198821
C    -3.143122  0.256961  1.392566
C    -3.870939  1.548730  1.815840
O    -5.098588  1.649674  1.714807
H    -1.076265  0.009914  1.873484
H    -3.611343  -0.047464  0.443523
C    -3.385894  -0.861140  2.430744
C    -4.797105  -1.463552  2.457050
C    -5.170145  -2.298066  1.206328
C    -6.232582  -1.691128  0.284000
N    -5.770996  -0.470291  -0.391778
H    -3.127273  -0.478820  3.432111
H    -2.667281  -1.666208  2.205348
H    -5.536834  -0.666620  2.620210
H    -4.850226  -2.106666  3.347327
H    -5.545985  -3.279061  1.533820
H    -4.267263  -2.503397  0.608334
H    -7.162539  -1.539672  0.868753
H    -6.472235  -2.432559  -0.492873
H    -6.399548  -0.239655  -1.160600
H    -5.793939  0.326173  0.255250
N    -3.078057  2.527100  2.319716
C    -3.587687  3.804009  2.777052
H    -2.077491  2.357453  2.294276
H    -3.340436  3.973094  3.834151
H    -4.676921  3.788052  2.663602
H    -3.177832  4.631757  2.181563
