33
Energy: -18209.4503781 eV PBE+vdW (tier 2 basis)
C    -0.737977  -0.076932  0.613924
C    -0.543934  0.089310  2.106478
O    0.108109  1.031965  2.576282
H    -1.323495  -0.963541  0.341646
H    0.245634  -0.133131  0.131606
H    -1.242134  0.816512  0.224554
N    -1.125997  -0.857169  2.889871
C    -1.128841  -0.807224  4.355423
C    0.192087  -1.364914  4.962629
O    0.239289  -2.350678  5.698981
H    -1.599787  -1.633542  2.444532
H    -1.141455  0.266338  4.604162
C    -2.400977  -1.433249  4.944876
C    -2.631572  -2.951812  4.836604
C    -2.743674  -3.549065  3.429619
C    -3.265147  -5.000891  3.414040
N    -4.641710  -5.227326  3.856368
H    -3.255312  -0.897929  4.498103
H    -2.405556  -1.175136  6.013679
H    -3.573083  -3.152126  5.374625
H    -1.835768  -3.471081  5.385669
H    -1.751821  -3.561248  2.943880
H    -3.412249  -2.933663  2.797977
H    -2.607970  -5.623974  4.040547
H    -3.176256  -5.397984  2.391307
H    -4.763217  -4.969476  4.835427
H    -5.295800  -4.658247  3.317297
N    1.280614  -0.632505  4.620796
C    2.615146  -0.998029  5.055410
H    1.138071  0.158413  3.985520
H    2.958469  -1.929324  4.580223
H    2.638032  -1.151429  6.142197
H    3.305280  -0.189915  4.791748
