33
Energy: -18209.1822443 eV PBE+vdW (tier 2 basis)
C    -0.316320  -0.062252  -0.531973
C    0.085598  -0.069017  0.933078
O    1.263134  -0.127853  1.279611
H    -0.948340  0.796645  -0.793157
H    -0.868515  -0.973395  -0.797215
H    0.601628  -0.020560  -1.123842
N    -0.912484  -0.005371  1.875975
C    -2.365469  -0.014486  1.706920
C    -2.930653  1.089966  2.630527
O    -3.335095  0.834440  3.762619
H    -0.566019  -0.062719  2.831750
H    -2.575358  0.239044  0.658953
C    -3.008746  -1.366738  2.041549
C    -2.561976  -2.509770  1.127751
C    -3.219585  -3.858315  1.448727
C    -2.834128  -4.441815  2.809215
N    -3.440596  -5.766730  2.987314
H    -4.102224  -1.246598  1.982094
H    -2.793849  -1.590827  3.095534
H    -1.466685  -2.621322  1.182016
H    -2.794015  -2.250080  0.081548
H    -2.933868  -4.581368  0.666398
H    -4.316521  -3.773621  1.398440
H    -3.216092  -3.798658  3.615653
H    -1.728184  -4.436368  2.900012
H    -3.030175  -6.436182  2.334458
H    -3.253304  -6.124407  3.923761
N    -2.929444  2.368714  2.147617
C    -2.353589  2.862412  0.908185
H    -3.231031  3.051900  2.835630
H    -2.785143  2.360119  0.031048
H    -1.259523  2.749387  0.878829
H    -2.589152  3.928083  0.819028
