33
Energy: -18209.5183675 eV PBE+vdW (tier 2 basis)
C    0.697342  0.737217  0.495062
C    0.349871  0.383735  1.925864
O    1.178740  0.472597  2.839409
H    -0.135525  0.607803  -0.206785
H    1.540219  0.114340  0.171166
H    1.031300  1.781819  0.463143
N    -0.930737  -0.027214  2.145132
C    -1.431678  -0.376190  3.477613
C    -1.054115  -1.851852  3.790728
O    -1.860884  -2.778233  3.698726
H    -1.548119  -0.168128  1.353384
H    -0.885620  0.274108  4.177777
C    -2.936014  -0.104243  3.567160
C    -3.520414  0.109346  4.976321
C    -3.556342  -1.123471  5.898294
C    -2.294436  -1.319928  6.759900
N    -2.109519  -2.653039  7.339773
H    -3.469807  -0.931993  3.074089
H    -3.130400  0.808554  2.982946
H    -4.547981  0.475399  4.833661
H    -2.982434  0.935101  5.474013
H    -3.706323  -2.024957  5.286010
H    -4.426932  -1.051356  6.569577
H    -2.293394  -0.586379  7.582046
H    -1.390945  -1.099999  6.173633
H    -2.097868  -3.344345  6.586547
H    -2.904502  -2.894419  7.934087
N    0.244733  -1.996753  4.154722
C    0.838499  -3.285597  4.451519
H    0.837489  -1.168231  4.073503
H    1.769294  -3.420673  3.885295
H    0.125598  -4.066740  4.166339
H    1.058194  -3.384701  5.524649
