33
Energy: -18209.4087182 eV PBE+vdW (tier 2 basis)
C    1.734213  0.058129  0.561787
C    0.880673  0.077420  1.816283
O    0.073986  0.980435  2.049705
H    2.223360  1.032861  0.450921
H    1.077151  -0.081055  -0.307035
H    2.493439  -0.733488  0.559418
N    1.048996  -0.985463  2.649891
C    0.325368  -1.118892  3.897263
C    1.139647  -2.088045  4.765518
O    1.980878  -2.836967  4.260819
H    1.765482  -1.691303  2.494082
H    0.286617  -0.121476  4.364431
C    -1.143263  -1.591353  3.715702
C    -1.368057  -3.070664  3.369185
C    -0.877242  -3.560626  1.996562
C    -1.431245  -2.798528  0.790300
N    -2.898999  -2.886687  0.718885
H    -1.581402  -0.928404  2.956017
H    -1.687437  -1.367725  4.645131
H    -2.449731  -3.266585  3.445512
H    -0.907989  -3.703359  4.145208
H    -1.166241  -4.617979  1.895315
H    0.221020  -3.532036  1.958311
H    -1.031212  -3.264150  -0.122411
H    -1.055416  -1.757823  0.798411
H    -3.328013  -2.301462  1.436910
H    -3.228142  -2.516732  -0.172790
N    0.887694  -2.116964  6.103199
C    -0.036273  -1.309061  6.879888
H    1.419949  -2.831480  6.590738
H    0.362474  -1.184947  7.893642
H    -1.035631  -1.764688  6.953713
H    -0.142035  -0.309986  6.442142
