33
Energy: -18209.4142366 eV PBE+vdW (tier 2 basis)
C    0.276251  -3.331035  2.336106
C    -0.202583  -2.392838  3.427947
O    -0.228365  -2.726486  4.612442
H    0.232260  -2.895484  1.330560
H    -0.335158  -4.241450  2.362130
H    1.310563  -3.625853  2.552824
N    -0.576949  -1.147586  3.001553
C    -1.207823  -0.188892  3.886718
C    -2.440360  0.364261  3.159715
O    -2.480678  0.411626  1.928330
H    -0.725448  -0.967893  2.010778
H    -1.485825  -0.740396  4.797239
C    -0.268230  0.978266  4.270215
C    0.953380  0.528428  5.075320
C    1.929681  1.661508  5.412352
C    1.372757  2.720194  6.365064
N    2.399922  3.720774  6.679427
H    -0.849202  1.720476  4.839033
H    0.050942  1.481649  3.343126
H    1.489132  -0.243721  4.505055
H    0.618015  0.032877  6.000940
H    2.272474  2.160255  4.491844
H    2.829842  1.219771  5.871798
H    0.952553  2.210250  7.257140
H    0.536773  3.254069  5.887558
H    2.021594  4.448799  7.285249
H    3.169686  3.288059  7.192420
N    -3.461713  0.836374  3.927902
C    -3.589544  0.784429  5.375910
H    -4.222413  1.239991  3.390697
H    -4.608418  1.083271  5.643098
H    -2.892603  1.466808  5.885255
H    -3.426971  -0.230880  5.761841
