33
Energy: -18209.5187814 eV PBE+vdW (tier 2 basis)
C    -0.593742  1.060152  0.966600
C    -0.682277  -0.158786  1.859955
O    0.093679  -1.115945  1.737512
H    -0.644085  0.739242  -0.080778
H    0.385315  1.533187  1.117002
H    -1.378567  1.802862  1.154575
N    -1.655102  -0.132313  2.809796
C    -1.822856  -1.172154  3.828012
C    -2.677766  -2.346931  3.266841
O    -3.812594  -2.592590  3.670970
H    -2.287065  0.659130  2.846064
H    -0.813454  -1.569102  4.024997
C    -2.420281  -0.598015  5.113306
C    -1.415914  0.066949  6.063610
C    -0.717260  1.328464  5.545760
C    0.182348  2.013840  6.590002
N    1.359547  1.273477  7.051986
H    -2.924157  -1.424320  5.631408
H    -3.230663  0.104896  4.855010
H    -0.658529  -0.682814  6.347821
H    -1.950101  0.321132  6.994566
H    -1.478524  2.056595  5.212787
H    -0.107510  1.093910  4.658258
H    -0.418037  2.266993  7.478924
H    0.535615  2.972541  6.180293
H    1.089303  0.408734  7.520459
H    1.949388  1.005748  6.262580
N    -2.028982  -3.052253  2.303679
C    -2.653541  -4.138758  1.576022
H    -1.114607  -2.697893  2.009469
H    -2.871502  -3.856668  0.534885
H    -3.595219  -4.387159  2.076847
H    -2.003859  -5.024153  1.569784
