33
Energy: -18208.9365762 eV PBE+vdW (tier 2 basis)
C    0.166891  0.861545  0.269169
C    0.299408  -0.160601  1.375197
O    1.376256  -0.689998  1.641146
H    -0.551928  0.517907  -0.484090
H    1.151367  0.980154  -0.190702
H    -0.164817  1.836201  0.650777
N    -0.805138  -0.485851  2.143494
C    -2.232455  -0.222197  2.009201
C    -2.860101  -0.989471  0.819670
O    -2.221375  -1.290831  -0.183138
H    -0.566286  -1.232389  2.789608
H    -2.656300  -0.656100  2.925271
C    -2.632851  1.288593  2.016923
C    -3.134948  1.898219  0.703659
C    -3.317362  3.414722  0.806293
C    -3.883839  4.055696  -0.461917
N    -2.949779  3.936731  -1.588955
H    -1.756466  1.846672  2.375154
H    -3.406029  1.434482  2.786486
H    -4.095386  1.438149  0.416242
H    -2.431732  1.664209  -0.106702
H    -2.347531  3.886062  1.033115
H    -3.991252  3.647962  1.647704
H    -4.038130  5.128591  -0.276456
H    -4.886455  3.624614  -0.665311
H    -2.911155  2.977022  -1.932997
H    -3.261266  4.508931  -2.372968
N    -4.182035  -1.330418  0.942910
C    -5.119652  -0.979689  1.995174
H    -4.552958  -1.772829  0.107234
H    -4.688426  -1.150851  2.990091
H    -6.001031  -1.624372  1.908235
H    -5.456195  0.068145  1.938919
