33
Energy: -18208.997714 eV PBE+vdW (tier 2 basis)
C    -0.869823  -2.601763  1.166134
C    -0.062191  -1.464091  1.746597
O    1.160436  -1.550756  1.890045
H    -1.895784  -2.630319  1.544448
H    -0.351310  -3.532358  1.417673
H    -0.879169  -2.517954  0.069585
N    -0.686443  -0.296007  2.123901
C    -2.008980  0.267228  1.866912
C    -3.089348  -0.321424  2.803120
O    -3.093497  -1.495106  3.160870
H    -0.005999  0.358226  2.497494
H    -1.896211  1.332571  2.117526
C    -2.501312  0.209045  0.399952
C    -1.775172  1.112708  -0.611059
C    -0.298173  0.784069  -0.906682
C    0.713223  1.638959  -0.131772
N    2.037420  1.021886  -0.166104
H    -3.566665  0.488690  0.405220
H    -2.481636  -0.833754  0.055781
H    -1.861522  2.164171  -0.285080
H    -2.349083  1.052220  -1.547601
H    -0.092719  0.906537  -1.979349
H    -0.098133  -0.276223  -0.695101
H    0.329474  1.824302  0.893977
H    0.780770  2.631404  -0.605197
H    2.741868  1.647816  0.222507
H    2.045615  0.173749  0.407105
N    -4.082887  0.538575  3.190026
C    -4.197904  1.966200  2.939360
H    -4.780984  0.099406  3.781765
H    -4.243773  2.200245  1.865890
H    -3.372143  2.539216  3.388200
H    -5.129910  2.320731  3.391875
