33
Energy: -18209.0913109 eV PBE+vdW (tier 2 basis)
C    -0.036637  0.634438  0.366983
C    -0.398878  -0.280183  1.526320
O    0.305984  -1.244384  1.823946
H    0.969053  1.036504  0.540412
H    -0.733565  1.467392  0.212826
H    0.005871  0.033052  -0.549643
N    -1.552600  0.059284  2.178244
C    -2.227960  -0.608434  3.303272
C    -1.978386  0.163221  4.630360
O    -2.902057  0.834636  5.101335
H    -2.004067  0.912841  1.870936
H    -3.295279  -0.402064  3.139186
C    -2.077151  -2.142884  3.333730
C    -3.265752  -2.865298  3.993791
C    -3.516939  -2.596729  5.485927
C    -2.371561  -3.014660  6.419293
N    -2.563840  -2.716374  7.843145
H    -1.132022  -2.447948  3.795156
H    -2.010155  -2.482875  2.291556
H    -3.110240  -3.946763  3.847203
H    -4.182230  -2.617675  3.433470
H    -4.426973  -3.142913  5.785231
H    -3.741716  -1.531483  5.649554
H    -1.435811  -2.526216  6.111602
H    -2.189694  -4.097391  6.322752
H    -3.403778  -3.183300  8.189767
H    -2.730766  -1.715541  7.964845
N    -0.769234  0.123385  5.254311
C    0.470910  -0.558930  4.921410
H    -0.774030  0.681579  6.104148
H    1.307838  0.151611  4.965310
H    0.439488  -0.970558  3.907758
H    0.676103  -1.376397  5.630085
