33
Energy: -18209.3079448 eV PBE+vdW (tier 2 basis)
C    1.131673  -0.523529  0.175739
C    0.806961  -0.435025  1.655886
O    1.623903  -0.720920  2.526795
H    0.327825  -0.163329  -0.478509
H    1.347095  -1.570811  -0.071599
H    2.042129  0.054628  -0.021657
N    -0.463567  -0.013658  1.953549
C    -0.958569  0.033460  3.328759
C    -2.456771  -0.328516  3.318411
O    -2.854817  -1.453628  3.600196
H    -1.112445  0.169227  1.197539
H    -0.461106  -0.783144  3.868946
C    -0.616924  1.360270  4.028207
C    -1.047344  1.394789  5.495775
C    -0.759791  2.736906  6.173366
C    -1.131015  2.775304  7.656882
N    -2.578566  2.607845  7.858517
H    -1.060722  2.210226  3.478742
H    0.471931  1.495928  3.951408
H    -0.529697  0.586400  6.039091
H    -2.124803  1.172464  5.565500
H    -1.312925  3.536610  5.654386
H    0.312588  2.972123  6.075112
H    -0.855239  3.758899  8.063837
H    -0.519379  2.026898  8.200404
H    -2.851870  1.634846  7.717911
H    -2.828908  2.833739  8.820743
N    -3.290017  0.682338  2.916938
C    -4.733672  0.532609  2.886939
H    -2.902658  1.617098  2.853920
H    -5.148785  0.987646  1.978686
H    -5.210139  0.992717  3.765706
H    -4.957837  -0.539026  2.892203
