33
Energy: -18209.0756905 eV PBE+vdW (tier 2 basis)
C    0.404493  2.510265  0.897335
C    0.432526  1.219329  1.694224
O    1.491868  0.732042  2.080808
H    1.439992  2.787628  0.683779
H    -0.065614  3.319641  1.471460
H    -0.141645  2.396740  -0.047835
N    -0.756796  0.598771  2.008946
C    -2.141482  0.853482  1.592050
C    -2.338406  0.491969  0.095083
O    -2.319094  -0.683752  -0.257689
H    -0.592640  -0.298929  2.454634
H    -2.710842  0.063614  2.098838
C    -2.708041  2.198231  2.080997
C    -4.241885  2.299712  2.034165
C    -4.975957  1.339568  2.975078
C    -6.489978  1.546914  2.966443
N    -7.144901  0.627398  3.903809
H    -2.270778  3.042095  1.524597
H    -2.364304  2.330378  3.118351
H    -4.601537  2.145783  1.003449
H    -4.518535  3.333577  2.295706
H    -4.609475  1.460982  4.006489
H    -4.767050  0.293818  2.693660
H    -6.858417  1.464212  1.923303
H    -6.716315  2.573284  3.295957
H    -8.145845  0.816649  3.952306
H    -7.049356  -0.336905  3.581560
N    -2.506269  1.530812  -0.773284
C    -2.680659  1.339355  -2.200799
H    -2.536874  2.471447  -0.400356
H    -3.656191  1.717178  -2.537721
H    -2.627199  0.263333  -2.396268
H    -1.887953  1.845885  -2.768886
