33
Energy: -18209.3913872 eV PBE+vdW (tier 2 basis)
C    0.821885  -0.246963  1.006270
C    0.324057  -0.629452  2.388700
O    1.054526  -0.616214  3.373825
H    0.099170  -0.442748  0.203907
H    1.749020  -0.793725  0.798453
H    1.067208  0.823146  1.006662
N    -0.999251  -1.005876  2.450530
C    -1.699232  -1.204876  3.715615
C    -2.052218  -2.680705  4.012107
O    -2.796846  -2.974232  4.945165
H    -1.565295  -0.872165  1.619589
H    -0.970337  -0.923674  4.492193
C    -2.939373  -0.308504  3.846471
C    -4.029471  -0.587214  2.805833
C    -5.315369  0.237639  2.967624
C    -6.125360  -0.038132  4.242501
N    -5.571602  0.664316  5.409773
H    -2.616086  0.742195  3.786297
H    -3.349461  -0.450073  4.852085
H    -4.294689  -1.656981  2.840172
H    -3.644285  -0.400776  1.786684
H    -5.963889  0.032786  2.101540
H    -5.080422  1.315108  2.918597
H    -6.094981  -1.116847  4.461605
H    -7.186348  0.211882  4.045950
H    -5.753177  1.666381  5.340240
H    -6.021549  0.345340  6.267461
N    -1.468865  -3.598173  3.193099
C    -1.600088  -5.025535  3.400204
H    -0.828737  -3.244581  2.491244
H    -1.929219  -5.528809  2.480806
H    -2.351853  -5.177975  4.182393
H    -0.651862  -5.474561  3.730404
