33
Energy: -18209.3796604 eV PBE+vdW (tier 2 basis)
C    -1.140391  -1.994845  0.145547
C    -1.134298  -0.868121  1.160781
O    -0.117816  -0.558432  1.783963
H    -2.104655  -2.130899  -0.359278
H    -0.868128  -2.928067  0.654376
H    -0.367536  -1.794296  -0.606437
N    -2.326484  -0.215979  1.316892
C    -2.522301  0.837900  2.308646
C    -3.294798  0.208023  3.488367
O    -4.488623  -0.074772  3.367129
H    -3.159128  -0.601919  0.884262
H    -1.512525  1.146928  2.603829
C    -3.276654  2.030302  1.702850
C    -3.160188  3.340314  2.493587
C    -3.785273  3.337616  3.892159
C    -3.808621  4.725337  4.529206
N    -4.304699  4.655073  5.909959
H    -4.335331  1.750763  1.584248
H    -2.865608  2.189533  0.695198
H    -3.636144  4.133153  1.893760
H    -2.096162  3.622581  2.569994
H    -3.238851  2.665506  4.570170
H    -4.812880  2.940765  3.835346
H    -4.389464  5.410036  3.877813
H    -2.783124  5.126873  4.566135
H    -5.274695  4.335258  5.919651
H    -4.302941  5.580475  6.339120
N    -2.600879  -0.072539  4.624430
C    -1.211720  0.235024  4.941481
H    -3.179095  -0.475018  5.356153
H    -0.904482  -0.394032  5.784332
H    -1.074651  1.287858  5.235816
H    -0.554757  0.005265  4.093641
