33
Energy: -18209.4727832 eV PBE+vdW (tier 2 basis)
C    0.756493  0.092061  -0.263714
C    0.390155  0.328119  1.188313
O    1.249784  0.649225  2.019189
H    1.263183  0.984978  -0.649407
H    -0.099001  -0.143197  -0.908339
H    1.474148  -0.736895  -0.310941
N    -0.926336  0.164517  1.495940
C    -1.549760  0.234751  2.828590
C    -1.624848  1.663408  3.428677
O    -2.714999  2.125459  3.771495
H    -1.550773  -0.041139  0.726401
H    -2.602879  -0.017880  2.658519
C    -0.944285  -0.792490  3.807858
C    -1.608654  -0.812068  5.191925
C    -3.107588  -1.154595  5.225048
C    -3.490072  -2.483725  4.570898
N    -2.857553  -3.625659  5.246535
H    0.127807  -0.588860  3.925233
H    -1.019201  -1.780849  3.326224
H    -1.467880  0.167327  5.674151
H    -1.053734  -1.525806  5.820890
H    -3.682012  -0.346219  4.747905
H    -3.428554  -1.184046  6.277105
H    -3.275012  -2.440889  3.482461
H    -4.578743  -2.612710  4.659001
H    -3.202628  -4.504388  4.860936
H    -1.848322  -3.624271  5.094704
N    -0.435653  2.295301  3.579229
C    -0.328740  3.630713  4.131275
H    0.394230  1.820288  3.205776
H    0.354716  3.644368  4.991742
H    -1.324967  3.945203  4.459852
H    0.040958  4.344745  3.380882
