33
Energy: -18209.4033067 eV PBE+vdW (tier 2 basis)
C    -0.447851  0.508228  -0.321464
C    -0.144521  -0.178636  0.995488
O    0.980178  -0.569334  1.297174
H    0.494397  0.653196  -0.855703
H    -0.942230  1.478541  -0.176508
H    -1.117799  -0.111478  -0.934667
N    -1.201454  -0.338973  1.865759
C    -2.610855  -0.055871  1.611686
C    -2.999931  1.418865  1.833217
O    -4.021771  1.884081  1.327329
H    -0.970849  -0.908546  2.676598
H    -2.842074  -0.278157  0.561894
C    -3.455403  -1.011726  2.477470
C    -4.979836  -0.919338  2.334835
C    -5.574790  -1.159244  0.937834
C    -5.204829  -2.484922  0.261203
N    -3.898354  -2.404197  -0.421178
H    -3.194370  -0.844945  3.536712
H    -3.119146  -2.026789  2.218131
H    -5.322711  0.064719  2.684630
H    -5.409593  -1.658796  3.030794
H    -5.307853  -0.322355  0.273257
H    -6.670125  -1.116224  1.038028
H    -6.024012  -2.780314  -0.421148
H    -5.134249  -3.282067  1.018703
H    -3.599031  -3.330354  -0.727516
H    -3.991973  -1.843670  -1.269989
N    -2.156420  2.129224  2.630457
C    -2.362432  3.527517  2.947223
H    -1.303855  1.662410  2.922105
H    -2.422189  3.683598  4.033316
H    -3.309245  3.834578  2.489567
H    -1.552796  4.153179  2.545053
