33
Energy: -18209.4709455 eV PBE+vdW (tier 2 basis)
C    -0.203152  0.922956  -0.101828
C    -0.265779  0.980627  1.412573
O    0.532714  1.643641  2.078054
H    -0.330547  1.937953  -0.498636
H    -0.959912  0.267056  -0.549178
H    0.794363  0.577941  -0.400171
N    -1.266830  0.254986  1.987604
C    -1.433352  0.188440  3.426879
C    -1.984079  -1.205729  3.748567
O    -2.799174  -1.758388  3.008132
H    -1.893168  -0.328087  1.439381
H    -0.436489  0.322646  3.867056
C    -2.385368  1.304353  3.931065
C    -2.470064  1.504953  5.453251
C    -1.387599  2.400582  6.073606
C    0.057382  1.911172  5.947108
N    0.953741  2.776240  6.716701
H    -3.383652  1.082117  3.525191
H    -2.051943  2.239559  3.456776
H    -2.492711  0.528917  5.965896
H    -3.444632  1.963824  5.676385
H    -1.618450  2.523746  7.145559
H    -1.443220  3.409702  5.636790
H    0.382739  1.958358  4.897671
H    0.105927  0.839556  6.251746
H    0.812102  2.652538  7.719698
H    1.929806  2.557723  6.521661
N    -1.520364  -1.753992  4.904130
C    -1.976660  -3.033480  5.413014
H    -0.829515  -1.230604  5.430037
H    -2.456486  -2.922725  6.395557
H    -1.143967  -3.744629  5.501563
H    -2.708280  -3.429465  4.701139
