33
Energy: -18208.8540933 eV PBE+vdW (tier 2 basis)
C    -0.520279  -0.280477  1.033320
C    -1.046489  -0.641184  2.409655
O    -0.429251  -1.392395  3.160263
H    0.454135  -0.760486  0.912842
H    -0.399872  0.804084  0.911993
H    -1.195301  -0.640973  0.245190
N    -2.246860  -0.102603  2.809793
C    -3.196418  0.747948  2.089481
C    -3.732909  0.009138  0.826374
O    -4.270987  -1.082319  0.997526
H    -2.562106  -0.496114  3.690084
H    -4.097504  0.730818  2.722024
C    -2.763760  2.222688  2.020989
C    -2.549862  2.833386  3.408804
C    -2.185943  4.319735  3.352773
C    -1.978003  4.962764  4.725512
N    -0.792735  4.420105  5.402380
H    -3.546878  2.791283  1.495501
H    -1.841795  2.344656  1.436027
H    -1.755927  2.269092  3.920504
H    -3.466161  2.702844  4.011652
H    -2.983885  4.870465  2.827410
H    -1.263308  4.451716  2.765003
H    -2.913666  4.864411  5.314210
H    -1.809496  6.040625  4.586924
H    -0.575318  4.967869  6.234226
H    -0.959150  3.466604  5.724788
N    -3.676777  0.541627  -0.435762
C    -2.998280  1.698979  -1.001782
H    -4.131718  -0.081381  -1.096958
H    -3.475522  2.649153  -0.726015
H    -3.043837  1.607817  -2.092358
H    -1.939205  1.741759  -0.720163
