33
Energy: -18209.0702307 eV PBE+vdW (tier 2 basis)
C    -0.023944  -0.054752  0.053378
C    0.012091  0.058113  1.563007
O    1.069672  0.138645  2.185255
H    0.962712  0.227223  -0.323533
H    -0.794779  0.568554  -0.413300
H    -0.227099  -1.093496  -0.243543
N    -1.179320  0.031515  2.255451
C    -2.567777  0.010764  1.788621
C    -2.827804  -1.119416  0.760716
O    -3.228137  -0.888792  -0.378013
H    -1.034444  0.125609  3.256623
H    -3.152943  -0.259880  2.681217
C    -3.075790  1.367402  1.271881
C    -4.608853  1.523284  1.277976
C    -5.203660  2.153103  2.547458
C    -5.033829  1.347514  3.845414
N    -5.697809  1.886553  5.036068
H    -2.701101  1.505497  0.249904
H    -2.614924  2.151206  1.891907
H    -5.082296  0.547180  1.086160
H    -4.896589  2.148873  0.421420
H    -6.282984  2.311903  2.385082
H    -4.768860  3.157057  2.695034
H    -3.965269  1.248923  4.095235
H    -5.409510  0.321953  3.690745
H    -6.698878  1.994190  4.864268
H    -5.343301  2.820766  5.246947
N    -2.603996  -2.398357  1.186986
C    -2.139893  -2.864302  2.483676
H    -2.766697  -3.090869  0.462868
H    -2.656092  -2.345561  3.302643
H    -1.056974  -2.731013  2.618497
H    -2.376084  -3.930496  2.573170
