33
Energy: -18209.0703563 eV PBE+vdW (tier 2 basis)
C    0.226707  -0.192910  0.526511
C    0.075838  0.194086  1.982491
O    1.044224  0.439123  2.699198
H    -0.471400  0.336130  -0.132341
H    0.042797  -1.267901  0.391772
H    1.255853  0.025350  0.229959
N    -1.192946  0.247852  2.518640
C    -2.505790  0.048621  1.896045
C    -2.594828  -1.336229  1.204791
O    -2.805306  -1.462668  -0.001638
H    -1.181984  0.543624  3.490057
H    -3.205723  0.006700  2.747085
C    -2.957166  1.203130  0.977539
C    -4.441004  1.584361  1.126065
C    -5.492012  0.539700  0.708332
C    -5.869575  0.526486  -0.786932
N    -4.813460  0.287990  -1.772538
H    -2.723815  0.941141  -0.061455
H    -2.346919  2.078215  1.240736
H    -4.615933  2.511116  0.554293
H    -4.610862  1.858457  2.181011
H    -6.419731  0.733626  1.271854
H    -5.174052  -0.471996  1.006302
H    -6.348856  1.486003  -1.040455
H    -6.647264  -0.242160  -0.928342
H    -4.221601  1.112247  -1.870027
H    -4.200841  -0.469828  -1.462810
N    -2.432457  -2.431092  2.002105
C    -2.162605  -2.497445  3.429215
H    -2.466983  -3.304417  1.485557
H    -2.395396  -3.509634  3.777842
H    -2.803705  -1.803650  3.989256
H    -1.113847  -2.273413  3.670493
