33
Energy: -18209.0706018 eV PBE+vdW (tier 2 basis)
C    0.610560  1.739891  0.938175
C    0.344843  0.273915  1.226019
O    1.255625  -0.551409  1.224459
H    0.424392  2.357400  1.826657
H    -0.017174  2.115731  0.119613
H    1.662270  1.833777  0.655414
N    -0.938530  -0.127486  1.523045
C    -2.226835  0.575238  1.450221
C    -2.663816  0.730864  -0.031903
O    -2.997713  -0.256586  -0.680990
H    -0.999256  -1.139424  1.587410
H    -2.947948  -0.160634  1.834892
C    -2.334505  1.810289  2.357895
C    -3.791425  2.180523  2.666230
C    -3.995599  3.488386  3.443858
C    -3.464553  3.516523  4.881946
N    -1.999156  3.642631  4.930630
H    -1.813720  2.684636  1.934722
H    -1.796362  1.600326  3.290440
H    -4.255502  1.353698  3.230178
H    -4.361130  2.250680  1.724977
H    -5.076023  3.697044  3.481742
H    -3.551569  4.330076  2.882644
H    -3.732684  2.572650  5.382870
H    -3.990073  4.320619  5.432853
H    -1.665056  3.548991  5.889855
H    -1.717248  4.573684  4.620069
N    -2.624610  1.990951  -0.553665
C    -2.978238  2.280772  -1.930151
H    -2.366535  2.755651  0.057602
H    -3.848354  2.950036  -1.987353
H    -3.227901  1.329367  -2.411474
H    -2.138100  2.743467  -2.466701
