33
Energy: -18209.4433064 eV PBE+vdW (tier 2 basis)
C    -0.575636  1.600590  -0.371438
C    -0.525109  0.982068  1.012366
O    0.489933  0.434392  1.444707
H    0.192777  2.381042  -0.436932
H    -1.549788  2.036803  -0.623272
H    -0.322614  0.830200  -1.110160
N    -1.674155  1.101058  1.744614
C    -1.852405  0.433239  3.018831
C    -3.173291  -0.345696  2.946766
O    -4.087840  0.035485  2.212553
H    -2.542076  1.365460  1.283379
H    -0.991026  -0.238785  3.137600
C    -1.914714  1.425794  4.205354
C    -0.658562  2.288861  4.387302
C    0.649537  1.545213  4.688199
C    0.633858  0.694000  5.956267
N    1.984335  0.192696  6.245488
H    -2.125267  0.860716  5.126190
H    -2.784817  2.081506  4.045790
H    -0.864735  3.006428  5.198349
H    -0.513880  2.894424  3.480015
H    1.457051  2.285768  4.791502
H    0.923814  0.918845  3.823987
H    -0.119417  -0.113699  5.857253
H    0.314948  1.311407  6.812522
H    2.329597  -0.357050  5.456783
H    1.974714  -0.430740  7.052819
N    -3.311453  -1.442435  3.743357
C    -2.346565  -2.018975  4.663802
H    -4.238075  -1.855953  3.701012
H    -1.333503  -1.980660  4.246383
H    -2.337720  -1.513083  5.642008
H    -2.597771  -3.073365  4.824734
