33
Energy: -18209.1513579 eV PBE+vdW (tier 2 basis)
C    0.842172  0.559728  1.887711
C    -0.188871  -0.549662  1.859129
O    0.116592  -1.739062  1.793744
H    0.612776  1.359592  1.171134
H    1.817017  0.123590  1.655756
H    0.887804  1.026868  2.881768
N    -1.511759  -0.175312  1.908649
C    -2.067439  1.151799  2.139551
C    -1.704719  1.769761  3.509136
O    -1.329867  2.942256  3.559905
H    -2.151858  -0.964974  1.896977
H    -1.619144  1.863178  1.430005
C    -3.582408  1.109792  1.852910
C    -4.343299  2.435261  1.993536
C    -4.768870  2.807406  3.418912
C    -5.745037  3.986620  3.461943
N    -7.017962  3.652388  2.805673
H    -4.058692  0.346316  2.491412
H    -3.679158  0.743885  0.819031
H    -5.253510  2.373246  1.380721
H    -3.739331  3.253566  1.569508
H    -3.896325  3.062849  4.035057
H    -5.245771  1.933380  3.898720
H    -5.305029  4.837002  2.918151
H    -5.861075  4.314397  4.512815
H    -7.556372  3.006553  3.384805
H    -7.593879  4.485482  2.690175
N    -1.797615  1.016415  4.644802
C    -2.242246  -0.356588  4.837477
H    -1.503468  1.531479  5.468649
H    -1.500487  -1.094217  4.500893
H    -3.192495  -0.552693  4.324972
H    -2.416506  -0.508137  5.908584
