33
Energy: -18209.0670522 eV PBE+vdW (tier 2 basis)
C    0.269182  0.679372  -0.049475
C    0.169421  0.220900  1.396159
O    1.087603  -0.391461  1.939822
H    -0.590129  1.267988  -0.394406
H    0.375890  -0.204861  -0.690547
H    1.181306  1.277384  -0.164652
N    -0.996470  0.559773  2.027429
C    -1.418551  0.091186  3.354401
C    -2.805285  0.642058  3.732811
O    -3.575412  -0.082500  4.358279
H    -1.736670  0.916493  1.433454
H    -1.598148  -0.993958  3.303705
C    -0.387898  0.292330  4.491664
C    0.193241  1.698787  4.668872
C    1.417924  1.744994  5.601243
C    2.764558  1.437715  4.934044
N    2.897572  0.043640  4.497069
H    0.419989  -0.428203  4.334563
H    -0.897649  -0.017970  5.416354
H    -0.583779  2.369358  5.067203
H    0.486526  2.114836  3.690336
H    1.271653  1.054400  6.447161
H    1.492660  2.756741  6.030417
H    3.556934  1.629660  5.673124
H    2.919400  2.173428  4.115713
H    2.398934  -0.119969  3.618453
H    3.876633  -0.171789  4.313139
N    -3.214358  1.895213  3.331801
C    -2.449353  3.089595  2.993439
H    -4.165159  2.064150  3.653974
H    -1.448183  2.822708  2.649113
H    -2.340803  3.759244  3.860125
H    -2.958025  3.640768  2.190622
