33
Energy: -18209.5397458 eV PBE+vdW (tier 2 basis)
C    -1.512145  -0.172135  0.044198
C    -0.988169  -0.051108  1.461319
O    0.177528  0.255534  1.714394
H    -1.733233  0.836790  -0.332621
H    -2.427102  -0.773627  -0.029325
H    -0.731570  -0.608778  -0.587267
N    -1.917854  -0.250152  2.444512
C    -1.581316  -0.193976  3.852117
C    -2.695041  -0.949580  4.598322
O    -3.726596  -1.310266  4.027493
H    -2.827540  -0.665164  2.247158
H    -0.621461  -0.716547  4.005279
C    -1.412462  1.261340  4.349370
C    -2.690057  2.118575  4.261546
C    -2.462307  3.500951  3.635527
C    -2.128468  3.464687  2.131347
N    -3.160615  2.926655  1.238372
H    -0.606594  1.690082  3.738565
H    -1.026747  1.249507  5.380403
H    -3.455171  1.587349  3.673060
H    -3.129730  2.235811  5.262265
H    -3.363796  4.119094  3.781923
H    -1.645865  4.019127  4.167448
H    -1.210800  2.880780  1.962773
H    -1.896560  4.486001  1.794228
H    -4.022845  3.467806  1.321496
H    -3.394272  1.969327  1.504354
N    -2.457677  -1.165700  5.918803
C    -3.408984  -1.819424  6.797973
H    -1.578476  -0.842907  6.304949
H    -4.279298  -2.097465  6.195104
H    -3.733389  -1.146732  7.604221
H    -2.978363  -2.726997  7.242664
