33
Energy: -18208.9811075 eV PBE+vdW (tier 2 basis)
C    0.682223  -0.539561  0.033414
C    0.337673  -0.300241  1.489943
O    1.188218  0.015949  2.321639
H    0.874327  0.432369  -0.440966
H    -0.108056  -1.053692  -0.527449
H    1.606640  -1.124689  -0.022206
N    -0.981234  -0.449325  1.815299
C    -1.518467  -0.067562  3.122901
C    -1.005602  1.359737  3.480758
O    -1.338591  2.267525  2.718972
H    -1.641594  -0.564157  1.057019
H    -2.576435  0.162650  2.931119
C    -1.522657  -1.223758  4.150232
C    -0.319984  -2.169579  4.185995
C    -0.456917  -3.234950  5.276965
C    0.757240  -4.158404  5.392411
N    0.952194  -4.954674  4.171793
H    -2.414925  -1.833348  3.931545
H    -1.710609  -0.794712  5.147086
H    0.614477  -1.610910  4.326769
H    -0.235912  -2.657520  3.203156
H    -1.352429  -3.849528  5.089702
H    -0.607227  -2.741844  6.252464
H    0.589442  -4.863171  6.219954
H    1.643045  -3.550672  5.669663
H    1.309692  -4.369446  3.416147
H    1.656908  -5.674691  4.329000
N    -0.360487  1.650281  4.653180
C    0.558511  0.831427  5.435586
H    -0.181047  2.650490  4.690102
H    1.060132  1.489919  6.152977
H    1.316932  0.361029  4.795946
H    0.036845  0.057549  6.011925
