33
Energy: -18209.5564815 eV PBE+vdW (tier 2 basis)
C    -1.499759  -2.351440  0.253279
C    -1.186264  -1.306494  1.303296
O    -0.234218  -1.430894  2.083606
H    -2.378326  -2.113476  -0.358688
H    -1.657641  -3.317077  0.749031
H    -0.627576  -2.460074  -0.403525
N    -2.009755  -0.222330  1.331455
C    -1.821695  0.904094  2.247937
C    -2.473060  0.598977  3.625530
O    -3.506999  1.146123  4.004206
H    -2.826907  -0.209141  0.731314
H    -0.734092  0.984490  2.402290
C    -2.359209  2.195803  1.638808
C    -1.581162  2.667343  0.407951
C    -2.134310  3.961839  -0.191827
C    -1.363832  4.469476  -1.423033
N    0.027480  4.885864  -1.224631
H    -2.334335  2.968348  2.420362
H    -3.428146  2.067759  1.401521
H    -1.581704  1.882092  -0.366989
H    -0.524437  2.809105  0.691269
H    -2.142115  4.752441  0.578519
H    -3.188889  3.808838  -0.479006
H    -1.905675  5.325650  -1.852853
H    -1.366052  3.689268  -2.201700
H    0.086168  5.615354  -0.512582
H    0.600276  4.109174  -0.894272
N    -1.777141  -0.324281  4.341492
C    -2.243839  -0.839445  5.613209
H    -0.990996  -0.774868  3.866514
H    -3.068394  -0.204949  5.955058
H    -1.437910  -0.817034  6.358679
H    -2.609485  -1.873538  5.522775
