33
Energy: -18209.4199382 eV PBE+vdW (tier 2 basis)
C    0.029246  1.057870  0.957822
C    -1.041685  0.651931  1.953460
O    -1.085546  1.150703  3.076555
H    0.244451  0.310531  0.186694
H    0.942624  1.288167  1.515708
H    -0.293628  1.981307  0.456506
N    -1.967393  -0.304117  1.583243
C    -2.307260  -0.760529  0.232873
C    -1.228733  -1.657461  -0.417648
O    -1.133081  -1.770884  -1.637912
H    -2.779246  -0.327894  2.212341
H    -3.145269  -1.454416  0.400018
C    -2.794849  0.339552  -0.733282
C    -3.795243  1.335168  -0.128594
C    -5.260374  0.885561  0.012890
C    -5.577009  -0.325271  0.898484
N    -4.950663  -0.236436  2.231767
H    -3.219772  -0.154917  -1.618120
H    -1.922149  0.894397  -1.105404
H    -3.803229  2.227309  -0.772814
H    -3.421084  1.686624  0.844857
H    -5.673745  0.672668  -0.986103
H    -5.835716  1.747336  0.392148
H    -5.213913  -1.248427  0.421499
H    -6.677722  -0.422338  0.947991
H    -5.313792  -0.971096  2.839956
H    -5.196938  0.648717  2.679612
N    -0.463895  -2.346958  0.473235
C    0.580580  -3.264630  0.069155
H    -0.600084  -2.125140  1.454509
H    0.417925  -4.263607  0.497148
H    1.572998  -2.905879  0.378984
H    0.555386  -3.336320  -1.023698
