33
Energy: -18209.0465425 eV PBE+vdW (tier 2 basis)
C    0.804685  1.329638  0.457883
C    0.398911  0.105067  1.262603
O    0.984557  -0.964896  1.148476
H    1.194436  1.004293  -0.511714
H    1.614033  1.841423  0.997432
H    -0.013803  2.045028  0.302947
N    -0.687464  0.318193  2.087432
C    -1.072446  -0.499851  3.231840
C    -0.140245  -0.180954  4.431659
O    0.946419  0.367885  4.283711
H    -0.958270  1.291763  2.169741
H    -2.087486  -0.161371  3.502501
C    -1.154851  -2.018152  2.955253
C    -2.385926  -2.468396  2.158477
C    -2.387863  -2.107552  0.669076
C    -3.602387  -2.651357  -0.084818
N    -4.847643  -2.020030  0.384214
H    -1.173369  -2.527974  3.928539
H    -0.227443  -2.326568  2.459091
H    -3.303317  -2.077476  2.627612
H    -2.453482  -3.566073  2.244212
H    -1.470645  -2.491489  0.196735
H    -2.351304  -1.013786  0.542699
H    -3.693150  -3.733770  0.100269
H    -3.430913  -2.531799  -1.172174
H    -4.871615  -1.041118  0.093569
H    -5.658278  -2.465305  -0.045600
N    -0.597679  -0.510954  5.681518
C    -1.843247  -1.143134  6.077510
H    0.083520  -0.316063  6.409192
H    -1.772346  -2.241891  6.116873
H    -2.654965  -0.881351  5.388906
H    -2.128786  -0.781547  7.073079
