33
Energy: -18209.5278349 eV PBE+vdW (tier 2 basis)
C    -0.194150  0.093095  -0.489034
C    -0.918351  0.247083  0.832002
O    -1.769513  1.123371  1.015839
H    0.678448  -0.569247  -0.435204
H    0.116262  1.083094  -0.840856
H    -0.905151  -0.316349  -1.220377
N    -0.609826  -0.685092  1.777078
C    -1.132525  -0.666730  3.130737
C    0.032544  -1.052579  4.056962
O    0.942496  -1.786365  3.668592
H    0.180804  -1.312823  1.644981
H    -1.471140  0.360768  3.337221
C    -2.312801  -1.647512  3.336062
C    -3.651115  -1.194882  2.702449
C    -4.253668  -2.200905  1.711487
C    -3.541364  -2.261764  0.347316
N    -3.659487  -1.082695  -0.514883
H    -2.448781  -1.800142  4.417165
H    -1.999527  -2.623535  2.934832
H    -3.514268  -0.225020  2.201897
H    -4.377380  -1.009816  3.506768
H    -5.312701  -1.947924  1.537239
H    -4.252381  -3.207835  2.164411
H    -3.925961  -3.125468  -0.216340
H    -2.467842  -2.458000  0.498991
H    -4.636186  -0.920947  -0.763036
H    -3.335050  -0.237937  -0.038779
N    -0.049346  -0.558474  5.321639
C    0.909854  -0.880771  6.361846
H    -0.816473  0.066411  5.539199
H    1.665564  -1.538757  5.920748
H    0.428135  -1.401485  7.201264
H    1.402882  0.025232  6.739786
