33
Energy: -18209.0628127 eV PBE+vdW (tier 2 basis)
C    0.025050  -0.271451  0.828067
C    -0.486059  -0.346200  2.249139
O    0.241042  -0.722724  3.170559
H    -0.533918  0.395940  0.166916
H    0.001426  -1.283160  0.397265
H    1.067232  0.056680  0.873869
N    -1.806551  -0.063813  2.521784
C    -2.881431  0.573482  1.755005
C    -2.964269  0.124139  0.281020
O    -2.958405  0.931381  -0.645499
H    -1.993763  -0.174120  3.515655
H    -3.811130  0.183803  2.209112
C    -2.935963  2.103349  1.920287
C    -1.729269  2.925203  1.419575
C    -1.121030  3.842885  2.488209
C    -0.267626  3.092795  3.520078
N    0.906197  2.482040  2.884757
H    -3.083694  2.284233  2.997930
H    -3.856058  2.450571  1.429811
H    -2.038416  3.513046  0.546935
H    -0.924950  2.270760  1.063171
H    -1.913741  4.403994  3.011031
H    -0.486360  4.599733  1.998632
H    -0.857859  2.279782  3.969703
H    -0.014229  3.779106  4.350273
H    1.661285  3.158568  2.781504
H    1.260452  1.698284  3.431005
N    -3.106495  -1.215974  0.046987
C    -3.182631  -2.317486  0.991694
H    -3.146037  -1.436574  -0.943119
H    -3.676709  -3.163252  0.499631
H    -3.784795  -2.048079  1.868475
H    -2.194478  -2.646599  1.345381
