33
Energy: -18209.1568875 eV PBE+vdW (tier 2 basis)
C    -0.926598  -1.618096  1.352063
C    -0.281268  -0.378431  1.937521
O    0.911488  -0.326420  2.235127
H    -0.178604  -2.414468  1.332892
H    -1.793174  -1.943421  1.944305
H    -1.288556  -1.437386  0.330059
N    -1.093808  0.711572  2.134587
C    -2.482621  0.880844  1.733821
C    -2.730266  0.933898  0.206673
O    -3.711813  0.355537  -0.259024
H    -0.604224  1.512155  2.523418
H    -3.058400  -0.005907  2.038783
C    -3.117350  2.107772  2.420004
C    -3.548478  1.905552  3.878632
C    -2.433508  1.646258  4.897316
C    -2.928481  1.688586  6.346774
N    -3.392753  3.035101  6.710975
H    -4.005596  2.383508  1.834186
H    -2.425432  2.964832  2.344316
H    -4.273020  1.074842  3.917959
H    -4.097732  2.802947  4.199278
H    -1.634436  2.400590  4.777730
H    -1.956038  0.671699  4.719025
H    -2.130018  1.300682  7.007550
H    -3.783911  1.003395  6.455618
H    -3.880471  3.018816  7.605902
H    -2.597279  3.664504  6.826708
N    -1.872799  1.623804  -0.603177
C    -0.715540  2.446823  -0.279209
H    -2.149005  1.572744  -1.578758
H    -0.928049  3.147993  0.538319
H    -0.471515  3.047656  -1.162522
H    0.168577  1.851186  -0.013455
