33
Energy: -18209.5408374 eV PBE+vdW (tier 2 basis)
C    -0.665280  -2.441275  -0.618445
C    -0.639404  -2.119186  0.861182
O    0.188383  -1.338183  1.344100
H    -1.458703  -3.142557  -0.904263
H    0.306240  -2.861377  -0.906769
H    -0.796433  -1.506837  -1.178117
N    -1.588388  -2.734147  1.622491
C    -1.709952  -2.510700  3.063694
C    -0.710275  -3.428513  3.819021
O    -1.049998  -4.490811  4.338546
H    -2.182272  -3.438558  1.199304
H    -1.407998  -1.466025  3.226857
C    -3.152392  -2.731316  3.514395
C    -3.429206  -2.345956  4.976299
C    -3.105427  -0.896240  5.362476
C    -3.872169  0.162471  4.570306
N    -3.547565  1.506795  5.061867
H    -3.399434  -3.796508  3.386683
H    -3.806501  -2.160179  2.837447
H    -2.867219  -3.026428  5.630937
H    -4.494322  -2.543687  5.177019
H    -2.027240  -0.692250  5.270818
H    -3.337077  -0.769425  6.433303
H    -4.954881  -0.080755  4.602058
H    -3.577715  0.126166  3.509911
H    -4.017792  2.219287  4.503945
H    -3.878419  1.623359  6.020886
N    0.557437  -2.936498  3.821435
C    1.679537  -3.684264  4.353801
H    0.730984  -2.136945  3.208707
H    2.271784  -4.156699  3.554935
H    1.286910  -4.471164  5.006327
H    2.336728  -3.024625  4.934774
