33
Energy: -18209.1603292 eV PBE+vdW (tier 2 basis)
C    0.684196  -0.578979  0.354819
C    0.207367  0.657551  1.093129
O    0.929384  1.631201  1.278884
H    1.752058  -0.461706  0.154080
H    0.152024  -0.687219  -0.600832
H    0.525646  -1.497641  0.937144
N    -1.081765  0.639126  1.580781
C    -2.112955  -0.333253  1.306163
C    -2.653806  -0.230816  -0.151311
O    -2.429435  0.728724  -0.880996
H    -1.375040  1.542487  1.941806
H    -1.664126  -1.336654  1.390625
C    -3.220386  -0.272099  2.388264
C    -3.919845  1.072898  2.645857
C    -4.719048  1.671798  1.468000
C    -4.059078  2.915178  0.842007
N    -4.664048  3.421463  -0.387490
H    -2.757213  -0.608018  3.328192
H    -3.986456  -1.023034  2.139197
H    -3.187750  1.815420  3.007117
H    -4.585523  0.910041  3.505623
H    -5.728872  1.948474  1.809514
H    -4.870267  0.914869  0.682577
H    -3.007206  2.698515  0.608977
H    -4.056208  3.726699  1.588881
H    -5.673856  3.531181  -0.285228
H    -4.504782  2.760191  -1.148564
N    -3.369443  -1.322587  -0.554604
C    -4.000659  -1.408444  -1.858335
H    -3.523835  -2.073793  0.107261
H    -3.777702  -2.371598  -2.335177
H    -5.092416  -1.287835  -1.792256
H    -3.595876  -0.599773  -2.475827
