33
Energy: -18209.2009759 eV PBE+vdW (tier 2 basis)
C    0.258357  0.855293  1.349105
C    -0.179384  2.043031  2.187416
O    0.625008  2.691012  2.855283
H    0.090778  -0.073990  1.912189
H    1.331088  0.950184  1.159576
H    -0.278096  0.770856  0.394699
N    -1.510396  2.361323  2.188963
C    -2.621553  1.665439  1.571006
C    -3.794215  2.662281  1.557913
O    -3.876816  3.559612  2.396388
H    -1.782940  3.150355  2.776118
H    -2.361712  1.407688  0.532407
C    -3.057959  0.354263  2.289688
C    -3.324245  0.477183  3.800138
C    -2.091210  0.253052  4.682477
C    -2.391825  0.396886  6.172343
N    -1.191615  0.108245  6.967894
H    -2.286430  -0.409037  2.108164
H    -3.963299  -0.013555  1.783692
H    -4.089572  -0.265535  4.075235
H    -3.769258  1.460469  4.020447
H    -1.297003  0.966363  4.416043
H    -1.678898  -0.753157  4.503453
H    -3.168122  -0.329425  6.462980
H    -2.819221  1.403877  6.354222
H    -0.461685  0.791769  6.758820
H    -1.392416  0.198277  7.963912
N    -4.760719  2.481414  0.612536
C    -4.747171  1.583798  -0.531963
H    -5.514055  3.158311  0.679370
H    -5.649230  1.770361  -1.123694
H    -4.758571  0.525924  -0.234137
H    -3.878157  1.755364  -1.184170
