33
Energy: -18208.9472535 eV PBE+vdW (tier 2 basis)
C    0.336798  0.981788  0.817329
C    0.002063  -0.012670  1.906236
O    0.840500  -0.796961  2.345004
H    1.375919  0.812130  0.523590
H    0.233348  2.015718  1.173018
H    -0.320286  0.839260  -0.048585
N    -1.264726  -0.015824  2.461767
C    -2.527651  0.605579  2.081655
C    -3.111913  -0.002449  0.782849
O    -2.404838  -0.485836  -0.095392
H    -1.346745  -0.779989  3.125981
H    -3.204310  0.316776  2.897622
C    -2.523727  2.168478  2.055527
C    -2.612803  2.860510  0.691673
C    -2.593221  4.385636  0.819699
C    -2.645125  5.117329  -0.523003
N    -3.895299  4.837143  -1.246398
H    -1.618042  2.495057  2.586067
H    -3.365407  2.519678  2.671567
H    -3.542034  2.554642  0.186420
H    -1.789749  2.535210  0.039102
H    -1.678149  4.696915  1.350545
H    -3.447019  4.715754  1.433483
H    -1.734674  4.868088  -1.104504
H    -2.609287  6.200094  -0.335676
H    -4.016334  5.500821  -2.010791
H    -3.861126  3.913752  -1.679146
N    -4.476931  0.013548  0.661630
C    -5.462394  0.640839  1.525976
H    -4.794519  -0.339168  -0.236521
H    -5.262986  0.422277  2.582936
H    -6.449207  0.227771  1.289853
H    -5.509927  1.734317  1.399327
