33
Energy: -18209.5228558 eV PBE+vdW (tier 2 basis)
C    -0.450869  -0.323323  0.312107
C    -0.545786  0.781100  1.348274
O    0.091659  1.830316  1.250886
H    -0.784493  0.072157  -0.655567
H    -1.046815  -1.210498  0.558609
H    0.601183  -0.613293  0.201983
N    -1.398654  0.537391  2.385846
C    -1.527973  1.448296  3.503165
C    -1.957088  0.605689  4.716301
O    -2.379481  -0.544990  4.589365
H    -1.808647  -0.382199  2.537209
H    -0.538340  1.897137  3.689836
C    -2.522768  2.601026  3.219497
C    -3.973849  2.155233  3.041369
C    -4.903241  3.307453  2.649319
C    -6.380553  2.916978  2.580160
N    -6.632929  1.932209  1.518845
H    -2.163371  3.111984  2.314380
H    -2.454752  3.340210  4.035076
H    -4.339898  1.691120  3.973554
H    -4.007711  1.370943  2.269211
H    -4.597304  3.710530  1.670997
H    -4.797287  4.126496  3.380419
H    -6.972400  3.813005  2.342344
H    -6.708972  2.580055  3.585468
H    -6.257403  1.019212  1.776854
H    -7.635556  1.800372  1.388622
N    -1.863375  1.239631  5.915814
C    -2.279295  0.633165  7.166540
H    -1.481007  2.177607  5.931542
H    -2.665330  -0.365179  6.936913
H    -3.072064  1.221751  7.648870
H    -1.434316  0.536198  7.862169
