33
Energy: -18209.0969963 eV PBE+vdW (tier 2 basis)
C    -2.092911  -1.414780  -0.998662
C    -1.235884  -0.938811  0.154420
O    -0.006759  -0.985777  0.118807
H    -2.554288  -2.382471  -0.755689
H    -1.441838  -1.545387  -1.866924
H    -2.908557  -0.724711  -1.243819
N    -1.862558  -0.473878  1.288691
C    -3.274121  -0.175603  1.546984
C    -4.193297  -1.390815  1.267338
O    -5.140743  -1.326680  0.488169
H    -1.193695  -0.166456  1.988245
H    -3.321202  -0.009192  2.637081
C    -3.816665  1.095402  0.876360
C    -3.028086  2.379445  1.174232
C    -1.805433  2.634145  0.282313
C    -1.223517  4.042035  0.438291
N    -2.183583  5.068822  0.006210
H    -4.854437  1.208135  1.220103
H    -3.892763  0.939206  -0.209268
H    -2.717372  2.394222  2.234578
H    -3.704858  3.236901  1.053014
H    -2.093049  2.484044  -0.773522
H    -1.004472  1.907403  0.476171
H    -0.255658  4.086038  -0.096985
H    -1.000096  4.227164  1.501320
H    -2.298505  5.038658  -1.008017
H    -1.838246  6.001615  0.229836
N    -3.912277  -2.547574  1.941724
C    -2.876491  -2.813517  2.926400
H    -4.542761  -3.305289  1.699403
H    -1.891980  -2.987913  2.469495
H    -3.161584  -3.705085  3.496404
H    -2.781985  -1.985173  3.641370
