33
Energy: -18209.3956519 eV PBE+vdW (tier 2 basis)
C    0.080450  0.690899  -0.754561
C    0.003733  0.422217  0.736952
O    0.946551  0.654040  1.495453
H    0.277473  1.758912  -0.910952
H    -0.830026  0.412233  -1.298883
H    0.932214  0.137450  -1.168580
N    -1.185223  -0.078937  1.179638
C    -1.385852  -0.477353  2.557738
C    -2.436766  -1.595758  2.534522
O    -3.153004  -1.774592  1.544186
H    -1.906990  -0.399762  0.536856
H    -0.426692  -0.873942  2.929162
C    -1.751302  0.728412  3.466242
C    -3.031440  1.494356  3.107974
C    -4.338559  0.856322  3.593829
C    -5.585116  1.676811  3.256342
N    -5.599518  2.969686  3.958245
H    -0.886920  1.403536  3.401383
H    -1.798224  0.396049  4.514278
H    -3.073102  1.645137  2.016347
H    -2.938934  2.498535  3.550014
H    -4.294349  0.721456  4.687176
H    -4.464519  -0.138755  3.144420
H    -6.473220  1.117882  3.585556
H    -5.663771  1.769107  2.153921
H    -4.921485  3.611650  3.546964
H    -6.509780  3.417157  3.853511
N    -2.559104  -2.382668  3.638409
C    -1.814604  -2.334993  4.884403
H    -3.314385  -3.057274  3.562299
H    -1.767725  -3.343938  5.311014
H    -2.276666  -1.665071  5.625701
H    -0.785318  -2.001614  4.710242
