33
Energy: -18209.0790523 eV PBE+vdW (tier 2 basis)
C    1.363903  -2.164614  0.145560
C    0.526243  -2.145257  1.410539
O    0.278672  -3.169635  2.042547
H    1.474832  -1.183222  -0.332595
H    0.905130  -2.860735  -0.566949
H    2.360257  -2.554717  0.389619
N    0.104139  -0.903140  1.810160
C    -0.841428  -0.702362  2.910896
C    -2.029734  0.161995  2.445640
O    -3.168741  -0.293720  2.450022
H    0.278500  -0.133154  1.176286
H    -1.284681  -1.689528  3.093988
C    -0.232061  -0.208533  4.246023
C    0.471981  -1.299124  5.066403
C    1.904091  -1.623085  4.622849
C    2.457250  -2.916265  5.227512
N    1.586361  -4.052640  4.911871
H    -1.069500  0.192781  4.838628
H    0.452557  0.635656  4.070531
H    -0.127925  -2.219470  5.036085
H    0.493834  -0.985363  6.122328
H    2.576127  -0.790493  4.887623
H    1.949736  -1.712875  3.528461
H    2.508355  -2.819701  6.325664
H    3.501610  -3.037354  4.874982
H    2.030198  -4.935315  5.159299
H    1.371712  -4.079897  3.911958
N    -1.798479  1.439688  1.984721
C    -0.646616  2.308697  2.172156
H    -2.670430  1.900554  1.737048
H    -0.630599  3.057768  1.370913
H    0.294229  1.750840  2.118675
H    -0.664783  2.834882  3.140039
