33
Energy: -18209.5560825 eV PBE+vdW (tier 2 basis)
C    1.759795  1.137113  0.719389
C    0.513686  0.564061  1.360937
O    -0.551208  0.461341  0.740500
H    2.629270  1.161498  1.387495
H    1.544124  2.155514  0.373265
H    2.006403  0.536591  -0.165049
N    0.640173  0.161349  2.656851
C    -0.464212  -0.437096  3.407602
C    -1.361365  0.685478  3.997510
O    -1.279413  1.051805  5.168984
H    1.504292  0.350913  3.152244
H    -1.054067  -0.996345  2.667491
C    0.073725  -1.375278  4.486554
C    -0.999303  -2.205933  5.203132
C    -1.780511  -3.167849  4.303538
C    -2.751177  -4.086828  5.067773
N    -2.170080  -5.062016  5.994862
H    0.611897  -0.772897  5.234644
H    0.805036  -2.048990  4.011383
H    -1.696358  -1.528677  5.719837
H    -0.491147  -2.780317  5.994137
H    -1.077880  -3.792952  3.723828
H    -2.368530  -2.601667  3.562103
H    -3.357475  -4.645863  4.338887
H    -3.460542  -3.468842  5.641147
H    -1.492461  -5.655916  5.514468
H    -1.667583  -4.596733  6.750690
N    -2.215633  1.212683  3.079714
C    -3.051072  2.362193  3.368166
H    -2.057736  0.936818  2.107945
H    -2.623614  3.291257  2.960391
H    -3.128734  2.464510  4.455643
H    -4.053300  2.221076  2.943939
