33
Energy: -18209.1461276 eV PBE+vdW (tier 2 basis)
C    0.943748  1.852841  1.727020
C    0.627548  0.382152  1.912901
O    1.497622  -0.469385  2.082687
H    0.533388  2.459715  2.546625
H    0.517586  2.243595  0.792290
H    2.030289  1.966891  1.705805
N    -0.700061  0.024622  1.881451
C    -1.856142  0.903722  1.839473
C    -2.139070  1.740591  3.105540
O    -2.577330  2.885658  2.961207
H    -0.854682  -0.970988  2.014819
H    -1.671967  1.676625  1.080846
C    -3.112773  0.111520  1.426602
C    -3.141909  -0.251721  -0.070096
C    -3.858322  0.745682  -0.995236
C    -3.337409  2.193351  -1.050376
N    -3.904636  3.056400  -0.006993
H    -4.003925  0.698342  1.689054
H    -3.158270  -0.801788  2.042487
H    -3.641512  -1.225252  -0.185027
H    -2.108755  -0.410135  -0.421330
H    -4.926292  0.794344  -0.730084
H    -3.808138  0.328411  -2.013464
H    -3.652278  2.618351  -2.014194
H    -2.226349  2.181852  -1.078508
H    -3.429610  2.976431  0.896341
H    -3.820608  4.034827  -0.278479
N    -1.924633  1.224976  4.347656
C    -1.527516  -0.115898  4.758428
H    -2.160369  1.886201  5.081370
H    -1.721606  -0.208818  5.832592
H    -0.461797  -0.314207  4.583184
H    -2.120262  -0.890315  4.254267
