33
Energy: -18209.4527293 eV PBE+vdW (tier 2 basis)
C    0.358072  2.199340  0.222826
C    -0.477789  1.822442  1.431622
O    -1.095487  2.658593  2.092104
H    0.864351  1.346825  -0.246004
H    1.107422  2.939160  0.529904
H    -0.291680  2.681003  -0.518600
N    -0.506916  0.492466  1.731746
C    -1.206440  -0.023823  2.887401
C    -0.528506  -1.350044  3.263098
O    0.152194  -1.990643  2.459414
H    0.065061  -0.186043  1.234078
H    -1.055254  0.690870  3.713462
C    -2.749083  -0.141194  2.683698
C    -3.238146  -0.580790  1.295847
C    -2.894281  -1.983698  0.769325
C    -3.574006  -3.176139  1.469614
N    -3.016287  -3.643688  2.745565
H    -3.156446  0.862084  2.870444
H    -3.159003  -0.787206  3.475559
H    -2.871225  0.158972  0.568511
H    -4.335339  -0.468997  1.294237
H    -1.805180  -2.145412  0.764149
H    -3.203068  -2.008055  -0.289224
H    -3.556322  -4.035549  0.781758
H    -4.639833  -2.947932  1.634962
H    -2.019168  -3.833451  2.632670
H    -3.086349  -2.916865  3.456135
N    -0.747979  -1.754696  4.543338
C    -0.257352  -3.014170  5.073516
H    -1.289259  -1.148882  5.148894
H    0.314884  -2.851645  5.996073
H    0.401360  -3.457270  4.319663
H    -1.080945  -3.712563  5.281213
