33
Energy: -18209.1411325 eV PBE+vdW (tier 2 basis)
C    -1.366503  -0.475817  0.563415
C    -0.867507  0.016568  1.912630
O    0.318101  -0.074331  2.229351
H    -0.711132  -0.078594  -0.220349
H    -2.405086  -0.201732  0.339699
H    -1.280150  -1.570138  0.538489
N    -1.833247  0.564639  2.713360
C    -1.758090  0.949703  4.125803
C    -1.575776  2.444277  4.472076
O    -2.072812  2.832843  5.535507
H    -2.769655  0.571816  2.327891
H    -2.773215  0.768068  4.508562
C    -0.801541  0.111420  4.998180
C    -1.145378  -1.379937  5.083525
C    -2.575538  -1.744302  5.516196
C    -3.075355  -1.143329  6.842570
N    -3.705413  0.176457  6.677627
H    -0.842503  0.562248  6.000345
H    0.228253  0.224341  4.639480
H    -0.434603  -1.833461  5.793093
H    -0.936621  -1.860699  4.115625
H    -2.617285  -2.842014  5.595947
H    -3.302853  -1.472629  4.734200
H    -2.247420  -1.152112  7.580657
H    -3.849415  -1.811631  7.245903
H    -4.314150  0.378460  7.469216
H    -3.031144  0.944610  6.633272
N    -0.907564  3.311540  3.665495
C    -0.085047  3.076620  2.487336
H    -0.912694  4.251951  4.049621
H    0.653351  3.883929  2.420113
H    -0.677550  3.076505  1.559743
H    0.456901  2.126976  2.557476
