33
Energy: -18209.1889749 eV PBE+vdW (tier 2 basis)
C    0.615213  -0.559127  1.010727
C    0.003381  0.560116  1.833988
O    0.552199  1.655228  1.935669
H    -0.110620  -1.110931  0.401305
H    1.112650  -1.284581  1.668565
H    1.369891  -0.112550  0.357796
N    -1.183453  0.319270  2.484405
C    -1.990308  -0.896959  2.574647
C    -3.453811  -0.485246  2.295077
O    -4.224499  -0.196223  3.208192
H    -1.493391  1.107877  3.049524
H    -1.645873  -1.581712  1.789633
C    -1.885294  -1.585517  3.943976
C    -0.498466  -2.159171  4.258464
C    -0.095143  -3.399032  3.446606
C    -0.896032  -4.658508  3.778413
N    -0.468391  -5.776698  2.928129
H    -2.652448  -2.372912  3.988036
H    -2.177160  -0.856146  4.712087
H    -0.464465  -2.411008  5.330349
H    0.257410  -1.370246  4.122654
H    0.973319  -3.605002  3.626930
H    -0.181722  -3.215985  2.364095
H    -1.964533  -4.487903  3.577315
H    -0.811298  -4.859926  4.865680
H    0.496491  -6.035063  3.141121
H    -1.034779  -6.604724  3.112282
N    -3.844376  -0.421242  0.987032
C    -3.029244  -0.587200  -0.204722
H    -4.786670  -0.061027  0.871489
H    -2.252883  0.187317  -0.293804
H    -3.682161  -0.516515  -1.080973
H    -2.549868  -1.575748  -0.236066
