33
Energy: -18209.4015225 eV PBE+vdW (tier 2 basis)
C    0.382606  -0.691596  2.005902
C    -0.721797  -1.343924  1.198433
O    -0.601611  -2.449989  0.679579
H    0.730222  0.233196  1.523449
H    1.216858  -1.394187  2.072624
H    0.047620  -0.421491  3.016663
N    -1.899927  -0.635892  1.073887
C    -2.177346  0.724448  1.523266
C    -2.417667  0.843690  3.043928
O    -2.207345  1.903056  3.632772
H    -2.564613  -1.067833  0.436349
H    -1.309120  1.369464  1.323286
C    -3.392040  1.254085  0.731191
C    -3.802799  2.707500  0.990722
C    -2.720807  3.762737  0.715370
C    -2.092970  3.717247  -0.680003
N    -3.115051  3.794462  -1.733741
H    -4.252083  0.598666  0.947088
H    -3.164448  1.126972  -0.338835
H    -4.137633  2.821858  2.031206
H    -4.674258  2.908076  0.351566
H    -1.921149  3.682459  1.466750
H    -3.168751  4.758620  0.870873
H    -1.552458  2.767210  -0.820675
H    -1.326701  4.514478  -0.740596
H    -3.598645  4.693113  -1.689989
H    -2.683945  3.744440  -2.656582
N    -2.902795  -0.278576  3.640379
C    -3.206532  -0.350552  5.055268
H    -2.955456  -1.115430  3.068886
H    -2.555070  -1.071913  5.568858
H    -4.253423  -0.639734  5.220977
H    -3.039120  0.644756  5.480933
