33
Energy: -18209.5164207 eV PBE+vdW (tier 2 basis)
C    1.315238  -2.982827  0.748175
C    0.207290  -2.233052  1.465319
O    -0.725996  -1.709118  0.858330
H    2.066252  -3.411198  1.423118
H    1.809318  -2.295573  0.050007
H    0.868156  -3.788213  0.152449
N    0.314794  -2.205196  2.829128
C    -0.553736  -1.395244  3.661437
C    0.341804  -0.622927  4.642156
O    1.433286  -1.067553  5.001930
H    1.187704  -2.477352  3.276457
H    -1.086358  -0.704909  2.988114
C    -1.588909  -2.233203  4.445018
C    -2.604276  -2.930744  3.540354
C    -3.587379  -3.836351  4.294273
C    -4.411734  -3.155764  5.392118
N    -5.107783  -1.964112  4.885728
H    -2.114994  -1.562793  5.141762
H    -1.044407  -2.968642  5.060449
H    -2.073775  -3.537275  2.792181
H    -3.158933  -2.167507  2.976306
H    -3.044112  -4.678327  4.753801
H    -4.275920  -4.290238  3.561535
H    -3.747733  -2.826505  6.206669
H    -5.088076  -3.913233  5.834337
H    -5.752667  -2.223098  4.136941
H    -5.675712  -1.543589  5.621054
N    -0.182023  0.546997  5.097890
C    0.472175  1.372289  6.095548
H    -1.076757  0.843375  4.725980
H    1.427387  0.896922  6.341281
H    -0.133468  1.450815  7.009534
H    0.665344  2.382145  5.708619
