33
Energy: -18209.332407 eV PBE+vdW (tier 2 basis)
C    -0.530281  -1.300581  0.716824
C    -0.553430  -0.535061  2.030637
O    0.321266  -0.683050  2.880742
H    -0.500186  -0.621357  -0.147502
H    -1.413085  -1.944157  0.602572
H    0.367010  -1.924515  0.708110
N    -1.590645  0.337936  2.230761
C    -2.675464  0.680121  1.335181
C    -3.109826  2.118126  1.693454
O    -2.837895  2.622907  2.780561
H    -1.538549  0.911856  3.072906
H    -2.310563  0.679383  0.294991
C    -3.883439  -0.290620  1.422400
C    -4.567516  -0.333941  2.788683
C    -5.708430  -1.354048  2.843753
C    -6.455289  -1.376687  4.178843
N    -5.595428  -1.850330  5.271153
H    -3.523723  -1.297164  1.159248
H    -4.615455  -0.017353  0.643884
H    -4.957407  0.665569  3.043787
H    -3.810101  -0.575899  3.549844
H    -5.312914  -2.363387  2.647006
H    -6.434900  -1.131718  2.044101
H    -7.298554  -2.078261  4.098906
H    -6.895785  -0.374078  4.359624
H    -4.893370  -1.150353  5.512331
H    -6.145224  -2.004616  6.115696
N    -3.840518  2.749650  0.733863
C    -4.401433  4.076279  0.914635
H    -3.999386  2.269364  -0.143675
H    -4.011364  4.777189  0.164062
H    -4.109398  4.424394  1.910603
H    -5.498250  4.057109  0.849382
