33
Energy: -18209.0826258 eV PBE+vdW (tier 2 basis)
C    -0.128768  -0.253070  0.106806
C    -0.199397  0.163709  1.566895
O    0.707178  0.787298  2.110748
H    0.183397  0.610230  -0.491946
H    -1.071453  -0.648315  -0.292095
H    0.647558  -1.022483  0.002049
N    -1.351468  -0.195722  2.215092
C    -1.586001  -0.072544  3.657050
C    -0.962446  1.196651  4.293777
O    -0.258866  1.125086  5.296260
H    -2.004030  -0.782987  1.708563
H    -2.676496  0.068389  3.765143
C    -1.219808  -1.353164  4.426251
C    0.224194  -1.837555  4.255577
C    0.573241  -3.084899  5.083009
C    0.133928  -4.434114  4.507688
N    -1.331201  -4.585777  4.457411
H    -1.910118  -2.150497  4.114182
H    -1.412685  -1.156710  5.491397
H    0.900445  -1.020318  4.536113
H    0.422859  -2.055294  3.193354
H    0.174999  -2.976168  6.107540
H    1.667097  -3.130410  5.200020
H    0.632886  -5.236477  5.086667
H    0.506676  -4.518464  3.473977
H    -1.576385  -5.499818  4.075353
H    -1.712737  -4.563348  5.405204
N    -1.360180  2.413695  3.805792
C    -2.113849  2.724200  2.606737
H    -0.863586  3.177947  4.253286
H    -2.530130  3.733941  2.707359
H    -2.955816  2.032803  2.481954
H    -1.498543  2.690581  1.693386
