33
Energy: -18209.4754915 eV PBE+vdW (tier 2 basis)
C    -1.708595  0.108503  -0.865074
C    -1.056871  -0.426729  0.396259
O    0.043367  -0.979613  0.383640
H    -2.696665  0.553981  -0.696553
H    -1.802220  -0.711443  -1.587660
H    -1.047496  0.862684  -1.309993
N    -1.773400  -0.250198  1.544793
C    -1.306901  -0.726561  2.833140
C    -2.551883  -1.119107  3.635936
O    -3.577745  -0.437890  3.596949
H    -2.696026  0.175566  1.539282
H    -0.668564  -1.602952  2.640570
C    -0.451435  0.348103  3.550109
C    0.130101  -0.064199  4.912080
C    -0.762711  0.254146  6.117388
C    -0.251378  -0.320091  7.448556
N    1.046124  0.153064  7.940573
H    -1.061782  1.258228  3.656473
H    0.361090  0.587834  2.850800
H    1.097552  0.444153  5.041755
H    0.371676  -1.142850  4.902897
H    -1.782861  -0.124281  5.950801
H    -0.863395  1.349209  6.209000
H    -0.190688  -1.418703  7.368924
H    -0.995716  -0.115958  8.233401
H    1.041631  1.169158  8.041700
H    1.792115  -0.070264  7.281628
N    -2.422733  -2.246083  4.387688
C    -3.446397  -2.703924  5.307893
H    -1.539197  -2.739769  4.350921
H    -3.701590  -3.754750  5.118974
H    -4.335060  -2.084546  5.148586
H    -3.121349  -2.597719  6.353564
