33
Energy: -18209.0632588 eV PBE+vdW (tier 2 basis)
C    0.329422  0.849671  0.420423
C    -0.052114  -0.125074  1.515373
O    0.723462  -1.006624  1.879801
H    0.060943  0.401641  -0.545682
H    1.414878  0.982971  0.454823
H    -0.162829  1.825501  0.481401
N    -1.303164  -0.047875  2.086217
C    -2.404045  0.892840  1.921148
C    -2.686606  1.205661  0.426862
O    -2.692025  0.311030  -0.411242
H    -1.452960  -0.803289  2.748276
H    -3.306252  0.319837  2.193935
C    -2.344661  2.074468  2.919037
C    -1.103150  2.973831  2.876805
C    -1.134033  4.111105  3.905325
C    -2.186214  5.185570  3.623701
N    -2.095661  6.266239  4.609046
H    -2.410517  1.637017  3.928190
H    -3.270169  2.664473  2.812013
H    -0.963287  3.406981  1.872159
H    -0.214229  2.353567  3.059649
H    -0.142280  4.592137  3.924547
H    -1.297156  3.710370  4.917916
H    -3.196490  4.756115  3.707121
H    -2.073432  5.524179  2.570554
H    -2.831070  6.956934  4.461831
H    -1.206847  6.760295  4.518338
N    -2.995248  2.502772  0.135261
C    -3.353589  2.934468  -1.202338
H    -2.938872  3.195218  0.870860
H    -4.346728  3.404249  -1.214494
H    -3.368964  2.045939  -1.842015
H    -2.618146  3.647499  -1.601438
