33
Energy: -18209.4136112 eV PBE+vdW (tier 2 basis)
C    0.935352  -2.561750  1.607367
C    0.363878  -1.446407  2.462888
O    0.730409  -1.254981  3.623434
H    2.018485  -2.414243  1.512686
H    0.493525  -2.617446  0.605046
H    0.779485  -3.516723  2.124076
N    -0.571673  -0.663217  1.852666
C    -1.283162  0.378602  2.564212
C    -2.654700  0.504923  1.886169
O    -2.854809  0.028655  0.763766
H    -0.974411  -0.910351  0.950555
H    -1.410671  0.038676  3.605117
C    -0.472985  1.702716  2.623212
C    -0.120323  2.352123  1.279418
C    -1.250092  3.143118  0.611725
C    -0.791657  3.886032  -0.641450
N    -1.909642  4.625926  -1.243020
H    0.450148  1.446355  3.161220
H    -1.003811  2.427105  3.259208
H    0.255502  1.578623  0.590409
H    0.729821  3.031737  1.452680
H    -1.669986  3.876357  1.319329
H    -2.073641  2.468899  0.332058
H    -0.312029  3.162778  -1.331823
H    -0.015642  4.618865  -0.368949
H    -1.589317  5.165790  -2.047132
H    -2.609826  3.972356  -1.597876
N    -3.642127  1.160951  2.553917
C    -3.606010  1.780062  3.866977
H    -4.494178  1.254521  2.009238
H    -4.606636  1.731353  4.312653
H    -2.921380  1.241657  4.531909
H    -3.294654  2.835158  3.825929
