33
Energy: -18208.7896359 eV PBE+vdW (tier 2 basis)
C    0.479582  -0.003996  0.926868
C    -0.236777  -0.648520  2.097332
O    0.174463  -1.689381  2.605649
H    0.773926  1.030092  1.145845
H    -0.160128  -0.001449  0.033909
H    1.374774  -0.595193  0.718024
N    -1.367439  -0.044019  2.593826
C    -2.144539  1.114510  2.132574
C    -2.905984  0.747981  0.822800
O    -3.791228  -0.102229  0.905756
H    -1.823799  -0.629913  3.286217
H    -2.982796  1.151082  2.843654
C    -1.420619  2.461324  2.283521
C    -2.402705  3.640534  2.300925
C    -1.764524  5.037415  2.289738
C    -1.091055  5.489437  3.589861
N    0.138998  4.737216  3.877939
H    -0.662045  2.620066  1.507187
H    -0.865639  2.434932  3.229273
H    -3.052229  3.549814  3.188216
H    -3.084937  3.567952  1.437511
H    -2.547583  5.775215  2.055059
H    -1.035437  5.106813  1.462291
H    -1.785266  5.319236  4.428108
H    -0.933273  6.584642  3.533919
H    0.860695  4.964841  3.192193
H    0.514821  5.003144  4.788027
N    -2.626642  1.301463  -0.402110
C    -1.710478  2.338932  -0.853794
H    -3.250980  0.917009  -1.105630
H    -1.795512  2.400188  -1.944192
H    -0.664656  2.107234  -0.620349
H    -1.953323  3.329908  -0.445397
