33
Energy: -18209.0778314 eV PBE+vdW (tier 2 basis)
C    0.128871  0.091746  1.091326
C    -0.214746  0.899583  2.324109
O    0.652673  1.294338  3.100882
H    1.177531  -0.205848  1.176530
H    0.015395  0.703980  0.185538
H    -0.505956  -0.796656  1.002981
N    -1.530802  1.245529  2.570822
C    -2.799175  0.873024  1.957784
C    -3.208190  -0.586357  2.262290
O    -2.393602  -1.503265  2.308114
H    -1.602114  1.750355  3.448994
H    -3.531802  1.537089  2.437232
C    -2.897329  1.121859  0.434730
C    -2.530637  2.543750  -0.002751
C    -3.406007  3.641551  0.606512
C    -3.119258  5.024746  0.024610
N    -3.981215  6.039325  0.645257
H    -3.933081  0.900272  0.131202
H    -2.271441  0.391452  -0.094116
H    -2.606717  2.586783  -1.101306
H    -1.475242  2.743488  0.237763
H    -3.248030  3.683450  1.697823
H    -4.473906  3.413311  0.455661
H    -3.341374  5.015579  -1.053909
H    -2.035524  5.237459  0.120093
H    -3.718767  6.175333  1.622883
H    -3.854861  6.942574  0.188527
N    -4.546607  -0.816953  2.436802
C    -5.630298  0.149589  2.519243
H    -4.763177  -1.793108  2.612733
H    -5.538548  0.812398  3.393427
H    -6.573400  -0.398454  2.616275
H    -5.704018  0.770687  1.615354
