33
Energy: -18209.3267226 eV PBE+vdW (tier 2 basis)
C    -0.647487  0.675831  0.402179
C    -0.521195  0.217304  1.843800
O    0.531133  0.288791  2.467608
H    0.147725  0.206846  -0.189275
H    -0.484786  1.760727  0.364370
H    -1.618633  0.447202  -0.054712
N    -1.671305  -0.300143  2.400305
C    -1.773258  -0.604878  3.825587
C    -1.427343  -2.067013  4.176791
O    -1.281808  -2.412716  5.347932
H    -2.537626  -0.192945  1.882832
H    -1.006266  -0.002892  4.331620
C    -3.184815  -0.211206  4.311875
C    -3.487084  -0.276612  5.816335
C    -2.829318  0.796235  6.699957
C    -1.379541  0.538592  7.117093
N    -0.976930  1.505046  8.151316
H    -3.911994  -0.851286  3.782004
H    -3.363213  0.819660  3.962003
H    -3.241210  -1.275529  6.202118
H    -4.578284  -0.167566  5.912876
H    -3.411485  0.889140  7.629510
H    -2.901794  1.780219  6.201459
H    -0.711742  0.543459  6.236180
H    -1.304118  -0.470753  7.545844
H    -0.032912  1.296005  8.477177
H    -0.937272  2.446913  7.757255
N    -1.329309  -2.917971  3.119344
C    -0.948264  -4.307645  3.270924
H    -1.358722  -2.501203  2.195652
H    -0.976644  -4.544536  4.339983
H    0.070047  -4.490363  2.897510
H    -1.646547  -4.965712  2.736548
