33
Energy: -18209.1989906 eV PBE+vdW (tier 2 basis)
C    0.670575  1.146098  -0.055937
C    0.803253  0.269630  1.172959
O    1.849189  -0.309781  1.450600
H    -0.325684  1.127574  -0.512657
H    1.419139  0.821666  -0.784426
H    0.890323  2.187459  0.218049
N    -0.302514  0.125595  1.992047
C    -1.572582  0.860002  1.963540
C    -2.438794  0.489798  0.727465
O    -3.222390  1.288302  0.218214
H    -0.074721  -0.370182  2.849417
H    -2.137348  0.452907  2.817491
C    -1.447273  2.388151  2.172826
C    -2.419745  3.024118  3.182765
C    -3.893749  3.132425  2.757136
C    -4.760955  1.918409  3.095836
N    -6.092819  2.074402  2.501906
H    -1.554629  2.895622  1.203994
H    -0.424404  2.576083  2.528483
H    -2.043897  4.039257  3.380021
H    -2.342348  2.493626  4.148795
H    -3.939565  3.303188  1.671184
H    -4.353448  4.011075  3.232795
H    -4.881557  1.851774  4.189242
H    -4.253913  0.986558  2.778998
H    -6.012304  2.037988  1.483882
H    -6.701123  1.301579  2.772648
N    -2.294575  -0.796374  0.308501
C    -3.025253  -1.343757  -0.816909
H    -1.552717  -1.338492  0.738680
H    -2.356951  -1.564188  -1.661927
H    -3.759644  -0.595832  -1.133985
H    -3.550226  -2.265575  -0.532327
