33
Energy: -18209.7062823 eV PBE+vdW (tier 2 basis)
C    0.030897  -0.185687  0.331402
C    -0.203637  -0.075897  1.824299
O    0.463146  0.699342  2.529408
H    1.092806  -0.392038  0.149626
H    -0.196742  0.783013  -0.132189
H    -0.582650  -0.961004  -0.142853
N    -1.184540  -0.871163  2.318794
C    -1.569313  -0.855728  3.727930
C    -0.645763  -1.758279  4.597266
O    -1.056953  -2.733778  5.228846
H    -1.558970  -1.620733  1.712474
H    -1.373013  0.171829  4.072444
C    -3.064708  -1.155817  3.938491
C    -3.791400  -2.112779  2.977566
C    -3.434375  -3.609239  2.995588
C    -2.116500  -4.031853  2.338227
N    -1.943945  -3.413073  1.005264
H    -3.596870  -0.194891  3.885201
H    -3.173864  -1.525291  4.967778
H    -3.722597  -1.726346  1.948422
H    -4.859447  -2.038824  3.233294
H    -4.254919  -4.147442  2.490349
H    -3.417536  -3.974532  4.032645
H    -2.089958  -5.135317  2.300184
H    -1.267821  -3.724532  2.962228
H    -2.726803  -3.658005  0.395438
H    -1.105029  -3.781731  0.555629
N    0.644379  -1.335424  4.595129
C    1.698867  -2.021183  5.312468
H    0.855757  -0.502295  4.035123
H    2.190399  -1.347575  6.028535
H    2.461917  -2.414109  4.624333
H    1.250185  -2.856618  5.860662
