33
Energy: -18209.3216959 eV PBE+vdW (tier 2 basis)
C    -0.075920  0.582591  -0.422043
C    0.118962  0.087852  0.999485
O    1.226550  0.018954  1.524746
H    -0.801134  1.406057  -0.478646
H    -0.436525  -0.223829  -1.076669
H    0.893211  0.926415  -0.792095
N    -1.011864  -0.265366  1.704807
C    -2.386186  -0.358378  1.233766
C    -3.287684  0.821278  1.686043
O    -4.508148  0.777645  1.542457
H    -0.804077  -0.653312  2.622353
H    -2.362820  -0.256988  0.138849
C    -3.014943  -1.738857  1.515471
C    -3.031232  -2.274940  2.958314
C    -3.971427  -1.557067  3.943887
C    -3.303553  -0.455704  4.771716
N    -4.319152  0.372439  5.426953
H    -2.473974  -2.460686  0.885367
H    -4.046675  -1.696185  1.139621
H    -2.008148  -2.319508  3.373009
H    -3.338398  -3.328077  2.882060
H    -4.413666  -2.283967  4.639699
H    -4.812199  -1.119505  3.384740
H    -2.610730  0.126752  4.133496
H    -2.681023  -0.915637  5.555498
H    -3.889075  1.079908  6.022274
H    -4.869575  0.866603  4.722228
N    -2.620618  1.901868  2.172822
C    -3.299330  3.087425  2.655117
H    -1.622218  1.796543  2.319269
H    -2.839542  3.994475  2.241843
H    -3.275847  3.146582  3.753738
H    -4.343644  3.031141  2.329194
