33
Energy: -18208.8540838 eV PBE+vdW (tier 2 basis)
C    -0.288579  -0.037986  -0.442457
C    0.195445  0.104021  0.987175
O    1.388393  0.030466  1.271604
H    -0.851961  0.843871  -0.773449
H    -0.932988  -0.920639  -0.551678
H    0.590179  -0.159037  -1.080847
N    -0.731933  0.324348  1.979902
C    -2.199534  0.348077  1.958520
C    -2.756566  -1.078705  1.662072
O    -2.547880  -1.944375  2.511160
H    -0.305289  0.273400  2.899748
H    -2.466209  0.444069  3.021113
C    -2.793431  1.586145  1.268987
C    -4.258808  1.824842  1.648826
C    -4.927268  2.910668  0.803534
C    -6.418639  3.091095  1.093002
N    -7.179031  1.873848  0.764228
H    -2.694620  1.538487  0.177510
H    -2.184423  2.446663  1.584455
H    -4.318364  2.093256  2.717319
H    -4.823071  0.884408  1.544947
H    -4.812695  2.661891  -0.264062
H    -4.412299  3.872009  0.963166
H    -6.804462  3.901848  0.458929
H    -6.551728  3.422552  2.142061
H    -7.104057  1.185064  1.512878
H    -8.171769  2.088389  0.678686
N    -3.438990  -1.412910  0.520104
C    -3.889430  -0.667304  -0.649064
H    -3.717060  -2.389645  0.560337
H    -4.249017  -1.396340  -1.383424
H    -3.076406  -0.106387  -1.122519
H    -4.719940  0.018951  -0.429187
