33
Energy: -18209.148057 eV PBE+vdW (tier 2 basis)
C    0.159790  -0.099855  0.181457
C    -0.001313  0.180475  1.666047
O    0.925134  0.592446  2.357243
H    -0.784225  -0.295130  -0.342679
H    0.815733  -0.972155  0.061103
H    0.662851  0.754156  -0.286312
N    -1.256530  -0.050557  2.166089
C    -1.624426  -0.000267  3.583202
C    -0.911193  1.123485  4.381941
O    -0.338354  0.883782  5.439991
H    -1.944731  -0.443853  1.534984
H    -2.693466  0.276896  3.599528
C    -1.495228  -1.363627  4.285040
C    -0.117083  -2.023516  4.205450
C    -0.032804  -3.308445  5.030566
C    1.341892  -3.997137  4.968168
N    2.487745  -3.255241  5.502371
H    -2.255355  -2.037776  3.854642
H    -1.767821  -1.211479  5.339369
H    0.634482  -1.302667  4.553040
H    0.127988  -2.255063  3.155413
H    -0.799663  -4.026127  4.688217
H    -0.272837  -3.082968  6.084179
H    1.573920  -4.251367  3.920779
H    1.286378  -4.955844  5.506795
H    2.621976  -2.382886  4.989800
H    2.315105  -2.988847  6.473232
N    -1.079129  2.412879  3.953790
C    -1.659486  2.909987  2.721534
H    -0.540038  3.067902  4.511663
H    -0.967987  2.846156  1.866289
H    -1.935748  3.961490  2.865452
H    -2.575243  2.362273  2.468326
