33
Energy: -18209.3204895 eV PBE+vdW (tier 2 basis)
C    -1.790444  -2.815667  -1.309483
C    -1.122816  -2.757838  0.048810
O    -0.307901  -3.601112  0.415963
H    -1.771430  -1.849193  -1.830043
H    -2.841461  -3.121848  -1.205742
H    -1.268648  -3.565275  -1.910027
N    -1.444033  -1.696432  0.874787
C    -2.677816  -0.908509  0.822783
C    -2.455184  0.563024  1.238818
O    -3.404870  1.285791  1.530435
H    -1.050328  -1.833560  1.805208
H    -2.979313  -0.851855  -0.233646
C    -3.826332  -1.566291  1.605376
C    -3.581671  -1.710914  3.117070
C    -4.411067  -2.838637  3.757066
C    -3.739879  -4.218385  3.749705
N    -3.420137  -4.713961  2.398311
H    -4.002191  -2.557877  1.165426
H    -4.735275  -0.971927  1.441926
H    -3.804756  -0.751372  3.603434
H    -2.514789  -1.906941  3.328745
H    -5.387319  -2.906930  3.251097
H    -4.621860  -2.586700  4.807894
H    -4.432826  -4.937733  4.209831
H    -2.850668  -4.179089  4.410282
H    -3.323413  -5.728502  2.416407
H    -2.513225  -4.363911  2.085592
N    -1.159111  0.979287  1.216919
C    -0.770051  2.345045  1.505208
H    -0.464872  0.303301  0.915129
H    -0.383476  2.851678  0.609075
H    -0.001579  2.377558  2.289186
H    -1.662059  2.877333  1.852899
