33
Energy: -18209.4588861 eV PBE+vdW (tier 2 basis)
C    2.729654  -0.742543  2.409018
C    1.294907  -0.449550  2.023850
O    1.012403  0.171358  0.990157
H    2.831288  -1.275867  3.362055
H    3.283475  0.202591  2.464337
H    3.188782  -1.344198  1.614414
N    0.344612  -0.904629  2.882908
C    -1.094850  -0.833842  2.638693
C    -1.708641  0.555026  2.996919
O    -2.679616  0.678091  3.742796
H    0.645603  -1.357424  3.737609
H    -1.215482  -0.921635  1.546505
C    -1.835921  -2.010535  3.302519
C    -1.340902  -2.492789  4.677827
C    -1.466358  -1.526822  5.865085
C    -2.907373  -1.274363  6.351229
N    -3.655961  -2.433987  6.844927
H    -1.784410  -2.865801  2.613320
H    -2.891905  -1.716659  3.369035
H    -0.296753  -2.843501  4.598218
H    -1.899090  -3.413638  4.914784
H    -1.013147  -0.551537  5.625305
H    -0.881409  -1.937971  6.705773
H    -3.487837  -0.805863  5.546207
H    -2.868694  -0.531215  7.162126
H    -3.861982  -3.091420  6.093267
H    -3.121486  -2.946535  7.548121
N    -1.094524  1.585489  2.363707
C    -1.519748  2.962385  2.516359
H    -0.351267  1.347959  1.698561
H    -1.938462  3.357429  1.579167
H    -0.678093  3.600500  2.819159
H    -2.294813  2.997496  3.289044
