33
Energy: -18209.59433 eV PBE+vdW (tier 2 basis)
C    -2.189136  0.279988  0.030409
C    -1.286189  0.069050  1.234279
O    -0.064607  0.187597  1.165306
H    -3.254453  0.154532  0.260411
H    -1.903932  -0.427106  -0.758967
H    -2.018338  1.289813  -0.363188
N    -1.940348  -0.288120  2.387453
C    -1.238978  -0.324297  3.666662
C    -0.621140  -1.690982  4.034629
O    0.009353  -1.824505  5.082910
H    -2.965732  -0.179190  2.408034
H    -0.364951  0.338310  3.562339
C    -2.114835  0.198573  4.825764
C    -3.136348  -0.777355  5.442005
C    -4.173690  -1.465133  4.538465
C    -5.286738  -0.590427  3.956010
N    -4.805336  0.360864  2.927318
H    -2.591991  1.131783  4.489383
H    -1.428004  0.488089  5.631850
H    -3.670459  -0.238928  6.243067
H    -2.563238  -1.566508  5.950371
H    -4.666484  -2.242632  5.143861
H    -3.674574  -2.004484  3.718642
H    -5.822508  -0.079220  4.776962
H    -6.019727  -1.247965  3.467608
H    -5.564694  0.606789  2.292751
H    -4.509194  1.236647  3.359517
N    -0.834444  -2.690771  3.140455
C    -0.241423  -4.004034  3.278610
H    -1.308670  -2.433555  2.281506
H    0.216680  -4.057421  4.272411
H    0.537531  -4.175819  2.521374
H    -1.002404  -4.791582  3.189795
