33
Energy: -18209.3306684 eV PBE+vdW (tier 2 basis)
C    -0.877651  1.055783  -0.542143
C    -0.358880  0.661794  0.825038
O    0.831846  0.695286  1.121013
H    -1.504276  1.956728  -0.483847
H    -1.496788  0.266057  -0.989513
H    -0.019025  1.257079  -1.187314
N    -1.296026  0.266695  1.759857
C    -2.729960  0.058255  1.567134
C    -3.477533  1.390152  1.307108
O    -4.410442  1.470593  0.508237
H    -0.879718  -0.080171  2.620480
H    -2.916919  -0.558237  0.673444
C    -3.268757  -0.683870  2.814324
C    -4.590414  -1.459903  2.675037
C    -5.848973  -0.666587  2.293550
C    -6.181471  0.519059  3.214100
N    -7.195820  1.449731  2.708020
H    -3.326372  0.028720  3.651887
H    -2.497193  -1.419584  3.093348
H    -4.755944  -1.968591  3.639008
H    -4.445966  -2.264713  1.936604
H    -6.704295  -1.361701  2.280661
H    -5.743926  -0.283976  1.269104
H    -5.275323  1.113219  3.406055
H    -6.510083  0.154237  4.200660
H    -8.081097  0.961775  2.561049
H    -6.902577  1.788289  1.788648
N    -3.048379  2.443671  2.046560
C    -3.690863  3.744065  1.973788
H    -2.204682  2.327225  2.595983
H    -4.729101  3.688847  2.330469
H    -3.707338  4.117054  0.940605
H    -3.136185  4.448827  2.601225
