33
Energy: -18209.126501 eV PBE+vdW (tier 2 basis)
C    -0.177950  -0.428299  -0.704604
C    0.269935  -0.533223  0.737314
O    1.442061  -0.748662  1.041925
H    -0.170838  0.629069  -1.006264
H    -1.185506  -0.817311  -0.890420
H    0.551901  -0.960120  -1.321497
N    -0.664602  -0.355736  1.734400
C    -2.092324  -0.029398  1.665525
C    -2.910899  -1.153881  0.976381
O    -3.552751  -0.959861  -0.054340
H    -0.246562  -0.419940  2.658394
H    -2.418773  -0.017755  2.715867
C    -2.423495  1.338018  1.040574
C    -1.534423  2.519941  1.449788
C    -1.673177  3.044655  2.887863
C    -0.982141  2.233095  4.001589
N    0.468634  2.058622  3.915062
H    -3.474301  1.560694  1.281976
H    -2.403229  1.228611  -0.051328
H    -1.780362  3.346842  0.767106
H    -0.477969  2.284920  1.239939
H    -2.744173  3.140610  3.138381
H    -1.263930  4.067984  2.921999
H    -1.437535  1.232913  4.082889
H    -1.195132  2.718530  4.966053
H    0.944745  2.957195  3.999682
H    0.749649  1.666664  3.015115
N    -2.892848  -2.382222  1.574246
C    -2.182916  -2.813601  2.766669
H    -3.407523  -3.082930  1.050041
H    -2.634041  -3.747422  3.120290
H    -2.280001  -2.079320  3.577753
H    -1.113007  -2.988840  2.581958
