33
Energy: -18209.0692597 eV PBE+vdW (tier 2 basis)
C    -0.657342  -0.205684  -0.096834
C    -0.628599  -0.433849  1.404175
O    -0.078165  -1.407270  1.906593
H    -1.118067  0.744667  -0.395447
H    -1.209097  -1.030706  -0.565111
H    0.370006  -0.240331  -0.478469
N    -1.254715  0.537631  2.150514
C    -1.453966  0.402079  3.593053
C    -2.927171  0.611391  3.989971
O    -3.544142  -0.278837  4.566911
H    -1.769540  1.248195  1.646457
H    -1.266795  -0.657750  3.809610
C    -0.479967  1.238348  4.449459
C    0.975538  0.776546  4.323026
C    1.952174  1.541324  5.224221
C    2.151681  3.009129  4.844287
N    3.136909  3.640918  5.730271
H    -0.802918  1.148226  5.499656
H    -0.563254  2.303416  4.189461
H    1.298979  0.863249  3.273572
H    1.026488  -0.296340  4.558557
H    2.931905  1.036592  5.182100
H    1.628706  1.488785  6.275952
H    1.207120  3.562080  4.964542
H    2.413325  3.064464  3.766919
H    4.051032  3.200956  5.612753
H    3.257243  4.625602  5.493355
N    -3.560854  1.791009  3.667252
C    -3.010938  3.084732  3.294026
H    -4.517349  1.795591  4.012700
H    -3.737145  3.621122  2.670037
H    -2.090557  2.979296  2.711166
H    -2.775840  3.711260  4.169690
