33
Energy: -18209.5229994 eV PBE+vdW (tier 2 basis)
C    -1.591430  -1.792880  -1.055859
C    -2.081345  -1.283455  0.287212
O    -3.015342  -0.486299  0.386323
H    -0.744137  -2.485632  -0.982513
H    -1.300821  -0.933733  -1.672956
H    -2.422056  -2.296215  -1.566210
N    -1.418264  -1.771775  1.374478
C    -1.738081  -1.362381  2.728673
C    -0.435881  -1.444076  3.535443
O    0.393934  -2.328651  3.316148
H    -0.624833  -2.400627  1.283217
H    -2.108436  -0.328176  2.674415
C    -2.837433  -2.269903  3.336432
C    -3.327723  -1.895576  4.739511
C    -3.969209  -0.508779  4.847830
C    -4.571462  -0.235711  6.224229
N    -5.028092  1.156040  6.326731
H    -2.452160  -3.300540  3.340813
H    -3.681262  -2.244094  2.630962
H    -2.500765  -1.977417  5.463965
H    -4.065246  -2.653850  5.047958
H    -4.749528  -0.404766  4.074658
H    -3.241068  0.291615  4.638153
H    -3.798610  -0.387816  6.994892
H    -5.363056  -0.986048  6.424071
H    -5.411264  1.340628  7.253857
H    -5.784801  1.330218  5.663217
N    -0.292828  -0.500847  4.504401
C    0.831765  -0.471322  5.420475
H    -1.018544  0.200507  4.596255
H    0.499976  -0.594219  6.461029
H    1.387914  0.472045  5.334017
H    1.495087  -1.301265  5.156173
