33
Energy: -18209.0776512 eV PBE+vdW (tier 2 basis)
C    0.249883  0.808782  1.791630
C    -0.496637  -0.072931  2.768346
O    0.052346  -0.516960  3.780866
H    -0.321144  1.687761  1.470310
H    0.490935  0.229847  0.889982
H    1.172836  1.134879  2.277758
N    -1.793275  -0.444432  2.497811
C    -2.830507  0.143691  1.651384
C    -2.304718  0.497976  0.240449
O    -1.743558  -0.348678  -0.447554
H    -2.138833  -1.079751  3.213312
H    -3.519240  -0.686999  1.424362
C    -3.655761  1.194842  2.430248
C    -2.901950  2.419383  2.986784
C    -3.350962  2.826740  4.397264
C    -2.874451  1.870176  5.501865
N    -1.410004  1.838569  5.604369
H    -4.101673  0.645529  3.274133
H    -4.516356  1.507310  1.817205
H    -3.021465  3.285683  2.316249
H    -1.821065  2.226005  3.028202
H    -4.450858  2.905435  4.432863
H    -2.948885  3.824793  4.625044
H    -3.313794  0.865339  5.346848
H    -3.285660  2.228847  6.456359
H    -1.119667  1.734853  6.573980
H    -0.999590  1.050036  5.101187
N    -2.564475  1.763835  -0.193362
C    -2.166908  2.230941  -1.507738
H    -2.969425  2.424851  0.457605
H    -3.015047  2.690795  -2.031860
H    -1.817260  1.362896  -2.076005
H    -1.348729  2.963199  -1.443865
