33
Energy: -18209.4249999 eV PBE+vdW (tier 2 basis)
C    0.138807  -1.523079  -0.022513
C    0.155645  -1.500890  1.495254
O    0.734492  -2.363413  2.157862
H    -0.426956  -0.696190  -0.468898
H    -0.292039  -2.475261  -0.355851
H    1.172924  -1.486926  -0.387357
N    -0.504370  -0.457136  2.071108
C    -0.643745  -0.326975  3.507095
C    -1.937473  0.459833  3.749076
O    -2.421315  1.189564  2.875111
H    -1.055930  0.199976  1.523997
H    -0.763092  -1.343764  3.912682
C    0.612141  0.283193  4.202953
C    1.335149  1.405774  3.447993
C    0.633717  2.764051  3.293140
C    0.413243  3.565668  4.580074
N    -0.703400  3.035508  5.385020
H    1.321043  -0.547210  4.327260
H    0.331731  0.630755  5.205037
H    1.598323  1.036459  2.445118
H    2.297066  1.570303  3.961393
H    -0.329732  2.647966  2.772186
H    1.257318  3.381286  2.627397
H    0.274367  4.629889  4.307995
H    1.322803  3.518691  5.200920
H    -1.568614  3.115820  4.846795
H    -0.831937  3.608393  6.220036
N    -2.562739  0.295701  4.946015
C    -2.056927  -0.345358  6.147021
H    -3.373504  0.899229  5.048096
H    -1.400106  0.325142  6.722876
H    -1.497432  -1.253772  5.896645
H    -2.905028  -0.641184  6.775577
