33
Energy: -18209.159852 eV PBE+vdW (tier 2 basis)
C    0.027066  -0.222113  -0.114132
C    -0.291134  -0.621536  1.315537
O    0.227520  -1.595720  1.854895
H    -0.488220  0.687543  -0.447320
H    -0.245067  -1.051338  -0.779118
H    1.109624  -0.071160  -0.204708
N    -1.185492  0.190143  1.967026
C    -1.705678  -0.169057  3.291657
C    -3.113795  0.404885  3.504919
O    -4.050767  -0.337724  3.787626
H    -1.708855  0.855006  1.409997
H    -1.857104  -1.256207  3.289323
C    -0.720307  0.172774  4.430687
C    -1.181251  -0.277795  5.822637
C    -1.433092  -1.786837  5.977003
C    -0.262581  -2.684113  5.563298
N    0.958972  -2.348869  6.311717
H    -0.521508  1.253172  4.445955
H    0.233967  -0.309988  4.181252
H    -2.099902  0.260012  6.108425
H    -0.404313  0.028616  6.536805
H    -2.323344  -2.086805  5.403640
H    -1.684097  -1.985852  7.032693
H    -0.040787  -2.546106  4.494476
H    -0.578427  -3.739248  5.678311
H    0.865357  -2.626960  7.289859
H    1.756512  -2.862913  5.938917
N    -3.324996  1.755549  3.346187
C    -2.371671  2.856770  3.335573
H    -4.291452  1.999330  3.548658
H    -2.795710  3.692748  2.765079
H    -1.435112  2.562584  2.852233
H    -2.133070  3.213958  4.350056
