33
Energy: -18209.1385432 eV PBE+vdW (tier 2 basis)
C    -0.347234  0.035414  -0.055480
C    -0.171029  0.242437  1.439584
O    0.899906  0.579644  1.933207
H    0.041198  0.915701  -0.580917
H    -1.385367  -0.139921  -0.364637
H    0.262391  -0.824053  -0.362940
N    -1.298744  0.042681  2.192959
C    -1.323174  0.048956  3.656986
C    -0.500082  1.215415  4.269829
O    0.349305  1.014199  5.130640
H    -2.129450  -0.293635  1.720982
H    -2.375588  0.238838  3.934146
C    -0.898079  -1.302150  4.252718
C    -1.381074  -1.528995  5.686736
C    -0.935297  -2.876435  6.257911
C    -1.372345  -3.116835  7.713390
N    -0.810021  -2.230771  8.737333
H    0.198092  -1.366103  4.208788
H    -1.299302  -2.093317  3.599135
H    -2.484205  -1.468681  5.719352
H    -0.996701  -0.713927  6.316538
H    0.164033  -2.951254  6.197551
H    -1.332978  -3.694605  5.632065
H    -1.119170  -4.150155  7.996132
H    -2.470457  -3.045540  7.781507
H    -1.057739  -1.258804  8.549546
H    0.210402  -2.270870  8.717415
N    -0.841111  2.490668  3.906131
C    -1.760448  2.946866  2.881714
H    -0.217047  3.180116  4.313552
H    -2.038855  3.984884  3.100330
H    -2.683004  2.353547  2.886152
H    -1.328707  2.908553  1.868962
