33
Energy: -18209.4457567 eV PBE+vdW (tier 2 basis)
C    -0.253240  -0.833383  -0.341635
C    -0.575961  0.087889  0.818794
O    -0.861966  1.279503  0.672364
H    0.065108  -0.231294  -1.197526
H    -1.162413  -1.392182  -0.613824
H    0.527678  -1.563923  -0.092535
N    -0.575079  -0.516459  2.039632
C    -0.978756  0.150748  3.259739
C    -0.517141  -0.748930  4.413905
O    -0.270504  -1.943541  4.227862
H    -0.327672  -1.497109  2.153957
H    -0.463415  1.123916  3.300572
C    -2.502442  0.443266  3.340300
C    -3.444314  -0.764735  3.468645
C    -3.518715  -1.724318  2.270279
C    -3.968662  -1.073297  0.963144
N    -3.833648  -2.016908  -0.156983
H    -2.745276  1.044856  2.454158
H    -2.673633  1.106714  4.201007
H    -4.453463  -0.367087  3.666851
H    -3.175725  -1.348303  4.363497
H    -4.223549  -2.533650  2.526458
H    -2.549793  -2.212827  2.104600
H    -3.333305  -0.206937  0.731236
H    -4.997251  -0.678942  1.092989
H    -4.429780  -2.833175  -0.009098
H    -4.149763  -1.584137  -1.025203
N    -0.420375  -0.199195  5.656879
C    -0.634911  1.175663  6.072684
H    -0.176397  -0.878801  6.371065
H    0.022419  1.400425  6.921127
H    -0.380479  1.870593  5.264605
H    -1.674749  1.366635  6.379921
