33
Energy: -18209.150611 eV PBE+vdW (tier 2 basis)
C    0.574627  1.604122  1.459082
C    0.430748  0.100627  1.610575
O    1.403615  -0.654245  1.610355
H    1.639651  1.840544  1.396771
H    0.130901  2.134477  2.312653
H    0.077737  1.966292  0.546422
N    -0.841341  -0.386648  1.748690
C    -2.074072  0.325701  1.479793
C    -2.455207  1.270932  2.642869
O    -2.241632  0.979443  3.813808
H    -0.883190  -1.399402  1.818388
H    -1.949315  0.919524  0.559891
C    -3.246622  -0.655563  1.267396
C    -3.035681  -1.797836  0.259760
C    -2.641684  -1.425216  -1.177225
C    -1.134000  -1.190303  -1.408201
N    -0.325588  -2.301610  -0.898008
H    -4.121304  -0.057252  0.967270
H    -3.498150  -1.090727  2.247289
H    -3.981008  -2.360162  0.234335
H    -2.282801  -2.509735  0.631416
H    -3.199111  -0.537096  -1.521691
H    -2.955980  -2.248903  -1.838008
H    -0.811897  -0.275785  -0.894400
H    -0.976734  -0.997854  -2.485312
H    -0.140476  -2.999144  -1.615373
H    0.567757  -1.985835  -0.523919
N    -3.083956  2.437735  2.297057
C    -3.355363  2.959740  0.967508
H    -3.347074  3.003928  3.097190
H    -3.904869  3.901240  1.072925
H    -3.980188  2.279752  0.370504
H    -2.433519  3.174066  0.405295
