33
Energy: -18209.0618811 eV PBE+vdW (tier 2 basis)
C    1.285474  0.915289  0.765908
C    0.641162  1.030984  2.136200
O    1.119002  1.726591  3.026877
H    0.658672  0.413851  0.017866
H    2.224281  0.355297  0.869856
H    1.541309  1.919456  0.409339
N    -0.516698  0.314366  2.295995
C    -1.216490  0.118916  3.564948
C    -1.217198  1.366402  4.485721
O    -0.907823  1.291210  5.672428
H    -0.803460  -0.281893  1.528349
H    -2.280400  -0.004958  3.294176
C    -0.803730  -1.181918  4.295392
C    0.692075  -1.540207  4.351618
C    1.620810  -0.715740  5.258259
C    1.639900  -1.118375  6.743795
N    0.394493  -0.995049  7.511391
H    -1.318459  -2.005784  3.774309
H    -1.235155  -1.132207  5.302480
H    1.086501  -1.517504  3.322879
H    0.753734  -2.600104  4.653763
H    1.389168  0.353162  5.168225
H    2.651060  -0.828926  4.880885
H    2.405946  -0.503225  7.244255
H    1.985532  -2.161420  6.838273
H    -0.084071  -0.130167  7.248588
H    -0.243387  -1.754854  7.275798
N    -1.745313  2.523119  3.983712
C    -2.128557  2.857681  2.625558
H    -1.677471  3.287054  4.649007
H    -2.808553  3.717214  2.658787
H    -2.669084  2.029249  2.152206
H    -1.267132  3.119783  1.991414
