33
Energy: -18209.4237615 eV PBE+vdW (tier 2 basis)
C    -0.204895  -0.594795  -0.408935
C    0.019747  -1.033056  1.025257
O    1.057754  -1.572593  1.398052
H    -0.490684  0.463727  -0.477619
H    -1.007375  -1.182648  -0.877306
H    0.722617  -0.759524  -0.962830
N    -1.001009  -0.784188  1.918394
C    -2.322093  -0.232286  1.646228
C    -2.389307  1.313733  1.658585
O    -3.405261  1.891042  1.276674
H    -0.834685  -1.183898  2.839005
H    -2.632567  -0.518952  0.629900
C    -3.358209  -0.795334  2.632116
C    -3.624905  -2.292128  2.465422
C    -4.678934  -2.819124  3.442134
C    -4.882362  -4.335034  3.369343
N    -3.669230  -5.052396  3.786266
H    -4.283923  -0.221404  2.486129
H    -3.019887  -0.579856  3.661411
H    -2.700744  -2.873765  2.596945
H    -3.962087  -2.482540  1.432122
H    -5.645192  -2.322754  3.257161
H    -4.394464  -2.548047  4.474474
H    -5.093852  -4.622031  2.327254
H    -5.781706  -4.603320  3.956920
H    -3.747623  -6.047329  3.579176
H    -3.540235  -4.975730  4.796124
N    -1.276948  1.943351  2.120321
C    -1.167663  3.385497  2.205931
H    -0.492269  1.356158  2.383192
H    -0.350707  3.761377  1.574148
H    -0.991453  3.709796  3.240987
H    -2.114434  3.810722  1.855399
