33
Energy: -18209.1867029 eV PBE+vdW (tier 2 basis)
C    -0.286150  0.629789  -0.011336
C    -0.258344  0.091444  1.405783
O    0.648359  -0.635230  1.807646
H    -1.188006  1.207770  -0.250223
H    -0.205398  -0.212424  -0.708970
H    0.595653  1.265455  -0.161934
N    -1.311780  0.472836  2.197062
C    -1.391202  0.141168  3.611759
C    -2.427485  -0.933398  4.003393
O    -2.136948  -1.746645  4.877296
H    -1.939068  1.175765  1.825554
H    -0.439108  -0.347297  3.847099
C    -1.570016  1.401130  4.483616
C    -0.377403  2.374332  4.463504
C    0.703156  2.126175  5.527480
C    1.524615  0.835049  5.404605
N    2.292129  0.783636  4.152155
H    -1.770254  1.070028  5.513569
H    -2.483083  1.925497  4.153648
H    -0.764674  3.392923  4.615727
H    0.085588  2.385214  3.463757
H    0.230648  2.143718  6.524464
H    1.408324  2.970930  5.494949
H    0.872928  -0.046485  5.559257
H    2.239272  0.823161  6.240628
H    3.128497  0.216369  4.280105
H    1.764173  0.324287  3.405635
N    -3.668521  -0.951132  3.423718
C    -4.268910  -0.058485  2.448434
H    -4.242581  -1.709318  3.779068
H    -5.353184  -0.216861  2.459507
H    -3.909916  -0.242471  1.424607
H    -4.101380  0.997766  2.702399
