33
Energy: -18209.1535844 eV PBE+vdW (tier 2 basis)
C    0.776268  -1.364961  1.451077
C    0.166317  -0.331276  2.382577
O    0.641280  -0.074242  3.484503
H    0.185043  -1.555088  0.546326
H    0.903637  -2.304637  2.001720
H    1.775945  -1.022873  1.154176
N    -0.958843  0.292048  1.913567
C    -1.627040  1.368468  2.634279
C    -2.091141  1.031071  4.069202
O    -1.985967  1.889770  4.940920
H    -1.302154  0.052987  0.990692
H    -0.909268  2.185562  2.801708
C    -2.794902  1.888981  1.776514
C    -3.504097  3.120075  2.342414
C    -4.609952  3.632927  1.417927
C    -5.334910  4.856752  1.974663
N    -6.406910  5.285584  1.066090
H    -3.529443  1.079675  1.624973
H    -2.388675  2.132525  0.779566
H    -2.762676  3.915141  2.520591
H    -3.925832  2.883730  3.330820
H    -5.354111  2.841928  1.232471
H    -4.180118  3.886156  0.432344
H    -4.590382  5.648195  2.194918
H    -5.800988  4.593095  2.936701
H    -6.935930  6.055020  1.476656
H    -6.010605  5.643497  0.195483
N    -2.702631  -0.163791  4.338114
C    -2.889018  -1.345331  3.514125
H    -2.920710  -0.252507  5.325890
H    -3.648941  -1.976299  3.990340
H    -1.968508  -1.939187  3.403881
H    -3.259748  -1.087993  2.515332
