33
Energy: -18209.2702491 eV PBE+vdW (tier 2 basis)
C    -1.096233  0.223438  0.315322
C    0.337484  0.678050  0.542477
O    1.235235  0.395662  -0.247950
H    -1.506219  -0.326503  1.172332
H    -1.102363  -0.424905  -0.564646
H    -1.755343  1.082420  0.121720
N    0.599476  1.418151  1.667002
C    -0.324335  1.939911  2.658260
C    -0.036211  3.444524  2.824472
O    1.104507  3.888046  2.718907
H    1.533000  1.827643  1.702840
H    -1.352043  1.797612  2.293238
C    -0.160839  1.244012  4.029137
C    -0.540634  -0.241098  4.016120
C    -0.099026  -1.006321  5.278505
C    1.289371  -1.647952  5.182016
N    2.362596  -0.664223  4.969117
H    -0.778458  1.772348  4.773555
H    0.881319  1.371651  4.355465
H    -0.098561  -0.728242  3.131376
H    -1.632381  -0.326548  3.893383
H    -0.127306  -0.334294  6.151002
H    -0.817950  -1.814734  5.482226
H    1.258173  -2.433715  4.400138
H    1.499228  -2.162442  6.131175
H    3.269452  -1.092007  5.154280
H    2.391171  -0.368034  3.992228
N    -1.120146  4.210233  3.134836
C    -1.025671  5.629826  3.423390
H    -2.025165  3.759210  3.191660
H    -1.652411  6.215355  2.737191
H    0.020517  5.922853  3.287482
H    -1.326235  5.848884  4.457633
