33
Energy: -18209.5032353 eV PBE+vdW (tier 2 basis)
C    -5.311582  3.283371  2.059349
C    -3.868035  2.831206  2.128530
O    -3.069371  3.057773  1.211689
H    -5.780528  2.838185  1.173091
H    -5.331470  4.372364  1.927780
H    -5.899833  3.020594  2.946969
N    -3.503319  2.168787  3.261936
C    -2.137890  1.695830  3.499070
C    -1.930593  0.328503  2.792638
O    -1.974928  -0.742838  3.395407
H    -4.212567  1.930705  3.946331
H    -1.483181  2.437749  3.019447
C    -1.865592  1.627720  5.000881
C    -0.429461  1.270185  5.414343
C    0.673444  2.228515  4.927255
C    1.343159  1.815880  3.613984
N    2.370821  2.792991  3.232887
H    -2.545096  0.880596  5.440929
H    -2.132778  2.608060  5.427302
H    -0.205945  0.243236  5.089105
H    -0.418935  1.241934  6.513486
H    1.459579  2.285992  5.698145
H    0.285995  3.254867  4.823012
H    0.607974  1.782262  2.796645
H    1.724161  0.780752  3.725731
H    2.781725  2.548462  2.332019
H    3.135175  2.785935  3.910383
N    -1.708841  0.455665  1.456339
C    -1.610997  -0.691173  0.575013
H    -1.876498  1.383908  1.060020
H    -2.554452  -0.878585  0.039230
H    -1.377696  -1.571652  1.182884
H    -0.813443  -0.536777  -0.162828
