33
Energy: -18209.4385245 eV PBE+vdW (tier 2 basis)
C    0.955486  2.029913  -0.319108
C    0.252756  1.182927  0.725188
O    0.246134  -0.046863  0.673509
H    0.530878  1.797716  -1.303632
H    2.015616  1.748766  -0.346209
H    0.876032  3.108548  -0.137329
N    -0.347126  1.884672  1.735075
C    -1.198139  1.241606  2.716644
C    -2.465518  2.097682  2.846791
O    -2.443979  3.300236  2.572655
H    -0.496820  2.887886  1.645373
H    -1.421454  0.237661  2.325281
C    -0.517719  1.105461  4.098622
C    0.725065  0.214971  4.083335
C    1.380810  0.093561  5.460163
C    2.636113  -0.776698  5.450747
N    3.199938  -0.895161  6.802457
H    -1.248243  0.704205  4.819241
H    -0.258474  2.116440  4.452656
H    1.451281  0.616970  3.360423
H    0.453458  -0.784312  3.706905
H    0.670671  -0.325324  6.190940
H    1.642953  1.100338  5.831110
H    3.347604  -0.373832  4.701886
H    2.370851  -1.790427  5.112178
H    4.002954  -1.524210  6.800417
H    3.547015  0.011141  7.120728
N    -3.598317  1.495101  3.304672
C    -3.798604  0.107350  3.684451
H    -4.369432  2.142305  3.439688
H    -4.850556  -0.157922  3.527291
H    -3.547026  -0.083482  4.739513
H    -3.193087  -0.558655  3.059629
