33
Energy: -18209.0438599 eV PBE+vdW (tier 2 basis)
C    -1.715445  1.576644  0.448923
C    -0.968415  1.043401  1.659019
O    0.250593  0.892038  1.664288
H    -1.187990  2.459607  0.070737
H    -2.762596  1.836610  0.649069
H    -1.689650  0.815795  -0.343246
N    -1.751642  0.726644  2.734807
C    -1.243066  0.118330  3.966072
C    -0.136926  0.977671  4.640204
O    0.902169  0.475001  5.050926
H    -2.753995  0.823994  2.636042
H    -2.102975  0.120926  4.658748
C    -0.752144  -1.328756  3.814847
C    -1.770965  -2.320519  3.225365
C    -1.911974  -2.396255  1.693578
C    -0.785568  -3.119475  0.926798
N    0.554689  -2.530208  0.900436
H    -0.464839  -1.658278  4.822081
H    0.177332  -1.312010  3.237223
H    -2.763978  -2.115355  3.662858
H    -1.505520  -3.328286  3.585668
H    -2.045669  -1.392780  1.264021
H    -2.845938  -2.938639  1.466769
H    -1.121111  -3.233739  -0.117624
H    -0.685311  -4.144417  1.319424
H    1.021084  -2.636262  1.799723
H    0.520875  -1.525619  0.716460
N    -0.386334  2.313021  4.819509
C    -1.572495  3.095441  4.528103
H    0.402346  2.794324  5.239304
H    -1.568364  3.984427  5.170329
H    -2.489127  2.536144  4.757783
H    -1.621876  3.427381  3.479738
