33
Energy: -18209.130484 eV PBE+vdW (tier 2 basis)
C    -0.142700  -0.449280  -0.165108
C    0.067677  -0.386115  1.336590
O    1.113894  -0.764487  1.856192
H    -1.149196  -0.779888  -0.449850
H    0.595555  -1.143917  -0.574703
H    0.032363  0.540881  -0.609657
N    -0.934273  0.150831  2.111451
C    -2.278294  0.570169  1.737664
C    -3.105711  -0.631436  1.192827
O    -2.986499  -1.746432  1.686800
H    -0.733520  0.070503  3.102569
H    -2.774468  0.793327  2.695283
C    -2.312658  1.866620  0.897858
C    -1.450302  3.006509  1.461545
C    -1.801925  3.468698  2.881400
C    -3.221491  4.012103  3.044057
N    -3.448309  4.441810  4.427945
H    -3.358538  2.208273  0.832066
H    -1.984699  1.661956  -0.132305
H    -1.527468  3.861844  0.771323
H    -0.396496  2.694242  1.444983
H    -1.088119  4.257622  3.170378
H    -1.650698  2.657573  3.610197
H    -3.956911  3.220796  2.828291
H    -3.389905  4.807885  2.288673
H    -2.836825  5.225206  4.662449
H    -4.404876  4.772259  4.553107
N    -3.982706  -0.350543  0.184357
C    -4.860442  -1.355992  -0.385527
H    -3.992613  0.582993  -0.205494
H    -4.708149  -2.282714  0.177373
H    -5.913596  -1.053733  -0.304493
H    -4.623910  -1.540114  -1.443142
