33
Energy: -18209.2321614 eV PBE+vdW (tier 2 basis)
C    0.192975  -0.315087  1.183814
C    0.030821  -0.929130  2.564337
O    0.986273  -1.367377  3.199769
H    -0.112683  0.740671  1.169029
H    -0.405052  -0.843804  0.428755
H    1.249867  -0.380041  0.913224
N    -1.238272  -0.963869  3.090345
C    -2.495752  -0.609906  2.433842
C    -3.380619  0.055832  3.511662
O    -4.194807  -0.590972  4.167463
H    -1.301506  -1.452384  3.981052
H    -2.263508  0.128560  1.654676
C    -3.201792  -1.805018  1.785518
C    -4.374766  -1.394346  0.894016
C    -5.082562  -2.588815  0.250577
C    -6.185855  -2.196503  -0.734962
N    -5.631698  -1.489940  -1.900500
H    -3.544125  -2.481450  2.582859
H    -2.452830  -2.353998  1.193095
H    -4.024370  -0.718502  0.097985
H    -5.107521  -0.826522  1.489759
H    -5.520936  -3.226713  1.034440
H    -4.343195  -3.220156  -0.274007
H    -6.888720  -1.510432  -0.236693
H    -6.765509  -3.101534  -1.001197
H    -5.105850  -2.139435  -2.487571
H    -6.380941  -1.118306  -2.483739
N    -3.185413  1.390222  3.727646
C    -2.171048  2.250423  3.139824
H    -3.730349  1.755566  4.502421
H    -2.307145  3.262648  3.534489
H    -2.269656  2.309505  2.046540
H    -1.150954  1.920966  3.387078
