33
Energy: -18209.2379622 eV PBE+vdW (tier 2 basis)
C    0.509046  -0.138809  0.283860
C    0.243935  -0.007135  1.771239
O    1.122579  0.305945  2.571285
H    0.567116  0.870384  -0.146584
H    -0.263349  -0.703903  -0.252682
H    1.480995  -0.621296  0.136269
N    -1.047570  -0.253921  2.158620
C    -1.543736  0.052468  3.500669
C    -1.061448  1.468953  3.919915
O    -1.284715  2.426604  3.185241
H    -1.738359  -0.357002  1.426066
H    -2.627034  0.204489  3.377480
C    -1.386635  -1.116970  4.495775
C    0.009902  -1.714335  4.698188
C    0.008527  -2.868860  5.703968
C    1.401837  -3.431434  5.992026
N    2.007300  -4.019955  4.789371
H    -2.050511  -1.923230  4.143983
H    -1.810256  -0.795993  5.462490
H    0.734239  -0.946927  5.017263
H    0.381727  -2.070060  3.727075
H    -0.631539  -3.683932  5.329466
H    -0.431587  -2.529066  6.656792
H    1.313187  -4.231791  6.741160
H    2.020318  -2.634188  6.454270
H    2.293366  -3.289243  4.136783
H    2.855834  -4.529588  5.033900
N    -0.505904  1.589562  5.157011
C    0.040743  2.856517  5.608873
H    -0.159027  0.744715  5.594415
H    0.068901  2.875171  6.704633
H    -0.603901  3.664454  5.247851
H    1.055048  3.028582  5.216144
