33
Energy: -18209.1994764 eV PBE+vdW (tier 2 basis)
C    0.145428  -0.071015  0.063540
C    0.048331  0.902729  1.226227
O    0.782969  1.884542  1.306505
H    -0.833837  -0.409595  -0.301701
H    0.715586  -0.961074  0.365354
H    0.685521  0.424027  -0.747956
N    -0.883577  0.638594  2.194579
C    -1.817205  -0.463329  2.290397
C    -2.908455  -0.023381  3.287699
O    -2.720152  0.890170  4.091667
H    -0.943393  1.313371  2.957756
H    -2.309955  -0.606357  1.314402
C    -1.171609  -1.831234  2.679875
C    -0.034113  -1.786568  3.711872
C    -0.364608  -1.226880  5.101247
C    -1.482792  -1.952318  5.848878
N    -1.769099  -1.257823  7.109377
H    -0.776452  -2.282052  1.757841
H    -1.965269  -2.512074  3.019223
H    0.798426  -1.201124  3.294702
H    0.346059  -2.816464  3.813085
H    -0.634418  -0.163628  5.020124
H    0.542584  -1.259157  5.722342
H    -1.162183  -2.979046  6.089230
H    -2.372467  -2.049627  5.194145
H    -2.117527  -0.318287  6.908354
H    -2.504140  -1.737612  7.628841
N    -4.103253  -0.680832  3.245961
C    -4.526188  -1.779752  2.396712
H    -4.747173  -0.366121  3.965571
H    -4.270073  -2.764496  2.818274
H    -4.072829  -1.704604  1.401510
H    -5.613793  -1.731745  2.267745
