33
Energy: -18209.1620263 eV PBE+vdW (tier 2 basis)
C    -0.440413  -0.557302  -0.327637
C    -0.154487  0.134309  0.995672
O    0.989447  0.376266  1.370505
H    0.519854  -0.794901  -0.792276
H    -1.013280  0.087596  -1.009028
H    -1.012159  -1.485442  -0.188745
N    -1.237290  0.495674  1.761259
C    -2.645618  0.179319  1.529006
C    -3.461346  1.418318  1.958876
O    -3.958645  1.507288  3.079193
H    -0.989707  0.881090  2.670174
H    -2.765117  0.031941  0.448602
C    -3.098187  -1.083791  2.271817
C    -4.505180  -1.591475  1.924283
C    -4.723555  -1.993958  0.451651
C    -5.392471  -0.918455  -0.406290
N    -5.561119  -1.387536  -1.785628
H    -3.041293  -0.880979  3.350686
H    -2.360120  -1.871586  2.052612
H    -5.250882  -0.838441  2.223391
H    -4.698280  -2.463076  2.565307
H    -5.349652  -2.895418  0.391471
H    -3.757883  -2.277043  -0.005545
H    -4.834266  0.036032  -0.324376
H    -6.394320  -0.714102  0.001999
H    -6.061714  -0.699124  -2.347156
H    -4.653768  -1.528035  -2.232338
N    -3.574055  2.426821  1.043416
C    -2.931578  2.528407  -0.256445
H    -4.051903  3.246110  1.405434
H    -1.834290  2.537764  -0.180481
H    -3.249304  3.465115  -0.725939
H    -3.233390  1.708986  -0.925748
