33
Energy: -18209.0053202 eV PBE+vdW (tier 2 basis)
C    0.764419  -0.510548  -1.126856
C    -0.019736  -1.031296  0.064801
O    -0.229607  -2.232549  0.227218
H    0.807701  0.583878  -1.191505
H    0.316815  -0.909295  -2.044795
H    1.789102  -0.900423  -1.067037
N    -0.421720  -0.072707  0.956218
C    -1.326287  -0.322333  2.087171
C    -1.756904  0.986380  2.772989
O    -2.905466  1.078782  3.198747
H    -0.366362  0.887713  0.636576
H    -2.275922  -0.708800  1.685457
C    -0.872771  -1.383265  3.122770
C    0.402321  -1.141471  3.944671
C    1.753366  -1.304499  3.221138
C    2.309357  -2.742680  3.162730
N    1.516641  -3.776154  2.497038
H    -0.810911  -2.337291  2.589236
H    -1.724993  -1.464498  3.814249
H    0.380228  -1.849111  4.790890
H    0.349022  -0.148351  4.416497
H    2.509424  -0.689452  3.738345
H    1.693359  -0.904782  2.198253
H    2.504686  -3.088836  4.190730
H    3.294855  -2.700696  2.669831
H    1.154510  -3.447551  1.598649
H    0.704002  -4.028934  3.057890
N    -0.901105  2.061871  2.862476
C    0.555624  2.130758  2.852886
H    -1.372780  2.840990  3.317188
H    0.960711  2.203653  3.873588
H    0.886681  3.012307  2.286163
H    0.983938  1.241225  2.387393
