33
Energy: -18209.3468892 eV PBE+vdW (tier 2 basis)
C    -0.212055  0.343576  -0.459773
C    0.122765  0.609853  1.000132
O    1.279792  0.778838  1.378358
H    -0.888717  1.105698  -0.871469
H    -0.693081  -0.635377  -0.594879
H    0.723546  0.358321  -1.024572
N    -0.924216  0.665228  1.881507
C    -2.335438  0.428696  1.627702
C    -3.118318  1.322611  2.605514
O    -2.794927  1.394245  3.789547
H    -0.677978  0.841280  2.854515
H    -2.559213  0.726881  0.593736
C    -2.721555  -1.054635  1.840798
C    -4.184489  -1.411444  1.541180
C    -4.664720  -1.142497  0.107513
C    -3.898889  -1.897411  -0.978501
N    -4.431316  -1.562910  -2.304387
H    -2.492651  -1.304913  2.887000
H    -2.041475  -1.662290  1.225587
H    -4.842128  -0.873572  2.241263
H    -4.323807  -2.480035  1.769342
H    -4.625665  -0.068637  -0.137466
H    -5.731071  -1.415613  0.042403
H    -3.915296  -2.981005  -0.742369
H    -2.840749  -1.595326  -0.970277
H    -5.384509  -1.915216  -2.405082
H    -3.880099  -2.009243  -3.037170
N    -4.180301  1.984705  2.070115
C    -5.064850  2.823118  2.858197
H    -4.367383  1.868018  1.081560
H    -6.095390  2.442017  2.838814
H    -5.060501  3.858409  2.491043
H    -4.697866  2.809966  3.889684
