33
Energy: -18208.8349061 eV PBE+vdW (tier 2 basis)
C    0.435230  -0.025619  -0.333976
C    0.008438  0.646859  0.956366
O    0.752118  1.421926  1.553014
H    -0.274860  0.159637  -1.149857
H    0.525017  -1.111605  -0.194002
H    1.412602  0.376501  -0.612266
N    -1.242989  0.373968  1.456798
C    -2.281501  -0.567589  1.020680
C    -1.784517  -2.033238  1.206212
O    -1.551862  -2.405546  2.354657
H    -1.368999  0.776082  2.380361
H    -3.030202  -0.510777  1.824275
C    -3.017975  -0.130774  -0.257094
C    -4.398436  -0.779673  -0.397843
C    -5.094384  -0.427720  -1.714106
C    -6.531093  -0.947968  -1.813007
N    -7.391868  -0.315957  -0.803972
H    -2.417187  -0.299329  -1.160303
H    -3.140332  0.960587  -0.184192
H    -5.038434  -0.462929  0.439259
H    -4.322915  -1.877086  -0.312236
H    -4.516729  -0.825204  -2.565265
H    -5.101192  0.668778  -1.844822
H    -6.537749  -2.032383  -1.619593
H    -6.889062  -0.812446  -2.852108
H    -7.565514  0.660541  -1.046158
H    -8.302740  -0.772024  -0.768640
N    -1.599765  -2.912383  0.168648
C    -1.732253  -2.807772  -1.277349
H    -1.289405  -3.810702  0.527867
H    -1.398620  -3.758320  -1.707297
H    -1.101887  -2.017086  -1.702502
H    -2.770082  -2.645848  -1.598287
