33
Energy: -18208.9265454 eV PBE+vdW (tier 2 basis)
C    0.320318  -0.346355  1.440067
C    -0.644131  -1.476222  1.728537
O    -0.266930  -2.643109  1.804151
H    0.426014  0.307664  2.316667
H    1.293328  -0.791437  1.216373
H    -0.019439  0.249223  0.584857
N    -1.974757  -1.187831  1.970129
C    -2.786866  0.006980  1.770942
C    -2.995723  0.324010  0.269933
O    -2.166145  0.038045  -0.587211
H    -2.499684  -2.049754  2.086226
H    -3.766986  -0.284498  2.171867
C    -2.335831  1.260507  2.591939
C    -1.816261  2.477408  1.815178
C    -1.280923  3.589455  2.731440
C    0.069222  3.300370  3.394465
N    1.159582  3.307359  2.410742
H    -1.580299  0.911331  3.307983
H    -3.187448  1.587736  3.207547
H    -2.628692  2.896454  1.202357
H    -1.043404  2.178246  1.092743
H    -2.024260  3.796730  3.519376
H    -1.171423  4.514355  2.146077
H    0.006521  2.364418  3.987228
H    0.277834  4.102602  4.117185
H    2.062302  3.234124  2.879194
H    1.097415  2.501445  1.788118
N    -4.172207  0.942187  -0.061732
C    -5.229256  1.415221  0.815420
H    -4.228790  1.182627  -1.046734
H    -4.937385  2.302872  1.398941
H    -5.556439  0.632989  1.513789
H    -6.095140  1.685524  0.201813
