33
Energy: -18209.1003109 eV PBE+vdW (tier 2 basis)
C    0.976740  0.276180  0.468357
C    0.550445  0.813395  1.824412
O    1.092926  1.781519  2.346725
H    1.018168  1.109253  -0.243057
H    0.319254  -0.506479  0.069348
H    1.993071  -0.128832  0.557121
N    -0.494233  0.148810  2.412396
C    -0.979401  0.411114  3.768970
C    -1.105648  1.925083  4.085603
O    -0.595279  2.413908  5.087075
H    -0.856322  -0.673572  1.944857
H    -2.006847  0.010306  3.791155
C    -0.133704  -0.312530  4.830778
C    -0.805133  -0.497080  6.200304
C    -2.126651  -1.280983  6.204455
C    -2.063365  -2.701252  5.614328
N    -1.143580  -3.650906  6.248891
H    0.799437  0.251482  4.959220
H    0.140084  -1.291832  4.407351
H    -0.969036  0.490542  6.650295
H    -0.082590  -1.006282  6.858402
H    -2.908806  -0.716754  5.667110
H    -2.485356  -1.347983  7.244982
H    -1.796660  -2.655914  4.545819
H    -3.070714  -3.143951  5.647039
H    -1.359543  -3.742823  7.242971
H    -0.181970  -3.312899  6.197068
N    -1.911115  2.676313  3.271244
C    -2.558674  2.318625  2.024159
H    -1.891174  3.659927  3.521879
H    -3.375869  3.026485  1.840009
H    -3.001779  1.316743  2.081927
H    -1.874597  2.345336  1.161115
