33
Energy: -18209.3751416 eV PBE+vdW (tier 2 basis)
C    0.770810  -1.170415  1.256344
C    0.094776  0.012320  1.922336
O    0.700471  0.763059  2.688383
H    0.120210  -1.720373  0.565460
H    1.126587  -1.856453  2.035349
H    1.651128  -0.810463  0.710030
N    -1.221649  0.194677  1.595538
C    -2.041478  1.222240  2.223873
C    -2.869712  0.560954  3.346332
O    -3.755759  -0.249917  3.068742
H    -1.708633  -0.539782  1.092723
H    -1.331395  1.952908  2.628064
C    -2.965314  1.901697  1.208185
C    -3.746549  3.072749  1.814776
C    -4.763962  3.719733  0.867369
C    -4.154852  4.423647  -0.345072
N    -5.198226  5.127547  -1.104596
H    -3.671806  1.152173  0.816794
H    -2.341389  2.238686  0.368063
H    -3.037822  3.840509  2.170446
H    -4.285727  2.717713  2.706895
H    -5.361154  4.459750  1.420886
H    -5.475011  2.949039  0.521714
H    -3.582254  3.697051  -0.953946
H    -3.431610  5.178546  0.003548
H    -4.791235  5.613742  -1.903855
H    -5.866136  4.456566  -1.488308
N    -2.568600  0.889199  4.631410
C    -1.536502  1.798417  5.116502
H    -3.154185  0.419169  5.315410
H    -1.375040  1.596602  6.181101
H    -1.830771  2.854194  5.012425
H    -0.586583  1.632621  4.592466
