33
Energy: -18209.1816314 eV PBE+vdW (tier 2 basis)
C    -0.632835  0.325745  -0.588024
C    -0.188266  0.510733  0.847780
O    0.944919  0.901228  1.114061
H    -1.702508  0.156399  -0.730009
H    -0.088226  -0.534844  -1.000372
H    -0.324629  1.209113  -1.157671
N    -1.038113  0.144535  1.880972
C    -2.494798  -0.034264  1.936285
C    -3.035526  -1.170506  1.033450
O    -4.194761  -1.174766  0.624222
H    -0.596957  0.345939  2.775769
H    -2.666115  -0.449602  2.944815
C    -3.325226  1.268187  1.908575
C    -3.201652  2.220132  0.708885
C    -3.933630  1.815920  -0.578174
C    -5.457799  1.870705  -0.472375
N    -6.066331  1.304800  -1.684773
H    -3.036639  1.824232  2.813908
H    -4.373582  0.972515  2.053488
H    -2.138231  2.402806  0.491574
H    -3.589429  3.199474  1.034653
H    -3.657991  0.794048  -0.874930
H    -3.615130  2.471304  -1.402555
H    -5.781165  2.920553  -0.388477
H    -5.781216  1.358497  0.452996
H    -7.080100  1.417045  -1.656539
H    -5.893514  0.297600  -1.703843
N    -2.160506  -2.192854  0.834314
C    -2.488902  -3.369964  0.056256
H    -1.218512  -2.070038  1.189983
H    -2.270056  -4.285793  0.621235
H    -1.929732  -3.396156  -0.890778
H    -3.560173  -3.334220  -0.167964
