33
Energy: -18209.5144105 eV PBE+vdW (tier 2 basis)
C    -3.032980  -0.682729  -0.422249
C    -1.874824  -0.922263  0.523678
O    -0.791063  -1.370014  0.124229
H    -3.937235  -0.308006  0.072567
H    -3.268313  -1.620370  -0.940505
H    -2.718334  0.041694  -1.184100
N    -2.099594  -0.616108  1.828620
C    -1.082321  -0.694017  2.878155
C    -0.909516  -2.140995  3.433933
O    -1.078938  -2.418179  4.620778
H    -3.029871  -0.327338  2.108106
H    -0.127785  -0.437712  2.391444
C    -1.367828  0.316660  3.992997
C    -2.790249  0.293291  4.567060
C    -2.901456  1.114103  5.854748
C    -4.320042  1.219878  6.416780
N    -4.889696  -0.106464  6.687943
H    -1.133032  1.325300  3.617928
H    -0.656738  0.101125  4.802655
H    -3.097115  -0.740022  4.773244
H    -3.512417  0.705001  3.838196
H    -2.520586  2.135044  5.686345
H    -2.240421  0.667387  6.617556
H    -4.969474  1.711373  5.673847
H    -4.296022  1.886472  7.301706
H    -5.831352  -0.022175  7.069738
H    -4.332669  -0.594612  7.391406
N    -0.524435  -3.030241  2.482730
C    -0.317903  -4.436429  2.762497
H    -0.396060  -2.668615  1.532414
H    -1.009020  -5.064015  2.181306
H    -0.499578  -4.600860  3.829919
H    0.711866  -4.739162  2.525331
