33
Energy: -18209.5074322 eV PBE+vdW (tier 2 basis)
C    -2.781652  -0.299928  0.198922
C    -2.239000  -0.240843  1.610792
O    -1.857025  0.821140  2.119177
H    -3.683145  0.323829  0.145070
H    -3.032294  -1.313993  -0.135487
H    -2.042535  0.133435  -0.485529
N    -2.210863  -1.420056  2.290029
C    -1.780972  -1.528119  3.684456
C    -0.234718  -1.667291  3.760697
O    0.324785  -2.730518  4.020533
H    -2.465414  -2.273366  1.805507
H    -2.046793  -0.570065  4.154945
C    -2.483174  -2.686758  4.387935
C    -4.016596  -2.617573  4.445062
C    -4.617326  -1.438698  5.234162
C    -4.938523  -0.195797  4.401168
N    -5.596262  0.820066  5.235403
H    -2.080486  -2.738826  5.410063
H    -2.165121  -3.627337  3.911363
H    -4.357460  -3.557504  4.902788
H    -4.438272  -2.622584  3.425669
H    -3.934659  -1.162067  6.057196
H    -5.553484  -1.753789  5.717835
H    -5.646157  -0.479025  3.605380
H    -4.030401  0.177805  3.893396
H    -5.847253  1.632146  4.670962
H    -4.946984  1.161208  5.946621
N    0.407914  -0.495371  3.506458
C    1.851423  -0.402000  3.414606
H    -0.172769  0.283374  3.186713
H    2.219425  0.458753  3.988356
H    2.187043  -0.298168  2.371475
H    2.278751  -1.321080  3.829280
