33
Energy: -18209.2538299 eV PBE+vdW (tier 2 basis)
C    0.133887  -0.106135  1.506484
C    -0.848013  0.212434  2.615767
O    -0.748454  1.227190  3.299504
H    -0.242188  0.314965  0.563711
H    0.301874  -1.178008  1.351017
H    1.081131  0.387557  1.742706
N    -1.874390  -0.682737  2.857897
C    -2.301717  -1.841286  2.066877
C    -1.300139  -3.024868  2.136556
O    -1.219967  -3.854252  1.233495
H    -2.539939  -0.316020  3.532825
H    -3.191686  -2.214358  2.598454
C    -2.724778  -1.520068  0.616521
C    -3.842804  -2.415414  0.062383
C    -5.206965  -2.220837  0.730131
C    -6.299842  -3.090449  0.110112
N    -7.592218  -2.856466  0.768296
H    -1.849942  -1.600736  -0.041700
H    -3.055179  -0.470271  0.595839
H    -3.526954  -3.466655  0.130482
H    -3.942549  -2.198169  -1.013266
H    -5.519718  -1.166286  0.668644
H    -5.147305  -2.458424  1.807495
H    -5.971329  -4.149060  0.129268
H    -6.415276  -2.820101  -0.951161
H    -8.332691  -3.375084  0.295876
H    -7.568383  -3.203166  1.728656
N    -0.581679  -3.089590  3.290824
C    0.383914  -4.136677  3.557154
H    -0.670085  -2.308105  3.931625
H    1.408230  -3.738696  3.596262
H    0.318685  -4.864896  2.741706
H    0.164616  -4.641073  4.507998
