33
Energy: -18209.1048652 eV PBE+vdW (tier 2 basis)
C    0.912584  -1.697939  0.178374
C    0.543655  -0.397904  0.861421
O    1.181727  0.637711  0.680273
H    0.047323  -2.252732  -0.201165
H    1.435313  -2.360459  0.882845
H    1.593056  -1.459186  -0.643260
N    -0.518980  -0.392224  1.738893
C    -1.481166  -1.439305  2.094378
C    -0.781780  -2.751919  2.531110
O    -0.965187  -3.816030  1.944437
H    -0.683452  0.533034  2.124354
H    -1.990954  -1.052931  2.993524
C    -2.557054  -1.692556  1.028022
C    -3.824396  -2.343995  1.594653
C    -4.859529  -2.741880  0.535849
C    -5.463775  -1.575302  -0.245354
N    -6.545704  -2.051370  -1.119498
H    -2.140667  -2.334126  0.238228
H    -2.791719  -0.720975  0.571042
H    -4.292218  -1.657490  2.322559
H    -3.539981  -3.247021  2.153463
H    -5.684149  -3.287883  1.018157
H    -4.394326  -3.451441  -0.170439
H    -4.665936  -1.033321  -0.789664
H    -5.903387  -0.855845  0.464714
H    -6.954242  -1.273279  -1.637736
H    -6.172568  -2.695346  -1.819259
N    0.048584  -2.676168  3.613828
C    0.393905  -1.521917  4.427352
H    0.495746  -3.561330  3.830765
H    -0.495719  -0.927436  4.675088
H    1.124839  -0.862430  3.937929
H    0.820293  -1.879101  5.371407
