33
Energy: -18209.2049602 eV PBE+vdW (tier 2 basis)
C    -0.198620  1.340041  1.399592
C    -0.749478  1.015053  2.773565
O    -0.265830  1.468886  3.809470
H    -0.915986  1.938656  0.819475
H    0.012690  0.434724  0.813869
H    0.721063  1.915642  1.530127
N    -1.841989  0.182651  2.821295
C    -2.604364  -0.338038  1.703408
C    -3.575148  0.617075  0.976483
O    -3.862063  0.359493  -0.196620
H    -2.173576  0.005410  3.765573
H    -1.899760  -0.610592  0.904749
C    -3.370472  -1.612732  2.098949
C    -2.483117  -2.816546  2.441644
C    -1.453900  -3.234085  1.377914
C    -1.985487  -3.494913  -0.043790
N    -1.990277  -2.289921  -0.887891
H    -4.038890  -1.862641  1.263092
H    -4.032698  -1.388342  2.952989
H    -3.152123  -3.667429  2.647559
H    -1.944660  -2.626928  3.383476
H    -0.972426  -4.153947  1.744203
H    -0.650551  -2.484796  1.301734
H    -2.971419  -3.999419  0.020341
H    -1.309346  -4.213405  -0.527995
H    -1.996744  -2.548841  -1.873188
H    -2.808949  -1.693821  -0.743645
N    -4.104098  1.709327  1.597933
C    -4.083922  2.108413  3.000779
H    -4.722473  2.226978  0.980567
H    -4.348629  1.277351  3.668386
H    -4.842142  2.887689  3.135959
H    -3.114494  2.516928  3.312967
