33
Energy: -18209.3882204 eV PBE+vdW (tier 2 basis)
C    1.548577  0.526101  2.679131
C    0.134958  0.783268  3.169371
O    -0.127039  0.942761  4.356494
H    1.963647  -0.331450  3.222265
H    2.167702  1.398057  2.926024
H    1.616879  0.336083  1.600295
N    -0.827043  0.807107  2.183378
C    -2.199141  1.232093  2.446066
C    -3.246908  0.110943  2.284646
O    -4.448356  0.362874  2.346701
H    -0.507729  0.800210  1.222059
H    -2.205040  1.472044  3.521750
C    -2.607842  2.500312  1.670387
C    -2.907175  2.354407  0.170242
C    -1.755136  1.931383  -0.755834
C    -0.521888  2.843093  -0.750661
N    -0.879077  4.213006  -1.134241
H    -1.834322  3.263247  1.843202
H    -3.521707  2.874961  2.149542
H    -3.280779  3.327575  -0.177721
H    -3.737571  1.644359  0.043962
H    -2.145769  1.885581  -1.786781
H    -1.437665  0.895066  -0.544328
H    0.254994  2.383917  -1.394830
H    -0.091584  2.895146  0.262300
H    -0.074610  4.833846  -1.054757
H    -1.178360  4.244367  -2.109918
N    -2.745075  -1.140470  2.092323
C    -3.587640  -2.317451  2.032823
H    -1.737151  -1.240405  2.136326
H    -3.476636  -2.941026  2.932111
H    -3.351552  -2.924879  1.148686
H    -4.626963  -1.977123  1.968983
