33
Energy: -18209.0822608 eV PBE+vdW (tier 2 basis)
C    -1.072681  -0.397675  -0.166451
C    -0.724189  0.201358  1.185548
O    0.187397  1.012213  1.323356
H    -2.014197  -0.961002  -0.176968
H    -0.258504  -1.069209  -0.469435
H    -1.125234  0.408408  -0.907081
N    -1.511915  -0.217342  2.225114
C    -1.266902  0.065843  3.639650
C    -0.756931  1.501952  3.924679
O    0.205601  1.702375  4.657775
H    -2.191552  -0.942120  2.025612
H    -2.263807  0.041949  4.115462
C    -0.424310  -1.029080  4.336509
C    0.829312  -1.549553  3.621546
C    2.047958  -0.623377  3.594691
C    3.286193  -1.288959  2.993778
N    3.733747  -2.435145  3.804641
H    -1.100298  -1.884929  4.495599
H    -0.160074  -0.647571  5.332877
H    0.571420  -1.835963  2.587010
H    1.122319  -2.488044  4.114789
H    2.275560  -0.283874  4.618758
H    1.826231  0.286074  3.022387
H    4.067648  -0.517402  2.854370
H    3.044221  -1.671756  1.988668
H    4.526338  -2.899279  3.361067
H    4.066374  -2.105742  4.712680
N    -1.518255  2.548835  3.476004
C    -2.653915  2.557404  2.574388
H    -1.086345  3.442857  3.687407
H    -3.200160  3.498203  2.713377
H    -3.346979  1.738966  2.803443
H    -2.361007  2.479431  1.515325
