33
Energy: -18209.5331725 eV PBE+vdW (tier 2 basis)
C    0.843893  -0.487406  0.443448
C    0.261456  -0.288808  1.827072
O    0.337811  0.794962  2.418236
H    0.708479  -1.501471  0.047871
H    1.915127  -0.253144  0.472126
H    0.371408  0.228009  -0.241292
N    -0.356165  -1.372140  2.375330
C    -1.004380  -1.350142  3.688447
C    0.038574  -1.597915  4.813361
O    0.091776  -2.650678  5.446150
H    -0.298614  -2.264911  1.897607
H    -1.394673  -0.327656  3.812123
C    -2.148239  -2.359090  3.736281
C    -3.345901  -1.960040  2.867980
C    -4.441281  -3.031557  2.787146
C    -4.068258  -4.285258  1.973511
N    -3.798600  -4.095680  0.543795
H    -2.460409  -2.470030  4.783982
H    -1.756675  -3.349325  3.452816
H    -3.006657  -1.703868  1.849649
H    -3.779673  -1.030590  3.268970
H    -5.347335  -2.586984  2.343215
H    -4.723418  -3.344697  3.806867
H    -4.884303  -5.018031  2.059725
H    -3.185547  -4.774345  2.413837
H    -4.609709  -3.681895  0.080904
H    -3.027448  -3.442236  0.402601
N    0.864879  -0.535034  5.005529
C    1.976765  -0.568273  5.934544
H    0.775392  0.241273  4.345554
H    2.942713  -0.620378  5.409778
H    1.869630  -1.460136  6.560937
H    1.973382  0.324471  6.573902
