33
Energy: -18209.4067305 eV PBE+vdW (tier 2 basis)
C    -0.190717  1.395386  0.093082
C    0.145873  0.307698  1.094655
O    1.291981  0.094320  1.479958
H    -0.966034  2.077258  0.468105
H    -0.561460  0.962915  -0.847399
H    0.722259  1.959083  -0.113994
N    -0.906292  -0.441890  1.578231
C    -2.307142  -0.384936  1.179781
C    -3.146108  0.690792  1.911169
O    -4.291656  0.937128  1.539305
H    -0.611103  -1.206845  2.179836
H    -2.367015  -0.111417  0.116516
C    -2.984882  -1.758698  1.339095
C    -3.104893  -2.261834  2.781051
C    -3.773467  -3.637340  2.862643
C    -4.005106  -4.134268  4.290759
N    -2.738259  -4.344437  5.007620
H    -2.430786  -2.487481  0.727056
H    -3.989441  -1.670232  0.903074
H    -3.686790  -1.535333  3.372617
H    -2.108887  -2.322736  3.251920
H    -3.157557  -4.377757  2.327891
H    -4.746639  -3.594560  2.346928
H    -4.519727  -5.104733  4.244386
H    -4.695782  -3.436984  4.807235
H    -2.338794  -3.455601  5.309378
H    -2.897056  -4.884864  5.857272
N    -2.533399  1.297580  2.961418
C    -3.176022  2.318185  3.764192
H    -1.580214  1.014571  3.163391
H    -2.613394  3.261498  3.732735
H    -3.272132  1.999391  4.811643
H    -4.176395  2.484170  3.349696
