33
Energy: -18209.4207707 eV PBE+vdW (tier 2 basis)
C    0.259714  0.351252  0.502885
C    -0.030884  0.891006  1.887420
O    0.858782  1.146559  2.697754
H    -0.334611  0.845722  -0.276431
H    0.035018  -0.725070  0.460460
H    1.325395  0.486148  0.300732
N    -1.352434  1.102380  2.213800
C    -2.533833  0.538386  1.559981
C    -3.287190  1.540962  0.652628
O    -4.274150  1.179117  0.015710
H    -1.468098  1.364124  3.191059
H    -2.212400  -0.263120  0.877716
C    -3.498128  -0.070071  2.595122
C    -3.126793  -1.474696  3.104036
C    -1.730597  -1.675605  3.711322
C    -1.449992  -0.889306  4.995069
N    -0.025650  -0.954353  5.329091
H    -4.484973  -0.123591  2.116897
H    -3.601770  0.640849  3.432024
H    -3.241991  -2.178826  2.264606
H    -3.888872  -1.771031  3.843395
H    -0.954710  -1.427597  2.970518
H    -1.584220  -2.744211  3.926939
H    -2.021408  -1.336017  5.823674
H    -1.833646  0.149179  4.898550
H    0.513838  -0.393092  4.665093
H    0.146106  -0.554558  6.251251
N    -2.768673  2.795938  0.618303
C    -3.333264  3.858560  -0.188581
H    -1.944221  2.964069  1.185912
H    -2.610033  4.220967  -0.932508
H    -3.651674  4.704677  0.435995
H    -4.206567  3.451054  -0.709508
