33
Energy: -18208.8888917 eV PBE+vdW (tier 2 basis)
C    0.072146  0.007069  0.648770
C    -0.173711  -0.145406  2.136831
O    0.774846  -0.233461  2.917442
H    -0.409214  -0.781657  0.058761
H    1.153490  -0.042688  0.496737
H    -0.296617  0.971279  0.277749
N    -1.453420  -0.164729  2.649607
C    -2.833430  -0.190587  2.140738
C    -3.554098  -1.488931  2.584630
O    -4.612706  -1.410323  3.212228
H    -1.404039  -0.244376  3.663719
H    -3.381015  0.573811  2.712371
C    -3.043799  0.172793  0.659136
C    -4.525648  0.352154  0.285923
C    -5.256173  -0.939439  -0.109768
C    -6.781382  -0.822931  -0.048390
N    -7.216135  -0.407597  1.289246
H    -2.579645  -0.563494  -0.012290
H    -2.517859  1.122546  0.489741
H    -4.587885  1.061632  -0.553056
H    -5.064950  0.821711  1.121022
H    -4.954826  -1.768903  0.547708
H    -4.961501  -1.241055  -1.127590
H    -7.211702  -1.787674  -0.383528
H    -7.124786  -0.060769  -0.768303
H    -6.799737  -1.001714  2.009625
H    -8.228471  -0.470759  1.382312
N    -3.011965  -2.707508  2.292191
C    -1.806304  -3.051279  1.555277
H    -3.558863  -3.470867  2.677968
H    -1.828104  -4.127291  1.351589
H    -0.889286  -2.824351  2.115993
H    -1.763859  -2.538304  0.586475
