33
Energy: -18209.5429444 eV PBE+vdW (tier 2 basis)
C    -4.230865  2.848038  0.937607
C    -3.325462  1.815194  1.574995
O    -2.993849  0.782733  0.980068
H    -3.751819  3.214233  0.020875
H    -4.453120  3.702574  1.588382
H    -5.170894  2.364620  0.644732
N    -2.894514  2.095758  2.836366
C    -1.973096  1.230621  3.573790
C    -2.754123  0.093729  4.289292
O    -2.947910  0.083273  5.503574
H    -3.266576  2.909287  3.313390
H    -1.332003  0.763006  2.812117
C    -1.131171  2.038214  4.559619
C    -0.271035  3.139597  3.927383
C    0.761421  2.642792  2.911532
C    1.704863  3.746160  2.435978
N    2.631582  3.238924  1.416601
H    -0.489243  1.327008  5.099797
H    -1.795726  2.462577  5.327830
H    0.246808  3.670579  4.742143
H    -0.914712  3.893977  3.444624
H    0.268320  2.209355  2.028187
H    1.355534  1.829181  3.364416
H    2.207900  4.193713  3.317638
H    1.113587  4.552455  1.973239
H    3.229209  3.989098  1.069589
H    3.254750  2.538441  1.821464
N    -3.191059  -0.862884  3.426721
C    -4.032742  -1.965623  3.845942
H    -3.061316  -0.672099  2.430121
H    -4.018982  -2.007101  4.940221
H    -3.654558  -2.914662  3.443494
H    -5.073199  -1.832772  3.512273
