33
Energy: -18209.5076601 eV PBE+vdW (tier 2 basis)
C    1.811022  0.924492  2.548200
C    0.369654  0.462317  2.502541
O    -0.474793  1.030218  1.797084
H    2.237911  0.838475  1.540670
H    2.435217  0.355192  3.247662
H    1.836416  1.985566  2.824200
N    0.065794  -0.616673  3.271828
C    -1.249164  -1.263834  3.284699
C    -2.200326  -0.527364  4.273621
O    -2.580455  -1.031106  5.328692
H    0.785541  -1.020239  3.860287
H    -1.663580  -1.131653  2.272060
C    -1.127975  -2.753501  3.610002
C    -0.793581  -3.659738  2.419084
C    0.577992  -3.448188  1.768933
C    0.871949  -4.428126  0.629590
N    -0.063554  -4.234969  -0.486974
H    -2.084354  -3.065783  4.049164
H    -0.392073  -2.887179  4.422012
H    -1.571512  -3.554315  1.648382
H    -0.856187  -4.705644  2.762526
H    1.372434  -3.548409  2.528140
H    0.662887  -2.421527  1.376117
H    0.741442  -5.459243  0.994944
H    1.936914  -4.328927  0.340338
H    0.111540  -3.339243  -0.945131
H    0.068148  -4.954618  -1.196900
N    -2.552923  0.710226  3.836034
C    -3.360525  1.617737  4.625800
H    -2.104071  1.040434  2.977285
H    -4.190251  2.018336  4.028113
H    -2.765840  2.460742  5.009025
H    -3.766696  1.059546  5.475972
