33
Energy: -18208.8825067 eV PBE+vdW (tier 2 basis)
C    -0.202820  0.548763  0.549783
C    -0.488856  0.664874  2.034263
O    0.389654  1.046270  2.808275
H    -0.826262  1.235271  -0.036326
H    -0.373486  -0.464301  0.166716
H    0.848288  0.811777  0.405500
N    -1.735464  0.370206  2.544093
C    -3.007556  -0.183414  2.057932
C    -3.362696  -1.502321  2.790516
O    -4.438046  -1.591600  3.382725
H    -1.733972  0.538392  3.548470
H    -3.794808  0.494753  2.421771
C    -3.198718  -0.291257  0.538774
C    -4.630304  -0.687858  0.158208
C    -4.847490  -0.826045  -1.355760
C    -4.597892  0.440696  -2.179512
N    -5.517699  1.520332  -1.799588
H    -2.498446  -1.012830  0.094654
H    -2.957520  0.686738  0.098525
H    -5.340301  0.042887  0.577440
H    -4.891089  -1.642770  0.636894
H    -5.883936  -1.150970  -1.529793
H    -4.193921  -1.624486  -1.744826
H    -4.786220  0.206672  -3.237444
H    -3.526832  0.723235  -2.115549
H    -5.305372  1.871399  -0.865216
H    -5.418901  2.313663  -2.432350
N    -2.490263  -2.554398  2.766160
C    -1.159343  -2.667347  2.190039
H    -2.830115  -3.340155  3.311967
H    -0.854519  -3.718011  2.244927
H    -0.412989  -2.063009  2.723965
H    -1.147854  -2.382468  1.130552
