33
Energy: -18209.1767915 eV PBE+vdW (tier 2 basis)
C    -0.581485  0.490490  -0.321330
C    -0.296081  0.463795  1.165916
O    0.776551  0.869409  1.611710
H    -0.107917  1.384373  -0.739949
H    -0.116375  -0.396673  -0.770363
H    -1.642606  0.475196  -0.588026
N    -1.239810  -0.045911  2.026890
C    -2.587104  -0.557250  1.813743
C    -2.653946  -1.552971  0.624858
O    -1.720366  -2.321369  0.399219
H    -0.892256  -0.069348  2.980715
H    -2.758917  -1.243490  2.660984
C    -3.672759  0.542710  1.973574
C    -3.542570  1.835682  1.149602
C    -4.132578  1.882097  -0.268817
C    -5.659645  1.728813  -0.339356
N    -6.078414  0.309731  -0.423517
H    -3.620432  0.835493  3.033386
H    -4.670106  0.093475  1.853306
H    -2.482141  2.125223  1.111475
H    -4.031764  2.638629  1.724676
H    -3.666984  1.130116  -0.925095
H    -3.865264  2.857404  -0.702950
H    -6.052305  2.319285  -1.184645
H    -6.108747  2.154470  0.570423
H    -7.042920  0.203938  -0.108299
H    -6.070727  0.009319  -1.399957
N    -3.822211  -1.600395  -0.060983
C    -4.010820  -2.582868  -1.111726
H    -4.577423  -0.919288  0.083582
H    -5.058403  -2.555115  -1.433267
H    -3.774119  -3.591185  -0.748172
H    -3.362731  -2.385577  -1.979113
