33
Energy: -18209.603333 eV PBE+vdW (tier 2 basis)
C    0.031407  1.173990  0.273996
C    -0.085158  0.709470  1.710176
O    0.541005  1.261517  2.625400
H    -0.293318  2.220653  0.217516
H    -0.560984  0.579507  -0.432137
H    1.086264  1.142615  -0.025138
N    -0.915112  -0.344630  1.930330
C    -1.233066  -0.874254  3.258271
C    -0.125750  -1.834392  3.790520
O    -0.336678  -3.018285  4.066705
H    -1.350246  -0.797310  1.135028
H    -1.238346  -0.006665  3.936956
C    -2.613843  -1.533462  3.268059
C    -2.845807  -2.593303  2.179480
C    -4.033655  -3.521697  2.466661
C    -3.865488  -4.418959  3.712694
N    -2.665656  -5.248117  3.785701
H    -3.381012  -0.747601  3.192634
H    -2.730080  -1.993324  4.257924
H    -1.940346  -3.208224  2.067931
H    -3.022146  -2.106123  1.205128
H    -4.191006  -4.167586  1.587081
H    -4.958219  -2.928674  2.579778
H    -4.748792  -5.073822  3.780627
H    -3.888648  -3.802264  4.624283
H    -1.827234  -4.667404  3.866440
H    -2.563666  -5.822411  2.948273
N    1.074185  -1.232174  3.952878
C    2.240367  -1.955549  4.423596
H    1.146081  -0.246517  3.680093
H    3.013020  -1.233999  4.708721
H    2.646726  -2.624854  3.650197
H    1.979571  -2.570377  5.294064
