33
Energy: -18209.1769423 eV PBE+vdW (tier 2 basis)
C    0.476540  0.126539  0.266647
C    0.709262  0.500692  1.716506
O    1.839859  0.736232  2.134111
H    0.890902  -0.878368  0.106638
H    1.049292  0.819573  -0.359145
H    -0.567660  0.122712  -0.054283
N    -0.354107  0.487293  2.604883
C    -1.805544  0.552722  2.391156
C    -2.379848  -0.630593  1.574530
O    -3.413560  -0.523242  0.920200
H    -0.039337  0.782568  3.526490
H    -2.225566  0.360146  3.393861
C    -2.353268  1.943229  1.996661
C    -1.808855  2.643865  0.746269
C    -2.404351  2.195875  -0.591810
C    -1.853318  2.975093  -1.787526
N    -2.202153  4.401540  -1.704789
H    -2.160467  2.593239  2.864056
H    -3.446101  1.842030  1.921985
H    -0.709754  2.564815  0.714101
H    -2.004697  3.720124  0.852697
H    -3.501371  2.307897  -0.555606
H    -2.241262  1.123863  -0.767964
H    -2.200012  2.487760  -2.719600
H    -0.753292  2.905457  -1.789418
H    -1.736632  4.929615  -2.442316
H    -3.205419  4.526059  -1.849037
N    -1.705635  -1.802958  1.736444
C    -2.108578  -3.035646  1.091261
H    -0.842924  -1.771003  2.268753
H    -3.076603  -2.858668  0.610602
H    -2.214521  -3.846628  1.824341
H    -1.383429  -3.345159  0.323990
