33
Energy: -18209.4153499 eV PBE+vdW (tier 2 basis)
C    0.952829  0.389417  1.979330
C    -0.115327  -0.658548  1.718071
O    0.152991  -1.823414  1.451355
H    1.422072  0.175415  2.948957
H    0.571489  1.418417  1.994210
H    1.731011  0.302118  1.212766
N    -1.414637  -0.204452  1.789589
C    -2.558704  -1.115872  1.802670
C    -2.895003  -1.692308  0.414880
O    -3.586390  -2.709102  0.305982
H    -1.568764  0.735345  2.139284
H    -2.319520  -1.987503  2.432641
C    -3.774023  -0.358699  2.380408
C    -5.005547  -1.196297  2.751656
C    -4.850408  -2.079345  4.014316
C    -4.781971  -3.590883  3.771932
N    -3.552269  -3.994613  3.084342
H    -4.069352  0.421198  1.658377
H    -3.428073  0.166313  3.287660
H    -5.306897  -1.810974  1.891180
H    -5.828896  -0.485349  2.912892
H    -5.704894  -1.892377  4.682531
H    -3.950140  -1.778989  4.574735
H    -5.707353  -3.904412  3.245239
H    -4.799612  -4.092351  4.751495
H    -3.409423  -4.999696  3.171555
H    -3.612883  -3.788744  2.081161
N    -2.443222  -0.978426  -0.646622
C    -2.622814  -1.413268  -2.017018
H    -1.794021  -0.227134  -0.440380
H    -1.686607  -1.804797  -2.441529
H    -2.980307  -0.585671  -2.643856
H    -3.368980  -2.214756  -2.018305
