33
Energy: -18209.2016983 eV PBE+vdW (tier 2 basis)
C    0.131148  0.168425  0.457670
C    -0.059118  0.092444  1.959222
O    0.881220  0.125371  2.751262
H    -0.301570  1.091809  0.047153
H    -0.356326  -0.669990  -0.058828
H    1.203679  0.151659  0.249154
N    -1.350801  -0.017602  2.415831
C    -2.579687  0.066352  1.644097
C    -2.902499  1.444148  1.021137
O    -3.404070  1.485594  -0.102311
H    -1.415467  -0.055046  3.429330
H    -2.491689  -0.579527  0.759096
C    -3.779977  -0.426298  2.474218
C    -3.683988  -1.882344  2.946603
C    -3.543579  -2.908571  1.819311
C    -3.703153  -4.355504  2.295399
N    -5.061219  -4.599943  2.801616
H    -4.675803  -0.296983  1.849322
H    -3.916291  0.234755  3.346194
H    -4.589803  -2.118540  3.522975
H    -2.839567  -2.002261  3.645373
H    -2.560697  -2.814744  1.331330
H    -4.293990  -2.704513  1.035019
H    -3.002444  -4.542930  3.124242
H    -3.406163  -5.035516  1.473977
H    -5.729218  -4.617695  2.029658
H    -5.118415  -5.511251  3.254773
N    -2.643466  2.592077  1.715998
C    -2.146478  2.793007  3.070503
H    -2.901503  3.419819  1.187877
H    -2.678888  2.168198  3.799719
H    -2.331583  3.837501  3.345238
H    -1.068931  2.599731  3.161498
