33
Energy: -18209.5392282 eV PBE+vdW (tier 2 basis)
C    1.662705  0.423450  0.503916
C    0.880183  0.433327  1.802005
O    1.430710  0.701978  2.877965
H    2.153538  1.396405  0.380419
H    1.054520  0.211602  -0.383705
H    2.453286  -0.333779  0.580658
N    -0.444266  0.137712  1.693029
C    -1.417866  -0.038531  2.783645
C    -1.811647  1.257814  3.534768
O    -3.005687  1.500736  3.749053
H    -0.799826  -0.015703  0.757834
H    -2.348970  -0.340558  2.287598
C    -1.010898  -1.155332  3.771036
C    -2.149833  -1.558944  4.736054
C    -1.737481  -1.590873  6.213662
C    -1.445270  -0.209263  6.832639
N    -2.557013  0.739382  6.919481
H    -0.124186  -0.827463  4.329276
H    -0.690390  -2.021442  3.174107
H    -2.533403  -2.547578  4.446347
H    -2.999941  -0.869605  4.620616
H    -0.844654  -2.228698  6.335838
H    -2.538533  -2.072457  6.798943
H    -0.633141  0.283226  6.274689
H    -1.052479  -0.360954  7.850003
H    -2.929048  0.972394  5.995930
H    -3.327353  0.343261  7.459166
N    -0.793706  2.025870  3.975859
C    -1.018246  3.222217  4.769145
H    0.160421  1.691310  3.795527
H    -0.135374  3.866826  4.697414
H    -1.206145  2.979852  5.826285
H    -1.893892  3.759705  4.386373
