33
Energy: -18209.2925688 eV PBE+vdW (tier 2 basis)
C    -0.463174  0.465558  0.083633
C    -0.508897  0.479573  1.603383
O    0.128693  1.293459  2.264045
H    -1.122557  -0.280248  -0.377848
H    0.569640  0.275204  -0.234496
H    -0.739614  1.461229  -0.283848
N    -1.327729  -0.470256  2.165153
C    -1.383865  -0.748015  3.605479
C    -2.281520  -1.961253  3.889048
O    -2.033331  -2.727696  4.813895
H    -1.633403  -1.220012  1.554285
H    -0.385143  -1.040015  3.964176
C    -1.840461  0.463227  4.456626
C    -3.174917  1.092924  4.057325
C    -3.511384  2.326656  4.898786
C    -4.863683  2.957035  4.560148
N    -5.970355  2.023215  4.823332
H    -1.043403  1.215727  4.403347
H    -1.883417  0.108361  5.497864
H    -3.999879  0.372476  4.158759
H    -3.141177  1.388461  2.995332
H    -2.726738  3.089272  4.771721
H    -3.499012  2.057029  5.969806
H    -4.889841  3.203866  3.486746
H    -4.955315  3.916239  5.105717
H    -6.056624  1.857467  5.827630
H    -6.857159  2.427470  4.523050
N    -3.361777  -2.114919  3.057706
C    -4.373739  -3.126431  3.310821
H    -3.621509  -1.319678  2.482956
H    -4.798874  -3.478021  2.363128
H    -5.185499  -2.744632  3.948899
H    -3.895929  -3.963521  3.829505
