33
Energy: -18209.1048069 eV PBE+vdW (tier 2 basis)
C    -0.087828  0.132675  0.053304
C    0.000224  0.055641  1.566319
O    1.076275  0.002186  2.157524
H    0.931480  0.145820  -0.340570
H    -0.610341  1.039919  -0.281534
H    -0.621930  -0.732286  -0.363498
N    -1.180856  0.059826  2.267392
C    -2.543778  -0.032867  1.750162
C    -3.470284  0.814271  2.656375
O    -4.381141  0.315632  3.313296
H    -1.050255  -0.060893  3.268867
H    -2.547077  0.447997  0.759682
C    -3.074194  -1.468088  1.577239
C    -2.854069  -2.426056  2.763027
C    -1.551792  -3.234146  2.691521
C    -1.306418  -4.115368  3.917186
N    -2.333966  -5.158148  4.057340
H    -2.605895  -1.896637  0.676950
H    -4.147525  -1.383160  1.360492
H    -3.704065  -3.123387  2.789407
H    -2.907598  -1.866982  3.710756
H    -0.687780  -2.562092  2.580023
H    -1.573999  -3.876616  1.796107
H    -1.210880  -3.465015  4.811302
H    -0.338485  -4.623210  3.797528
H    -2.061804  -5.827084  4.777174
H    -3.218339  -4.754215  4.366999
N    -3.223787  2.159142  2.696070
C    -2.228493  2.931183  1.970420
H    -3.839173  2.654546  3.333336
H    -2.506447  3.989552  2.022424
H    -2.201862  2.652717  0.908000
H    -1.217002  2.812692  2.383833
