33
Energy: -18209.4909162 eV PBE+vdW (tier 2 basis)
C    0.082774  0.290408  -0.011510
C    0.114470  0.342332  1.503480
O    1.165732  0.577399  2.113539
H    0.504230  1.222554  -0.406413
H    -0.918821  0.140741  -0.432544
H    0.732529  -0.529087  -0.344665
N    -1.075278  0.119441  2.125113
C    -1.317737  -0.027690  3.570104
C    -1.217288  1.278357  4.396993
O    -2.121072  1.569950  5.182280
H    -1.878706  -0.026448  1.527277
H    -2.379442  -0.288411  3.651491
C    -0.484481  -1.153087  4.220381
C    -0.633913  -2.528120  3.562569
C    -2.061554  -3.082231  3.537672
C    -2.140982  -4.551098  3.110180
N    -1.477171  -5.423371  4.088333
H    -0.805193  -1.204386  5.272601
H    0.574828  -0.865025  4.225496
H    0.004481  -3.241077  4.103234
H    -0.240252  -2.491538  2.533252
H    -2.698281  -2.495336  2.855515
H    -2.518519  -2.976306  4.537731
H    -1.618487  -4.676934  2.148403
H    -3.201464  -4.813707  2.928413
H    -1.411071  -6.377597  3.735997
H    -2.022093  -5.468514  4.950550
N    -0.084241  2.000463  4.218869
C    0.179417  3.224216  4.947905
H    0.610214  1.626936  3.561856
H    0.401589  4.050315  4.258234
H    1.029822  3.104936  5.635412
H    -0.712910  3.472495  5.532421
