33
Energy: -18209.3583459 eV PBE+vdW (tier 2 basis)
C    -1.409086  1.786046  0.153000
C    -0.320733  0.732653  0.218944
O    0.864244  0.991779  0.023869
H    -2.018090  1.809587  1.066878
H    -2.090507  1.595082  -0.688599
H    -0.931502  2.757957  0.006398
N    -0.712722  -0.553275  0.525675
C    -2.073065  -1.062512  0.676006
C    -2.690007  -0.848710  2.077365
O    -3.892059  -1.032139  2.257901
H    0.046975  -1.224043  0.461227
H    -2.733016  -0.504441  -0.004016
C    -2.182892  -2.552854  0.282671
C    -1.667613  -3.594935  1.288060
C    -0.158009  -3.638195  1.574245
C    0.743258  -3.904198  0.362436
N    0.375418  -5.157423  -0.306918
H    -1.703728  -2.683996  -0.699363
H    -3.252230  -2.748256  0.129587
H    -1.969151  -4.579336  0.904088
H    -2.201559  -3.463355  2.241471
H    0.022049  -4.432477  2.318417
H    0.178335  -2.712337  2.068326
H    1.797533  -3.864757  0.698780
H    0.634851  -3.100725  -0.384763
H    0.561292  -5.953981  0.304584
H    0.939717  -5.296878  -1.144447
N    -1.816870  -0.478172  3.051288
C    -2.219808  -0.251370  4.424092
H    -0.853902  -0.325751  2.770628
H    -2.028956  0.786800  4.730244
H    -1.688124  -0.925216  5.110356
H    -3.295030  -0.450686  4.490227
