33
Energy: -18209.3734469 eV PBE+vdW (tier 2 basis)
C    0.589089  1.385919  3.206427
C    0.090438  0.307270  2.266050
O    0.767635  -0.667977  1.953537
H    -0.089694  1.536635  4.056859
H    0.674919  2.351034  2.686870
H    1.574929  1.089675  3.573088
N    -1.188072  0.459692  1.768476
C    -2.085028  1.599102  1.937954
C    -2.758307  1.654640  3.328088
O    -3.170849  2.717778  3.788228
H    -1.426569  -0.227573  1.057617
H    -1.524303  2.542118  1.849791
C    -3.146844  1.559647  0.819477
C    -3.994134  2.827211  0.697216
C    -5.121264  2.710907  -0.337555
C    -4.679484  2.392807  -1.770185
N    -3.674010  3.351986  -2.246274
H    -3.796232  0.680935  0.979426
H    -2.605301  1.393793  -0.125085
H    -3.334465  3.663933  0.425114
H    -4.429231  3.080149  1.673265
H    -5.686524  3.657891  -0.342088
H    -5.840828  1.937227  -0.022663
H    -5.584245  2.338449  -2.406808
H    -4.221147  1.392141  -1.807369
H    -4.074977  4.289880  -2.298858
H    -3.369222  3.114760  -3.189903
N    -2.883368  0.452665  3.954239
C    -3.503103  0.304179  5.255275
H    -2.432811  -0.342955  3.514197
H    -2.784271  -0.064033  6.001029
H    -4.354292  -0.389524  5.212789
H    -3.862752  1.291415  5.565212
