33
Energy: -18209.0574503 eV PBE+vdW (tier 2 basis)
C    -0.300629  0.052872  0.034122
C    -0.246664  0.306577  1.531522
O    0.750877  0.757283  2.084841
H    0.040129  0.954640  -0.487978
H    -1.294811  -0.225235  -0.337880
H    0.404912  -0.752035  -0.209397
N    -1.397612  0.010927  2.214432
C    -1.528479  0.057529  3.671111
C    -0.883285  1.323021  4.300261
O    -0.088810  1.238209  5.229652
H    -2.162738  -0.404798  1.696895
H    -2.610524  0.144341  3.864513
C    -0.990991  -1.214563  4.350306
C    -1.565682  -1.491188  5.752716
C    -2.781577  -2.430068  5.789446
C    -4.046715  -1.918793  5.083480
N    -5.239201  -2.766923  5.189952
H    0.100252  -1.116806  4.401727
H    -1.208918  -2.066047  3.686214
H    -1.809941  -0.538529  6.247512
H    -0.772848  -1.933716  6.371677
H    -3.037665  -2.633579  6.842892
H    -2.503628  -3.405230  5.351796
H    -3.850684  -1.778062  4.008132
H    -4.310568  -0.923759  5.478584
H    -5.484658  -2.905031  6.171864
H    -5.044166  -3.696871  4.815026
N    -1.326563  2.543007  3.863802
C    -2.213774  2.866091  2.763238
H    -0.814532  3.308111  4.291571
H    -3.067467  2.178068  2.728606
H    -1.710009  2.843134  1.783805
H    -2.614269  3.874549  2.922664
