33
Energy: -18209.5005187 eV PBE+vdW (tier 2 basis)
C    -0.714210  -0.221081  0.373957
C    -0.928806  0.091646  1.843903
O    -1.508322  1.111988  2.220290
H    -1.693285  -0.303209  -0.114988
H    -0.149732  -1.145045  0.198183
H    -0.185620  0.619322  -0.092271
N    -0.449963  -0.841833  2.712988
C    -0.510366  -0.670906  4.149480
C    0.607114  -1.541651  4.745034
O    1.150989  -2.434209  4.091432
H    0.120510  -1.624453  2.400240
H    -0.312304  0.391613  4.368187
C    -1.894507  -1.015023  4.762950
C    -2.270055  -2.497417  4.859034
C    -2.444064  -3.238795  3.528116
C    -3.139709  -4.594123  3.684700
N    -4.520148  -4.433186  4.164634
H    -2.642110  -0.463087  4.174862
H    -1.929597  -0.576599  5.773628
H    -3.220214  -2.567395  5.409024
H    -1.525212  -3.033873  5.471506
H    -1.469684  -3.406605  3.048021
H    -3.025978  -2.614135  2.828125
H    -2.598171  -5.195270  4.432470
H    -3.064922  -5.144623  2.726891
H    -4.935638  -5.339062  4.379176
H    -5.100050  -4.013002  3.436728
N    0.915102  -1.270860  6.041200
C    1.881467  -2.039538  6.802884
H    0.422371  -0.513968  6.500094
H    2.691312  -1.398028  7.176269
H    2.305707  -2.793780  6.132367
H    1.406097  -2.545815  7.654886
