33
Energy: -18209.4951851 eV PBE+vdW (tier 2 basis)
C    0.488549  1.027082  0.517383
C    0.195641  0.488390  1.902175
O    1.054291  0.484608  2.793665
H    -0.360929  0.957199  -0.172862
H    1.339975  0.478558  0.096188
H    0.788788  2.078579  0.607092
N    -1.065933  0.020047  2.105584
C    -1.536172  -0.485124  3.400531
C    -1.098128  -1.970439  3.548594
O    -1.875158  -2.911282  3.393174
H    -1.708760  -0.022052  1.322733
H    -1.013584  0.110078  4.164502
C    -3.051242  -0.300763  3.522022
C    -3.608843  -0.137408  4.945933
C    -3.546978  -1.362597  5.875358
C    -2.261977  -1.505495  6.699143
N    -2.061639  -0.340735  7.574445
H    -3.543185  -1.149009  3.020501
H    -3.312520  0.611245  2.962752
H    -4.663041  0.156941  4.833227
H    -3.111219  0.708702  5.445443
H    -3.697732  -2.286172  5.297659
H    -4.389743  -1.303026  6.584849
H    -1.383289  -1.573416  6.043061
H    -2.308150  -2.468474  7.243790
H    -2.773268  -0.319786  8.306641
H    -1.160167  -0.397030  8.047168
N    0.220588  -2.102167  3.852330
C    0.873921  -3.393993  3.923540
H    0.784976  -1.249999  3.789231
H    1.585484  -3.412869  4.758768
H    1.415484  -3.632982  2.994978
H    0.107111  -4.159625  4.082235
