33
Energy: -18209.2521689 eV PBE+vdW (tier 2 basis)
C    0.279430  0.178084  0.956391
C    -0.369473  -0.041863  2.307870
O    0.283296  -0.057709  3.347537
H    0.265301  1.251522  0.721728
H    -0.213739  -0.350748  0.132633
H    1.323961  -0.138842  1.028341
N    -1.737850  -0.238616  2.350938
C    -2.731846  -0.079843  1.284931
C    -2.645653  -1.190690  0.203843
O    -3.038479  -1.001060  -0.944861
H    -2.085003  -0.254029  3.305971
H    -3.694628  -0.271895  1.785582
C    -2.804639  1.329832  0.658005
C    -4.219714  1.761087  0.243938
C    -5.152181  2.070147  1.420064
C    -6.591581  2.379734  1.002415
N    -6.670220  3.605208  0.194861
H    -2.149109  1.368019  -0.221369
H    -2.408065  2.044110  1.395493
H    -4.657721  0.982591  -0.399938
H    -4.121468  2.660882  -0.382404
H    -4.756419  2.926523  1.989434
H    -5.185946  1.214895  2.116650
H    -7.195074  2.545318  1.906855
H    -7.016035  1.487547  0.497888
H    -6.301165  3.444029  -0.742602
H    -7.642583  3.886323  0.072283
N    -2.163156  -2.381301  0.653095
C    -2.032828  -3.546932  -0.197838
H    -1.795453  -2.401363  1.598349
H    -0.977899  -3.816491  -0.351378
H    -2.480135  -3.302874  -1.167335
H    -2.558506  -4.409682  0.233471
