33
Energy: -18209.3190468 eV PBE+vdW (tier 2 basis)
C    -1.508767  0.836264  0.652556
C    -0.766061  0.686134  1.963105
O    0.411107  0.333402  2.009085
H    -2.486352  1.326026  0.744722
H    -1.644438  -0.176816  0.245159
H    -0.883689  1.398219  -0.050673
N    -1.502119  0.965956  3.091494
C    -1.093099  0.670014  4.471698
C    0.359491  1.126798  4.779202
O    1.092002  0.478637  5.518043
H    -2.486087  1.163871  2.949968
H    -1.717611  1.329031  5.098433
C    -1.354996  -0.771336  4.942236
C    -0.798922  -1.902090  4.057500
C    -1.819055  -2.462046  3.051651
C    -1.211166  -3.364053  1.975611
N    -0.570692  -2.570110  0.915717
H    -2.443152  -0.899983  5.064251
H    -0.916717  -0.834169  5.946763
H    -0.468545  -2.726178  4.706955
H    0.105457  -1.547007  3.546366
H    -2.356275  -1.646144  2.542955
H    -2.582936  -3.030596  3.606692
H    -2.011732  -3.953897  1.503790
H    -0.528989  -4.091439  2.461813
H    0.165678  -1.972146  1.297857
H    -0.121928  -3.182538  0.234818
N    0.685287  2.357193  4.287575
C    2.043268  2.862050  4.374562
H    0.094543  2.719694  3.547777
H    2.033791  3.957850  4.337202
H    2.675949  2.476924  3.559380
H    2.475148  2.537083  5.326638
