33
Energy: -18209.1425526 eV PBE+vdW (tier 2 basis)
C    -0.292397  -0.353975  -0.350869
C    0.033996  -0.080258  1.102282
O    1.193323  0.006423  1.504328
H    -1.122311  0.250159  -0.733824
H    -0.574604  -1.408258  -0.482408
H    0.611258  -0.161571  -0.935284
N    -1.003942  0.037940  2.000339
C    -2.456539  0.043474  1.801152
C    -2.938543  -1.185840  0.990373
O    -3.534543  -1.072465  -0.078374
H    -0.669058  0.236456  2.938541
H    -2.876036  -0.077634  2.814381
C    -3.008318  1.358649  1.232625
C    -4.495503  1.568999  1.525064
C    -5.034631  2.876924  0.941831
C    -6.490682  3.166340  1.314332
N    -6.637415  3.381930  2.762292
H    -2.834048  1.385915  0.147383
H    -2.421431  2.176968  1.677198
H    -4.666951  1.567628  2.613099
H    -5.072573  0.728846  1.109475
H    -4.951303  2.854983  -0.156559
H    -4.405715  3.721683  1.275875
H    -7.111734  2.297443  1.045590
H    -6.854345  4.014360  0.702136
H    -6.213617  4.271719  3.029884
H    -7.622628  3.444834  3.017226
N    -2.677435  -2.416131  1.525593
C    -1.992025  -2.752165  2.762689
H    -2.993702  -3.178657  0.934913
H    -2.240130  -3.786476  3.026010
H    -2.328312  -2.114493  3.591193
H    -0.899420  -2.662396  2.679175
