33
Energy: -18209.3960872 eV PBE+vdW (tier 2 basis)
C    -1.346199  0.372090  -0.121550
C    -1.592819  -0.463344  1.119447
O    -2.135013  -1.568327  1.064344
H    -2.313040  0.610112  -0.582831
H    -0.778205  -0.228253  -0.842497
H    -0.804343  1.305420  0.074186
N    -1.155576  0.086699  2.293487
C    -1.405227  -0.543192  3.582651
C    -2.646641  0.117204  4.219308
O    -2.605385  1.293211  4.586537
H    -0.861017  1.057524  2.301671
H    -1.588146  -1.598283  3.354506
C    -0.193633  -0.397148  4.512409
C    -0.358537  -1.100641  5.865633
C    -0.408331  -2.630943  5.788044
C    -0.682030  -3.308517  7.132003
N    0.400474  -3.066702  8.096126
H    -0.020993  0.676219  4.682769
H    0.686609  -0.793815  3.983560
H    -1.267409  -0.723032  6.364753
H    0.485856  -0.798105  6.503325
H    0.545550  -3.009379  5.387439
H    -1.194775  -2.950396  5.085973
H    -0.741836  -4.395207  6.973852
H    -1.680388  -2.987662  7.496151
H    0.374430  -2.105315  8.436630
H    0.284321  -3.661339  8.916127
N    -3.774175  -0.634691  4.342252
C    -4.006723  -2.008032  3.911708
H    -4.543740  -0.132688  4.775593
H    -3.631289  -2.742406  4.641469
H    -3.546331  -2.195379  2.933512
H    -5.087161  -2.158377  3.807580
