33
Energy: -18209.0787309 eV PBE+vdW (tier 2 basis)
C    0.050387  -0.059545  0.128577
C    -0.010047  0.206878  1.622929
O    0.977218  0.554456  2.263736
H    -0.931891  -0.179873  -0.345360
H    0.634560  -0.974841  -0.037217
H    0.587977  0.763627  -0.355455
N    -1.244180  0.031589  2.191992
C    -1.536236  0.092590  3.626810
C    -0.738565  1.192004  4.379383
O    -0.121583  0.935940  5.407749
H    -1.985419  -0.316572  1.595486
H    -2.591420  0.412787  3.695323
C    -1.429505  -1.263990  4.345740
C    -0.076014  -1.992205  4.242993
C    0.031112  -2.981778  3.077242
C    1.431631  -3.594028  2.906086
N    1.955388  -4.401775  4.012626
H    -2.231633  -1.915141  3.959211
H    -1.666261  -1.069140  5.399986
H    0.085079  -2.536835  5.185239
H    0.733548  -1.251944  4.183460
H    -0.237888  -2.487848  2.129792
H    -0.706424  -3.793838  3.212156
H    2.154273  -2.784124  2.718876
H    1.437881  -4.225281  2.003435
H    2.076908  -3.831640  4.849770
H    1.296895  -5.142738  4.258664
N    -0.871142  2.483795  3.945185
C    -1.505333  2.998954  2.747544
H    -0.277990  3.120015  4.468789
H    -1.730300  4.061292  2.901259
H    -2.456112  2.487685  2.553887
H    -0.871030  2.904479  1.851700
