33
Energy: -18209.5808782 eV PBE+vdW (tier 2 basis)
C    -0.902504  0.543752  -0.481545
C    -0.767283  0.862714  0.994004
O    -0.185294  1.878518  1.385282
H    -1.399120  1.384868  -0.980565
H    -1.463783  -0.376332  -0.683341
H    0.101985  0.454410  -0.913822
N    -1.342537  -0.036213  1.840733
C    -1.187341  0.005676  3.283468
C    -0.880192  -1.428267  3.743717
O    -1.318144  -2.403257  3.131076
H    -1.681104  -0.928337  1.485451
H    -0.336112  0.666547  3.498507
C    -2.464514  0.515964  3.995614
C    -2.774843  2.010381  3.787528
C    -2.267405  2.934244  4.905666
C    -0.742555  2.994198  5.121433
N    0.083807  3.506945  4.033061
H    -2.379157  0.300350  5.073183
H    -3.297035  -0.102164  3.628736
H    -3.865669  2.133383  3.720670
H    -2.380172  2.342490  2.815858
H    -2.738040  2.629871  5.857864
H    -2.626221  3.957478  4.704609
H    -0.365784  1.990930  5.388032
H    -0.550145  3.611418  6.013496
H    -0.024985  2.962284  3.171670
H    -0.176031  4.467793  3.809098
N    -0.138837  -1.518037  4.879697
C    0.186416  -2.780967  5.516391
H    0.211295  -0.658923  5.287754
H    -0.226213  -2.831570  6.533605
H    1.273559  -2.930839  5.564715
H    -0.255959  -3.579152  4.911617
