33
Energy: -18209.4943544 eV PBE+vdW (tier 2 basis)
C    -0.763831  -0.345129  0.346977
C    -0.976813  -0.015348  1.812940
O    -1.564758  1.003939  2.179126
H    -1.743684  -0.451085  -0.135842
H    -0.184664  -1.261797  0.181478
H    -0.252127  0.497451  -0.133765
N    -0.486840  -0.932594  2.693531
C    -0.551916  -0.744153  4.127150
C    0.560373  -1.610381  4.739177
O    1.095363  -2.520345  4.103135
H    0.082425  -1.719835  2.390669
H    -0.352749  0.320541  4.334036
C    -1.939964  -1.072957  4.739668
C    -2.322803  -2.553481  4.855946
C    -2.499610  -3.315519  3.538438
C    -3.140002  -4.704825  3.711152
N    -4.528629  -4.758685  4.179117
H    -2.682317  -0.527638  4.139154
H    -1.976764  -0.619519  5.743500
H    -3.271193  -2.589206  5.418038
H    -1.585471  -3.084722  5.481797
H    -1.523350  -3.450004  3.049646
H    -3.114541  -2.718481  2.843138
H    -2.532444  -5.302804  4.409512
H    -3.097689  -5.234402  2.747298
H    -5.133862  -4.208319  3.567855
H    -4.618438  -4.359033  5.113303
N    0.871144  -1.316160  6.029674
C    1.841636  -2.069337  6.802157
H    0.397629  -0.535498  6.468556
H    1.377172  -2.524594  7.687886
H    2.674350  -1.429700  7.125376
H    2.233369  -2.862382  6.157180
