33
Energy: -18209.5387386 eV PBE+vdW (tier 2 basis)
C    -0.950265  -1.417649  0.099596
C    -0.484753  -0.834938  1.417578
O    0.637941  -0.332475  1.547987
H    -0.898664  -0.634888  -0.667380
H    -1.970017  -1.820366  0.130062
H    -0.258386  -2.214697  -0.199666
N    -1.378977  -0.890456  2.444029
C    -1.096534  -0.342948  3.772421
C    -0.291882  -1.382444  4.603552
O    -0.818184  -2.093043  5.458847
H    -2.251750  -1.389302  2.312960
H    -0.456682  0.537211  3.606294
C    -2.388232  0.067006  4.472899
C    -2.142699  0.921578  5.721970
C    -3.421056  1.365235  6.443881
C    -4.182971  0.234715  7.136047
N    -5.322664  0.773857  7.893072
H    -2.940059  -0.845707  4.743604
H    -3.004650  0.634227  3.756882
H    -1.571912  1.817712  5.429852
H    -1.505923  0.361811  6.424209
H    -4.091999  1.872310  5.727230
H    -3.169175  2.116305  7.207341
H    -3.510810  -0.262381  7.852358
H    -4.471591  -0.535768  6.395280
H    -6.010840  1.176758  7.254668
H    -5.802330  0.025549  8.393794
N    1.024597  -1.421548  4.267902
C    1.938161  -2.402018  4.821198
H    1.292411  -0.897712  3.431388
H    2.118787  -3.233271  4.122214
H    1.492245  -2.808302  5.735057
H    2.899864  -1.932362  5.063872
