33
Energy: -18209.2075301 eV PBE+vdW (tier 2 basis)
C    0.459648  -0.653121  3.186853
C    -0.084181  -0.641004  1.772700
O    0.500950  -1.172810  0.830947
H    1.471624  -1.064579  3.158379
H    -0.162529  -1.276171  3.844908
H    0.481595  0.352305  3.628602
N    -1.283439  0.001945  1.571772
C    -2.186444  0.551938  2.572339
C    -2.800855  -0.480865  3.546103
O    -2.847877  -0.219402  4.749175
H    -1.602561  -0.035206  0.607322
H    -1.619030  1.212679  3.242781
C    -3.270063  1.392164  1.866402
C    -4.312985  2.038808  2.782385
C    -3.747335  3.041890  3.792650
C    -4.833314  3.846831  4.510958
N    -5.578162  4.698491  3.570832
H    -3.786782  0.759211  1.126291
H    -2.745697  2.172920  1.291531
H    -4.868353  1.257501  3.325976
H    -5.048704  2.556867  2.150846
H    -3.065670  3.742918  3.277257
H    -3.145563  2.519542  4.550574
H    -4.368003  4.408031  5.343706
H    -5.553134  3.150450  4.968783
H    -6.389502  5.114027  4.027336
H    -4.993378  5.475324  3.259011
N    -3.296185  -1.661436  3.069614
C    -3.354878  -2.191069  1.714109
H    -3.650724  -2.252004  3.815536
H    -3.774844  -1.463099  1.008574
H    -4.025477  -3.057564  1.719861
H    -2.373584  -2.516847  1.342049
