33
Energy: -18209.2241901 eV PBE+vdW (tier 2 basis)
C    -0.125280  -0.538573  -0.152642
C    0.181189  0.102451  1.188212
O    1.309070  0.472491  1.496565
H    -0.778627  0.110097  -0.753535
H    -0.625027  -1.511350  -0.042189
H    0.819423  -0.679070  -0.683761
N    -0.866708  0.233599  2.073484
C    -2.270606  0.025232  1.804513
C    -2.872784  1.132797  0.891648
O    -2.369591  2.243325  0.758449
H    -0.623300  0.792431  2.886114
H    -2.371688  -0.919382  1.245287
C    -3.065298  -0.169898  3.122422
C    -2.844225  0.847226  4.258974
C    -3.067908  2.332180  3.943529
C    -4.480056  2.692424  3.479843
N    -4.514128  4.092033  3.042724
H    -2.804711  -1.166260  3.509496
H    -4.134462  -0.213078  2.867642
H    -1.825839  0.723670  4.661251
H    -3.506753  0.542234  5.085586
H    -2.358150  2.661609  3.169910
H    -2.835053  2.926006  4.839567
H    -5.185663  2.576404  4.318340
H    -4.811261  1.982040  2.695991
H    -5.455973  4.360405  2.757930
H    -3.914611  4.204400  2.222473
N    -4.005922  0.745043  0.233808
C    -4.789453  1.658085  -0.577046
H    -4.372972  -0.183083  0.408384
H    -5.093808  1.177276  -1.515117
H    -4.159905  2.524828  -0.803930
H    -5.688337  2.007948  -0.046464
