33
Energy: -18209.3197152 eV PBE+vdW (tier 2 basis)
C    -0.084260  -0.073194  0.084928
C    -0.084376  -0.419176  1.560276
O    0.957165  -0.650805  2.167843
H    0.784203  -0.555792  -0.373800
H    0.039713  1.013524  -0.022715
H    -0.996397  -0.365668  -0.446996
N    -1.296186  -0.486256  2.222876
C    -2.638833  -0.098456  1.776702
C    -3.253091  -1.066817  0.730431
O    -4.194068  -0.722510  0.019573
H    -1.164075  -0.612442  3.222295
H    -3.272449  -0.240720  2.668641
C    -2.799574  1.369317  1.350638
C    -2.396790  2.363120  2.438812
C    -2.613242  3.819189  2.019293
C    -2.149512  4.841648  3.060011
N    -0.697839  4.761797  3.273141
H    -3.853081  1.501722  1.068493
H    -2.223914  1.559863  0.432926
H    -1.341234  2.229028  2.716453
H    -2.981933  2.162645  3.354076
H    -3.679790  3.994449  1.804706
H    -2.081819  4.010351  1.069922
H    -2.636353  4.623215  4.023786
H    -2.500010  5.846292  2.752490
H    -0.414247  5.347529  4.057734
H    -0.198596  5.112288  2.454353
N    -2.710604  -2.314701  0.719503
C    -3.180835  -3.367862  -0.157126
H    -1.915595  -2.477081  1.328201
H    -3.510944  -4.244146  0.417889
H    -2.396652  -3.682165  -0.860637
H    -4.030342  -2.972804  -0.724659
