33
Energy: -18209.0347551 eV PBE+vdW (tier 2 basis)
C    0.536724  0.304130  0.951514
C    -0.048896  0.864673  2.231569
O    0.607570  1.606465  2.961792
H    0.994001  -0.669220  1.174424
H    1.316978  0.991461  0.611731
H    -0.193255  0.149624  0.149107
N    -1.327188  0.515384  2.595384
C    -2.362228  -0.261657  1.921524
C    -1.791797  -1.566018  1.303078
O    -1.014863  -2.272624  1.936869
H    -1.572052  0.898419  3.503369
H    -2.976503  -0.672523  2.741069
C    -3.339779  0.588973  1.076307
C    -2.828934  1.415220  -0.119035
C    -2.068277  2.718900  0.192213
C    -2.739963  3.655027  1.197531
N    -4.124439  3.963537  0.809476
H    -3.852610  1.272638  1.768426
H    -4.143525  -0.082263  0.729478
H    -3.717279  1.678718  -0.710580
H    -2.196793  0.802814  -0.782675
H    -1.934196  3.257969  -0.761159
H    -1.053747  2.516233  0.556912
H    -2.096841  4.547498  1.315393
H    -2.769601  3.173746  2.186919
H    -4.566968  4.557724  1.510310
H    -4.135857  4.494229  -0.063283
N    -2.260660  -1.898575  0.066156
C    -1.873610  -3.122462  -0.608875
H    -2.875936  -1.252119  -0.410085
H    -2.753041  -3.730637  -0.861463
H    -1.231050  -3.686771  0.074906
H    -1.312548  -2.909637  -1.530027
