33
Energy: -18209.1831914 eV PBE+vdW (tier 2 basis)
C    0.756269  0.217347  0.939429
C    0.651683  0.221169  2.455127
O    1.637951  0.059541  3.170431
H    0.133198  0.984829  0.460020
H    0.443768  -0.760620  0.546614
H    1.803847  0.377820  0.670850
N    -0.592313  0.397250  2.999633
C    -1.864643  0.595315  2.339377
C    -2.814001  1.181632  3.401299
O    -2.601197  1.049599  4.606201
H    -0.641690  0.394511  4.018824
H    -1.751575  1.355392  1.548728
C    -2.458094  -0.685038  1.660634
C    -2.211726  -2.015900  2.377426
C    -2.951638  -2.200427  3.705358
C    -2.756022  -3.587350  4.321650
N    -1.337803  -3.842569  4.604793
H    -2.026608  -0.747687  0.651103
H    -3.539879  -0.536511  1.515604
H    -1.135486  -2.160941  2.541490
H    -2.517353  -2.819801  1.687326
H    -4.032012  -2.032946  3.559422
H    -2.628330  -1.440201  4.433089
H    -3.092946  -4.356881  3.607793
H    -3.412859  -3.671710  5.210013
H    -0.991751  -3.187175  5.307554
H    -1.207498  -4.777881  4.988678
N    -3.918786  1.842136  2.947189
C    -4.219347  2.269066  1.589188
H    -4.496231  2.206850  3.697923
H    -5.153651  2.839548  1.609243
H    -4.363550  1.419946  0.907522
H    -3.436149  2.921600  1.174324
