33
Energy: -18209.5466559 eV PBE+vdW (tier 2 basis)
C    2.378745  0.025198  2.011547
C    0.909025  -0.279063  2.234686
O    0.272555  -1.010541  1.474757
H    2.499371  0.462326  1.012735
H    2.939750  -0.917638  2.025719
H    2.806466  0.705752  2.757667
N    0.358790  0.297947  3.343661
C    -1.058146  0.231853  3.643955
C    -1.510250  1.649575  4.024510
O    -0.731582  2.454789  4.537210
H    0.862027  1.026523  3.845222
H    -1.562917  -0.104418  2.725646
C    -1.374527  -0.742986  4.805524
C    -1.007710  -2.204310  4.534590
C    -1.825691  -2.871163  3.425316
C    -1.551565  -4.370166  3.287389
N    -1.958949  -5.107071  4.494712
H    -2.450302  -0.669365  5.036623
H    -0.840664  -0.381876  5.698229
H    -1.139057  -2.774905  5.465195
H    0.062951  -2.271470  4.283004
H    -1.604856  -2.394933  2.458692
H    -2.904352  -2.721950  3.618989
H    -0.469395  -4.524197  3.154389
H    -2.035330  -4.736615  2.361645
H    -2.977499  -5.131291  4.564741
H    -1.651746  -6.077943  4.442689
N    -2.823909  1.916473  3.790986
C    -3.456199  3.168517  4.162032
H    -3.379260  1.203075  3.333920
H    -4.265127  3.007176  4.888345
H    -3.865006  3.682604  3.281335
H    -2.688643  3.802095  4.618343
