33
Energy: -18209.4924079 eV PBE+vdW (tier 2 basis)
C    0.063346  1.103920  0.234579
C    -0.018519  0.701140  1.691877
O    0.567153  1.339410  2.576986
H    -0.487862  0.437465  -0.439912
H    1.117363  1.130849  -0.067937
H    -0.332506  2.122001  0.130335
N    -0.770485  -0.398330  1.965060
C    -1.044883  -0.886470  3.317616
C    0.115522  -1.763648  3.879499
O    -0.044908  -2.936814  4.215858
H    -1.169357  -0.919694  1.193291
H    -1.087674  0.009961  3.956514
C    -2.393724  -1.609037  3.379354
C    -2.604771  -2.727581  2.347227
C    -3.865865  -3.565066  2.602706
C    -3.742811  -4.531479  3.781545
N    -4.971718  -5.327430  3.918909
H    -3.194149  -0.859633  3.274894
H    -2.476275  -2.027825  4.390649
H    -1.725525  -3.388650  2.340398
H    -2.691829  -2.294761  1.335617
H    -4.108785  -4.156188  1.707408
H    -4.727719  -2.893621  2.767409
H    -3.468977  -3.977797  4.699650
H    -2.912723  -5.226960  3.585665
H    -5.749771  -4.728581  4.200918
H    -4.863351  -6.020099  4.660018
N    1.287268  -1.086126  3.982978
C    2.508852  -1.700757  4.461352
H    1.286595  -0.107509  3.678302
H    3.281889  -1.714973  3.679251
H    2.279648  -2.731047  4.753514
H    2.904549  -1.161670  5.333469
