33
Energy: -18209.2932276 eV PBE+vdW (tier 2 basis)
C    -0.250024  -0.279012  0.068378
C    -0.458522  0.147521  1.509396
O    0.489659  0.419298  2.243489
H    -0.998637  0.122007  -0.625037
H    -0.297470  -1.374920  -0.001597
H    0.748522  0.043603  -0.238907
N    -1.750261  0.160885  2.011616
C    -2.964212  0.403486  1.221946
C    -3.352770  -0.779700  0.305524
O    -3.969244  -0.611748  -0.744310
H    -1.776461  0.649819  2.912911
H    -3.770537  0.408415  1.973096
C    -2.995236  1.765856  0.489341
C    -4.128769  2.700803  0.939549
C    -4.248223  3.018784  2.439366
C    -3.073006  3.742043  3.111353
N    -1.933204  2.854775  3.426135
H    -3.114593  1.581708  -0.586784
H    -2.021193  2.257009  0.625424
H    -5.083821  2.262973  0.607644
H    -4.029548  3.647891  0.384256
H    -4.450583  2.102815  3.018588
H    -5.142668  3.649912  2.564947
H    -3.436438  4.152364  4.064032
H    -2.773830  4.611360  2.496555
H    -1.456421  3.176817  4.267090
H    -1.228089  2.875817  2.689362
N    -3.021818  -1.999807  0.807767
C    -3.330118  -3.241585  0.129719
H    -2.462895  -2.004871  1.655341
H    -3.896514  -3.918821  0.783591
H    -2.417184  -3.756298  -0.204657
H    -3.939250  -2.999320  -0.747732
