33
Energy: -18209.0655289 eV PBE+vdW (tier 2 basis)
C    0.100978  -0.932044  0.528514
C    -0.200421  -1.124682  2.003502
O    0.682135  -1.426921  2.802510
H    0.016887  0.126476  0.247590
H    -0.575374  -1.510985  -0.113208
H    1.130103  -1.257940  0.356872
N    -1.488312  -0.925435  2.449237
C    -2.739338  -0.695322  1.718635
C    -3.145573  -1.963167  0.917877
O    -3.405337  -3.003942  1.513428
H    -1.587571  -1.190807  3.424312
H    -3.500058  -0.665759  2.510638
C    -2.792328  0.662985  0.994982
C    -4.211307  1.170234  0.677460
C    -5.127304  1.389685  1.890258
C    -4.592393  2.386710  2.918704
N    -5.564517  2.574761  4.000267
H    -2.198851  0.647097  0.067234
H    -2.274933  1.385826  1.642148
H    -4.714400  0.476407  -0.013904
H    -4.110634  2.119622  0.127622
H    -5.348805  0.440383  2.401631
H    -6.099744  1.753351  1.519105
H    -4.307781  3.323972  2.396204
H    -3.670369  1.997138  3.377020
H    -5.185425  3.182634  4.725834
H    -6.407732  3.030841  3.648975
N    -3.183233  -1.850033  -0.441459
C    -3.540817  -2.956406  -1.309113
H    -2.957375  -0.956279  -0.859289
H    -4.422932  -2.714511  -1.918062
H    -3.771098  -3.814172  -0.668681
H    -2.709962  -3.223404  -1.977365
