33
Energy: -18209.1278032 eV PBE+vdW (tier 2 basis)
C    -0.745942  1.680066  -0.068367
C    -0.011591  0.646128  0.762322
O    1.202954  0.691665  0.952770
H    -1.455645  2.252799  0.545727
H    -1.321315  1.217451  -0.882161
H    -0.005739  2.363509  -0.491567
N    -0.767054  -0.359610  1.313986
C    -2.211641  -0.509635  1.290706
C    -3.040282  0.490381  2.134291
O    -4.208884  0.692197  1.805048
H    -0.222338  -1.014915  1.867635
H    -2.566423  -0.290144  0.273127
C    -2.611862  -1.975897  1.565023
C    -2.276546  -2.567075  2.942971
C    -3.255923  -2.207729  4.065953
C    -2.957331  -2.926001  5.384641
N    -3.092761  -4.382152  5.241006
H    -2.122631  -2.576214  0.783364
H    -3.693776  -2.053554  1.386592
H    -1.251152  -2.294459  3.251905
H    -2.257898  -3.662029  2.853147
H    -4.280641  -2.458186  3.741711
H    -3.267649  -1.125471  4.257121
H    -3.600453  -2.495255  6.176477
H    -1.916529  -2.720248  5.682921
H    -2.764034  -4.860223  6.079153
H    -4.075236  -4.636370  5.128591
N    -2.490144  1.167508  3.189043
C    -1.227799  0.997450  3.900996
H    -3.167698  1.798146  3.606910
H    -1.020314  -0.055318  4.130374
H    -1.312814  1.527255  4.856549
H    -0.370511  1.412664  3.355897
