33
Energy: -18209.2242896 eV PBE+vdW (tier 2 basis)
C    0.526877  -0.156420  0.328173
C    0.140734  0.542941  1.621003
O    0.604076  1.641149  1.921968
H    0.180059  0.455186  -0.515189
H    0.113323  -1.167148  0.222533
H    1.620421  -0.205306  0.268077
N    -0.787237  -0.121560  2.379206
C    -1.198406  0.254314  3.742249
C    -2.185031  -0.785251  4.294447
O    -2.213000  -1.062307  5.488426
H    -0.939594  -1.094464  2.134790
H    -0.323521  0.198569  4.408312
C    -1.785265  1.679580  3.914057
C    -3.093970  2.027165  3.186433
C    -3.015033  2.266008  1.665424
C    -2.611248  3.684546  1.244888
N    -1.349709  4.116761  1.849439
H    -1.011113  2.407791  3.653776
H    -1.954569  1.773438  4.997292
H    -3.486267  2.943425  3.655084
H    -3.850149  1.252871  3.394565
H    -4.004795  2.073604  1.221294
H    -2.335272  1.538997  1.197087
H    -3.395586  4.383675  1.580436
H    -2.617198  3.721559  0.135409
H    -1.092440  5.046520  1.521674
H    -0.583286  3.482632  1.610178
N    -3.024983  -1.361849  3.374706
C    -4.100281  -2.248319  3.785601
H    -3.092754  -0.920143  2.463474
H    -4.321825  -2.962604  2.984001
H    -5.018302  -1.695781  4.039215
H    -3.775040  -2.791345  4.678694
