33
Energy: -18209.3340915 eV PBE+vdW (tier 2 basis)
C    0.195215  0.135223  0.539824
C    0.026258  -0.430030  1.936697
O    0.993518  -0.820349  2.593615
H    -0.431043  1.015242  0.343497
H    -0.046445  -0.642727  -0.197332
H    1.247364  0.408139  0.420143
N    -1.237028  -0.517699  2.455243
C    -2.524079  -0.196913  1.867316
C    -3.302994  0.657021  2.884595
O    -3.287710  0.384696  4.082864
H    -1.274822  -0.821812  3.427150
H    -2.354284  0.374705  0.944470
C    -3.363624  -1.455056  1.537303
C    -2.824819  -2.319586  0.375054
C    -2.445195  -3.755878  0.760653
C    -1.137322  -3.866551  1.554435
N    0.004194  -3.397124  0.758912
H    -4.389074  -1.123487  1.313396
H    -3.440549  -2.046059  2.463027
H    -1.935640  -1.852168  -0.070695
H    -3.581331  -2.353216  -0.421727
H    -2.345695  -4.357252  -0.158176
H    -3.260452  -4.219764  1.340087
H    -1.025318  -4.906523  1.914238
H    -1.192931  -3.238116  2.454325
H    0.772756  -3.101628  1.359941
H    0.354007  -4.135139  0.149230
N    -4.024574  1.683409  2.351141
C    -4.878326  2.544183  3.149349
H    -3.962723  1.844449  1.353302
H    -4.562534  3.593803  3.076556
H    -4.789635  2.217903  4.190829
H    -5.929225  2.464704  2.837846
