33
Energy: -18209.1374547 eV PBE+vdW (tier 2 basis)
C    0.396234  1.354762  0.523986
C    0.125588  0.652611  1.844290
O    0.921415  0.679733  2.777756
H    0.670488  2.396411  0.728854
H    -0.449441  1.335733  -0.175010
H    1.261001  0.877778  0.045004
N    -1.076978  0.001227  1.923590
C    -1.475816  -0.833788  3.056658
C    -1.289947  -0.144043  4.433346
O    -0.773216  -0.735983  5.374410
H    -1.662723  -0.019191  1.097975
H    -2.564047  -0.977235  2.941767
C    -0.786417  -2.206288  3.054397
C    -0.974893  -3.005526  1.758413
C    -2.426414  -3.282523  1.340471
C    -3.246319  -4.065158  2.365759
N    -4.615726  -4.273140  1.877121
H    -1.157740  -2.765981  3.922578
H    0.283941  -2.050050  3.242470
H    -0.445048  -3.964206  1.874666
H    -0.463713  -2.488085  0.931307
H    -2.415876  -3.846371  0.392500
H    -2.964469  -2.346343  1.115736
H    -3.319005  -3.495588  3.304584
H    -2.707678  -5.002324  2.613873
H    -4.610719  -4.882651  1.057605
H    -5.180034  -4.745987  2.583102
N    -1.816494  1.109070  4.600079
C    -2.499708  1.973204  3.657042
H    -1.609459  1.487976  5.518511
H    -3.098816  2.697901  4.221790
H    -3.190847  1.403887  3.022974
H    -1.808732  2.529809  3.004573
