33
Energy: -18209.4854795 eV PBE+vdW (tier 2 basis)
C    -3.363382  0.798349  -1.095390
C    -2.374394  0.499702  0.014133
O    -1.349035  -0.155970  -0.184074
H    -3.502008  -0.103255  -1.701469
H    -2.933556  1.575597  -1.743425
H    -4.336306  1.150963  -0.731502
N    -2.673732  1.068650  1.218409
C    -1.888327  0.893364  2.425367
C    -2.854480  0.440225  3.530874
O    -4.020719  0.833510  3.560980
H    -3.606628  1.442035  1.377510
H    -1.148264  0.107970  2.209721
C    -1.173495  2.202363  2.879363
C    0.298888  2.350288  2.459309
C    0.624233  2.190288  0.967667
C    -0.089618  3.164912  0.019591
N    0.107152  2.901552  -1.411811
H    -1.216626  2.264576  3.977363
H    -1.774195  3.046371  2.511639
H    0.897804  1.614660  3.021899
H    0.641543  3.337841  2.810830
H    0.382273  1.166219  0.644650
H    1.713396  2.303196  0.837405
H    0.229682  4.199790  0.222998
H    -1.173230  3.143206  0.207533
H    1.091733  3.019040  -1.657285
H    -0.111504  1.920819  -1.603157
N    -2.305147  -0.371475  4.474992
C    -3.031430  -0.831144  5.644296
H    -1.348919  -0.677279  4.339707
H    -3.106994  -1.927061  5.658967
H    -4.039482  -0.406895  5.593361
H    -2.547230  -0.494406  6.571545
