33
Energy: -18209.1633129 eV PBE+vdW (tier 2 basis)
C    -0.095749  1.038979  0.010067
C    0.262605  0.327370  1.299656
O    1.412023  0.283292  1.734972
H    -0.763681  1.891948  0.197955
H    -0.612613  0.372844  -0.694523
H    0.828613  1.401520  -0.446158
N    -0.766464  -0.271797  1.985154
C    -2.186265  -0.224870  1.682075
C    -2.920157  1.123761  1.893234
O    -3.945112  1.326873  1.241991
H    -0.468298  -0.716057  2.848739
H    -2.320139  -0.397158  0.604492
C    -2.945489  -1.356773  2.401478
C    -2.986683  -1.273446  3.930475
C    -3.784498  -2.420170  4.555660
C    -3.852785  -2.344748  6.079927
N    -4.597462  -3.486455  6.623725
H    -2.495863  -2.312347  2.088988
H    -3.972731  -1.347212  2.011060
H    -3.432007  -0.311710  4.233761
H    -1.965665  -1.287965  4.350672
H    -3.348277  -3.390172  4.270697
H    -4.809139  -2.411383  4.145646
H    -4.265307  -1.357639  6.373677
H    -2.831715  -2.390065  6.490913
H    -4.583522  -3.471965  7.643365
H    -5.579325  -3.434233  6.348008
N    -2.453234  2.068634  2.763938
C    -1.354882  2.058787  3.724090
H    -3.050266  2.890231  2.761578
H    -1.364069  1.161791  4.354738
H    -1.486787  2.922689  4.385191
H    -0.369482  2.142042  3.247461
