33
Energy: -18209.1057691 eV PBE+vdW (tier 2 basis)
C    0.188808  -0.278342  1.171998
C    -0.065645  -0.994933  2.485837
O    0.842551  -1.504930  3.137998
H    1.261599  -0.324717  0.968784
H    -0.118849  0.776074  1.216399
H    -0.354017  -0.747728  0.339974
N    -1.361335  -1.041272  2.939336
C    -2.580486  -0.639447  2.242656
C    -3.585021  -0.059236  3.265855
O    -4.685290  -0.569843  3.461116
H    -1.465262  -1.596882  3.784637
H    -2.308346  0.185030  1.565299
C    -3.208033  -1.758974  1.395454
C    -3.482347  -3.093053  2.126390
C    -2.790784  -4.306835  1.493563
C    -1.269965  -4.309516  1.644705
N    -0.684165  -5.487901  0.994205
H    -2.528084  -1.937406  0.548171
H    -4.138930  -1.366718  0.964895
H    -4.565152  -3.263615  2.158491
H    -3.180028  -3.023241  3.183069
H    -3.041130  -4.374159  0.422433
H    -3.191445  -5.224108  1.957225
H    -1.012976  -4.214248  2.719075
H    -0.840320  -3.423473  1.152693
H    0.332197  -5.469881  1.080304
H    -0.996593  -6.340487  1.461871
N    -3.191586  1.059088  3.948394
C    -1.966322  1.830648  3.817523
H    -3.882244  1.372821  4.622743
H    -1.718336  2.013423  2.762965
H    -1.105223  1.342129  4.294722
H    -2.120738  2.807208  4.289437
