33
Energy: -18209.0655426 eV PBE+vdW (tier 2 basis)
C    -1.898324  -0.208421  -0.315198
C    -1.515500  0.094175  1.123992
O    -0.445404  0.637040  1.399449
H    -1.935565  0.736478  -0.871638
H    -2.858899  -0.725931  -0.426346
H    -1.108135  -0.822153  -0.764525
N    -2.436067  -0.297985  2.055448
C    -2.387019  -0.088139  3.510119
C    -2.934484  1.326501  3.859604
O    -4.158482  1.443535  3.983671
H    -3.325370  -0.627876  1.700700
H    -3.200912  -0.720160  3.887842
C    -1.090379  -0.588772  4.163512
C    -1.085218  -0.545558  5.700269
C    -2.122835  -1.440830  6.406879
C    -3.421603  -0.734210  6.804985
N    -4.347587  -1.682971  7.435902
H    -0.222790  -0.049609  3.772038
H    -0.963857  -1.633405  3.836492
H    -1.202231  0.493352  6.051662
H    -0.076844  -0.847012  6.017996
H    -1.670907  -1.855228  7.323016
H    -2.370508  -2.312866  5.780356
H    -3.930317  -0.319885  5.923321
H    -3.164813  0.134935  7.444873
H    -3.986471  -1.988762  8.340972
H    -5.245921  -1.235995  7.617918
N    -2.124765  2.409249  4.013472
C    -0.681764  2.573830  3.890008
H    -2.665329  3.235833  4.252583
H    -0.152378  2.305105  4.817446
H    -0.479403  3.630208  3.678953
H    -0.293641  1.981489  3.054541
