33
Energy: -18208.9380627 eV PBE+vdW (tier 2 basis)
C    0.232635  0.202907  0.657732
C    -0.044119  0.419915  2.128801
O    0.834290  0.794068  2.902617
H    -0.371314  0.871584  0.029888
H    0.015532  -0.834424  0.376716
H    1.290733  0.416955  0.486169
N    -1.325872  0.238337  2.616719
C    -2.530395  -0.367517  2.062060
C    -2.391065  -1.901219  1.900428
O    -1.310543  -2.448988  1.708638
H    -1.329505  0.353397  3.625997
H    -3.281729  -0.198317  2.845589
C    -3.083963  0.319064  0.771460
C    -2.975257  -0.451767  -0.548970
C    -3.380722  0.404885  -1.749627
C    -3.302863  -0.348085  -3.076328
N    -3.744648  0.505284  -4.186559
H    -2.569951  1.286466  0.682869
H    -4.142163  0.567187  0.942740
H    -3.614839  -1.348803  -0.513767
H    -1.951524  -0.824424  -0.692083
H    -2.725489  1.292562  -1.799141
H    -4.405334  0.789635  -1.623430
H    -3.977935  -1.217725  -3.038747
H    -2.278103  -0.753038  -3.200537
H    -3.092345  1.279916  -4.318833
H    -3.747389  -0.018903  -5.061538
N    -3.547248  -2.631138  1.991090
C    -4.914615  -2.159588  2.124631
H    -3.402896  -3.620544  1.812694
H    -5.001836  -1.398249  2.910886
H    -5.548473  -3.003338  2.418216
H    -5.317677  -1.739764  1.189005
