33
Energy: -18209.3818009 eV PBE+vdW (tier 2 basis)
C    -0.514955  -0.372233  0.062633
C    -0.329003  -0.056909  1.535045
O    0.804669  0.115542  2.002539
H    -1.562166  -0.411215  -0.260799
H    -0.045860  -1.342799  -0.144570
H    0.018015  0.381125  -0.529359
N    -1.479185  0.032187  2.257417
C    -1.707606  0.146370  3.713411
C    -1.045916  1.308672  4.494354
O    -1.568779  1.643237  5.559340
H    -2.327603  -0.119685  1.725306
H    -2.769413  0.419626  3.787045
C    -1.580266  -1.208209  4.453863
C    -0.226606  -1.925613  4.461646
C    0.881948  -1.255177  5.279378
C    2.083945  -2.170945  5.523469
N    1.714497  -3.331142  6.348936
H    -2.330552  -1.880942  4.008606
H    -1.910374  -1.018831  5.486744
H    0.128710  -2.081595  3.431077
H    -0.392687  -2.929416  4.880458
H    0.477890  -0.922607  6.251626
H    1.242305  -0.350769  4.771562
H    2.907979  -1.568207  5.952074
H    2.448129  -2.554486  4.557143
H    2.490218  -3.989754  6.412023
H    1.509944  -3.032096  7.303708
N    0.046846  1.902723  3.965532
C    0.753670  2.936977  4.696720
H    0.528264  1.392810  3.212274
H    1.385648  3.500768  4.001446
H    1.387622  2.517711  5.495106
H    0.031675  3.614648  5.165780
