33
Energy: -18209.1444916 eV PBE+vdW (tier 2 basis)
C    -0.281381  -0.744961  -0.142929
C    -0.162223  -0.532739  1.352054
O    0.892936  -0.723635  1.954304
H    -0.891608  0.010715  -0.649988
H    -0.745301  -1.721452  -0.343525
H    0.729101  -0.750760  -0.560199
N    -1.286900  -0.159793  2.054366
C    -2.625218  0.212036  1.589744
C    -3.252654  -0.840965  0.645393
O    -3.663369  -0.548522  -0.475098
H    -1.092596  -0.043197  3.044619
H    -3.247697  0.194370  2.500107
C    -2.712450  1.621918  0.987290
C    -2.176209  2.725995  1.908550
C    -2.852755  2.841741  3.281918
C    -4.352484  3.132181  3.232464
N    -4.905935  3.202941  4.590551
H    -3.761521  1.805809  0.717139
H    -2.165144  1.643910  0.035301
H    -2.273225  3.685768  1.376999
H    -1.096266  2.577968  2.060052
H    -2.355248  3.647758  3.846535
H    -2.697939  1.930186  3.882394
H    -4.878517  2.318218  2.710155
H    -4.519597  4.046594  2.627236
H    -4.503407  3.993444  5.096696
H    -5.912810  3.363122  4.560575
N    -3.350464  -2.118529  1.122716
C    -2.980359  -2.646338  2.426101
H    -3.758831  -2.758890  0.449310
H    -3.515161  -3.590156  2.581410
H    -3.279347  -1.964477  3.233329
H    -1.901184  -2.835134  2.516185
