33
Energy: -18209.462281 eV PBE+vdW (tier 2 basis)
C    1.067249  -0.798106  0.771346
C    -0.233748  -0.703587  1.545704
O    -1.271200  -1.234549  1.147437
H    0.879610  -0.515765  -0.271046
H    1.399601  -1.844818  0.772911
H    1.870203  -0.172829  1.180250
N    -0.155095  -0.027556  2.729709
C    -1.316759  0.258898  3.549307
C    -1.166453  1.708511  4.040184
O    -0.056348  2.222357  4.185943
H    0.668531  0.524479  2.959482
H    -2.198701  0.155601  2.896972
C    -1.487035  -0.688257  4.762426
C    -1.703049  -2.168841  4.399077
C    -0.413227  -2.987945  4.256397
C    -0.638502  -4.388809  3.687295
N    -1.471630  -5.215921  4.576549
H    -2.351773  -0.323488  5.338179
H    -0.612146  -0.577690  5.423082
H    -2.280866  -2.228948  3.462711
H    -2.323242  -2.624701  5.185996
H    0.072601  -3.075124  5.241830
H    0.292060  -2.462107  3.597816
H    0.335075  -4.892079  3.593257
H    -1.046566  -4.290039  2.661753
H    -2.445107  -4.911782  4.537925
H    -1.469491  -6.184397  4.256846
N    -2.333603  2.344521  4.329310
C    -2.389595  3.685931  4.880045
H    -3.200915  1.856344  4.140439
H    -1.359702  4.042167  4.984908
H    -2.872673  3.691584  5.867120
H    -2.935504  4.365943  4.211839
