33
Energy: -18209.0709455 eV PBE+vdW (tier 2 basis)
C    -0.438771  0.018219  -0.042516
C    -0.684462  0.268990  1.435302
O    -0.025821  1.082738  2.076511
H    -1.216320  -0.583414  -0.529651
H    0.524111  -0.498532  -0.151257
H    -0.352824  0.982796  -0.555383
N    -1.698980  -0.468326  1.987784
C    -2.005310  -0.545807  3.416272
C    -1.882847  0.805809  4.167546
O    -1.276069  0.890874  5.229597
H    -2.141827  -1.160824  1.395135
H    -3.083503  -0.779805  3.468318
C    -1.270867  -1.704990  4.133856
C    0.211508  -1.926731  3.802833
C    1.209339  -0.934892  4.404085
C    2.626435  -1.164337  3.887287
N    3.565209  -0.230255  4.522766
H    -1.816208  -2.627178  3.876893
H    -1.399810  -1.549370  5.213925
H    0.336977  -1.953669  2.706607
H    0.469811  -2.942603  4.144811
H    1.203839  -1.009475  5.501660
H    0.906836  0.092641  4.162820
H    2.610932  -1.092486  2.779258
H    2.956813  -2.188032  4.130934
H    4.502401  -0.344496  4.136246
H    3.282988  0.730109  4.318546
N    -2.615634  1.863304  3.697828
C    -3.362872  2.006190  2.463325
H    -2.447005  2.705348  4.239163
H    -4.077970  2.828864  2.583909
H    -3.940067  1.100157  2.242631
H    -2.720401  2.229374  1.596777
