33
Energy: -18209.3670729 eV PBE+vdW (tier 2 basis)
C    -0.027222  -0.655982  -0.253711
C    -0.008089  -0.504586  1.253188
O    1.027948  -0.712640  1.904682
H    0.810561  -0.090692  -0.678353
H    -0.961974  -0.327219  -0.723435
H    0.133603  -1.714854  -0.496265
N    -1.180833  -0.136911  1.826042
C    -1.506052  -0.049817  3.262778
C    -0.890573  1.153717  4.013976
O    -1.558748  1.733364  4.870389
H    -1.951178  0.049240  1.196152
H    -2.578115  0.177046  3.275319
C    -1.306802  -1.392837  4.026420
C    -0.061355  -1.534221  4.916034
C    0.179541  -2.993962  5.351121
C    1.179200  -3.751094  4.469647
N    0.790620  -3.763638  3.049455
H    -1.324170  -2.203492  3.285170
H    -2.192439  -1.537234  4.662095
H    -0.183259  -0.891425  5.799881
H    0.829504  -1.165559  4.388911
H    -0.777166  -3.540686  5.367580
H    0.566504  -3.015187  6.381251
H    1.230120  -4.794982  4.813577
H    2.186494  -3.316859  4.633831
H    1.006198  -2.858713  2.622443
H    1.353166  -4.450150  2.547255
N    0.383779  1.482151  3.683631
C    1.110442  2.518622  4.390693
H    0.893954  0.824066  3.088814
H    1.802647  3.022518  3.705361
H    1.684526  2.112852  5.238801
H    0.391657  3.245154  4.783981
