33
Energy: -18209.368364 eV PBE+vdW (tier 2 basis)
C    0.813128  0.031805  0.480163
C    -0.069875  1.056268  1.167456
O    0.143654  2.267120  1.023937
H    0.847569  0.259320  -0.591936
H    0.489649  -1.006933  0.618169
H    1.833755  0.138579  0.869470
N    -1.086623  0.538613  1.910700
C    -2.042772  1.182842  2.834575
C    -2.917915  2.355285  2.326409
O    -3.994302  2.542946  2.899505
H    -1.139006  -0.472920  1.913413
H    -2.805517  0.409166  2.997141
C    -1.443587  1.462247  4.236350
C    -0.227540  2.392298  4.363057
C    -0.432737  3.887966  4.073629
C    -1.552556  4.569872  4.862896
N    -1.308912  4.510336  6.315466
H    -1.165027  0.483381  4.657818
H    -2.282260  1.826149  4.849225
H    0.587181  2.024293  3.722137
H    0.148174  2.282545  5.393358
H    -0.615367  4.038807  3.001401
H    0.513353  4.402273  4.302010
H    -2.533184  4.155515  4.563178
H    -1.569156  5.632994  4.580343
H    -1.455733  3.561542  6.663079
H    -1.989707  5.091103  6.805387
N    -2.467292  3.100882  1.296091
C    -3.200690  4.268419  0.845683
H    -1.478246  2.982256  1.035349
H    -2.863351  4.537755  -0.161304
H    -3.049788  5.130953  1.514923
H    -4.273384  4.045661  0.824691
