33
Energy: -18209.1850439 eV PBE+vdW (tier 2 basis)
C    0.653041  -0.314651  2.010763
C    0.078469  0.421771  3.210344
O    0.782144  0.750770  4.161461
H    0.141295  -1.267545  1.823044
H    1.708670  -0.509468  2.216234
H    0.578823  0.289571  1.094894
N    -1.267874  0.694158  3.205931
C    -2.214759  0.546535  2.118022
C    -2.745307  1.942091  1.734454
O    -2.928819  2.799358  2.595945
H    -1.566338  1.317374  3.955383
H    -1.693951  0.085113  1.272429
C    -3.426733  -0.327251  2.529609
C    -3.096879  -1.789330  2.877222
C    -3.275345  -2.802537  1.735492
C    -2.305182  -2.673430  0.551805
N    -2.448058  -3.668391  -0.514892
H    -4.183820  -0.291730  1.728756
H    -3.886516  0.171480  3.395424
H    -3.750405  -2.101868  3.704291
H    -2.073877  -1.845575  3.283096
H    -4.309635  -2.738015  1.354010
H    -3.171204  -3.818918  2.150307
H    -1.268401  -2.731250  0.920204
H    -2.403689  -1.682810  0.082086
H    -3.394445  -3.645429  -0.898196
H    -2.315525  -4.609698  -0.141561
N    -3.041083  2.166975  0.420866
C    -2.888309  1.257061  -0.702091
H    -3.439235  3.084409  0.246033
H    -3.131332  1.799336  -1.621665
H    -3.563017  0.389577  -0.637719
H    -1.856231  0.891349  -0.799660
