33
Energy: -18209.0639412 eV PBE+vdW (tier 2 basis)
C    1.180794  -0.349957  -0.433965
C    0.679450  -0.713461  0.953132
O    1.047916  -1.739121  1.523388
H    0.822035  0.619856  -0.800871
H    0.870181  -1.134238  -1.135779
H    2.277403  -0.343129  -0.418305
N    -0.183321  0.191976  1.511428
C    -0.930519  -0.017500  2.757603
C    -1.868171  1.162177  3.070558
O    -2.957324  0.924781  3.587200
H    -0.550584  0.903397  0.889536
H    -1.634831  -0.851119  2.610681
C    -0.069037  -0.408718  3.983223
C    1.112240  0.502450  4.327954
C    2.067212  -0.097690  5.376533
C    3.208586  -0.970102  4.813107
N    2.882520  -2.221903  4.134239
H    0.288143  -1.428023  3.807310
H    -0.762992  -0.458906  4.836042
H    0.733663  1.467587  4.697574
H    1.692241  0.726962  3.417120
H    1.491535  -0.678750  6.117383
H    2.537722  0.723572  5.942132
H    3.893459  -1.206492  5.643853
H    3.796635  -0.360206  4.106983
H    2.356762  -2.071010  3.270922
H    2.319622  -2.828330  4.730844
N    -1.535819  2.454481  2.729632
C    -0.238704  3.089806  2.528431
H    -2.293033  3.083266  2.989643
H    -0.307090  3.827312  1.716900
H    0.517424  2.349264  2.260263
H    0.102544  3.605746  3.438666
