33
Energy: -18209.3671668 eV PBE+vdW (tier 2 basis)
C    0.082663  1.371814  0.750358
C    0.080567  0.397126  1.910656
O    1.080260  0.157930  2.581350
H    -0.684127  2.150063  0.865068
H    -0.120834  0.854437  -0.198197
H    1.070227  1.836434  0.697218
N    -1.119702  -0.220836  2.199388
C    -2.371521  -0.135371  1.455331
C    -3.158129  1.171602  1.698348
O    -3.957352  1.587750  0.861338
H    -1.041790  -0.935780  2.918794
H    -2.165615  -0.146678  0.375291
C    -3.229618  -1.368399  1.812681
C    -4.557789  -1.520849  1.059634
C    -4.454696  -1.629963  -0.470004
C    -3.544141  -2.742485  -0.993298
N    -4.023021  -4.073010  -0.591949
H    -3.434903  -1.340733  2.895731
H    -2.594062  -2.252421  1.639832
H    -5.214999  -0.673517  1.298810
H    -5.063616  -2.413709  1.460103
H    -4.114280  -0.667320  -0.879963
H    -5.466717  -1.796938  -0.867850
H    -2.494170  -2.541744  -0.693715
H    -3.555095  -2.709090  -2.092449
H    -3.469662  -4.801638  -1.042312
H    -3.913394  -4.213233  0.412949
N    -2.920761  1.773855  2.894715
C    -3.577686  2.999342  3.303250
H    -2.177464  1.384799  3.465428
H    -2.855762  3.819700  3.421870
H    -4.116103  2.862614  4.251126
H    -4.295169  3.267647  2.520292
