33
Energy: -18209.196141 eV PBE+vdW (tier 2 basis)
C    -0.354036  0.360676  -0.156237
C    0.100596  0.604150  1.272835
O    1.059371  1.320525  1.540338
H    -1.362992  0.764745  -0.324718
H    -0.373190  -0.709801  -0.405395
H    0.346048  0.869743  -0.823377
N    -0.597646  -0.041956  2.268696
C    -1.860401  -0.738312  2.126195
C    -3.051761  0.242176  2.037621
O    -3.031600  1.330225  2.614025
H    -0.355688  0.292340  3.197981
H    -1.811754  -1.340125  1.208687
C    -2.083468  -1.711920  3.305502
C    -2.202690  -1.048939  4.697875
C    -3.411723  -1.538116  5.508076
C    -4.783155  -1.118401  4.940447
N    -5.092367  0.310289  4.895717
H    -1.255257  -2.434306  3.293595
H    -2.993363  -2.291600  3.091983
H    -2.274097  0.044595  4.592379
H    -1.285202  -1.235970  5.272748
H    -3.329543  -1.157111  6.539047
H    -3.383672  -2.639259  5.586810
H    -5.568277  -1.615306  5.531102
H    -4.898776  -1.510878  3.916347
H    -4.426552  0.824917  4.315079
H    -5.050999  0.718941  5.829760
N    -4.151133  -0.166799  1.339330
C    -4.356308  -1.413516  0.620813
H    -4.936363  0.473133  1.418381
H    -5.284050  -1.331937  0.045089
H    -4.451250  -2.281990  1.290942
H    -3.543109  -1.608150  -0.091564
