33
Energy: -18209.3927434 eV PBE+vdW (tier 2 basis)
C    -0.060735  0.866678  0.406031
C    0.038951  -0.096772  1.572592
O    1.125950  -0.383638  2.081195
H    -0.950238  1.509069  0.445736
H    -0.092203  0.293286  -0.531127
H    0.839895  1.487166  0.402262
N    -1.118147  -0.647215  2.043511
C    -2.439395  -0.630637  1.448877
C    -3.417186  -1.081453  2.551631
O    -3.040109  -1.736826  3.521463
H    -1.028364  -1.260184  2.854041
H    -2.694787  0.403182  1.161863
C    -2.594023  -1.519200  0.181394
C    -2.630027  -3.040177  0.399010
C    -1.340009  -3.748052  0.849195
C    -0.215547  -3.842612  -0.187250
N    0.434457  -2.548647  -0.449151
H    -1.778362  -1.267362  -0.508408
H    -3.532799  -1.220260  -0.313948
H    -2.952299  -3.495943  -0.552174
H    -3.424573  -3.281593  1.123568
H    -1.612699  -4.779442  1.122785
H    -0.949145  -3.298768  1.773880
H    -0.636614  -4.202671  -1.140506
H    0.495151  -4.621482  0.152523
H    1.142346  -2.656208  -1.175882
H    0.932876  -2.229232  0.385558
N    -4.716875  -0.737877  2.337619
C    -5.797194  -1.152076  3.213689
H    -4.938079  -0.186911  1.516956
H    -6.324028  -0.283251  3.631320
H    -5.354136  -1.726344  4.033755
H    -6.520455  -1.786679  2.682545
