33
Energy: -18209.4568021 eV PBE+vdW (tier 2 basis)
C    -1.540177  -0.959603  -0.077277
C    -1.040099  -1.018638  1.353172
O    -0.032485  -1.655010  1.665317
H    -2.425850  -0.326610  -0.211613
H    -1.775002  -1.978470  -0.409938
H    -0.731632  -0.584727  -0.716628
N    -1.774914  -0.306370  2.259985
C    -1.476170  -0.290908  3.686661
C    -2.445607  -1.259736  4.402151
O    -3.629131  -0.944519  4.571747
H    -2.654601  0.104848  1.967023
H    -0.437516  -0.630577  3.775794
C    -1.633095  1.113526  4.273317
C    -1.264845  1.172184  5.761635
C    -1.831515  2.386796  6.507656
C    -3.365616  2.450912  6.537246
N    -3.951123  1.214036  7.069549
H    -2.680281  1.419738  4.130726
H    -1.010009  1.808150  3.691057
H    -0.169084  1.155137  5.868474
H    -1.629404  0.266849  6.272475
H    -1.448792  3.319138  6.059776
H    -1.465328  2.355491  7.544930
H    -3.745569  2.716479  5.530263
H    -3.659609  3.279382  7.198211
H    -3.980989  0.489429  6.347132
H    -4.918404  1.376365  7.346308
N    -1.963918  -2.462203  4.805914
C    -0.602741  -2.978332  4.712836
H    -2.658682  -3.031881  5.280611
H    -0.642664  -4.070076  4.797084
H    0.039807  -2.596159  5.521041
H    -0.155689  -2.730951  3.742236
