33
Energy: -18208.873199 eV PBE+vdW (tier 2 basis)
C    0.224081  0.584190  0.836864
C    -0.125296  -0.566495  1.760246
O    0.728548  -1.400093  2.063426
H    1.246219  0.414932  0.488221
H    0.185339  1.543721  1.367890
H    -0.443590  0.656702  -0.029032
N    -1.386530  -0.687040  2.306196
C    -2.705087  -0.046346  2.164740
C    -3.731566  -1.074308  1.624374
O    -4.701660  -1.379181  2.320000
H    -1.408386  -1.501564  2.917344
H    -3.070607  0.112760  3.190818
C    -2.735194  1.331447  1.486013
C    -4.054815  2.107577  1.663021
C    -5.275373  1.643495  0.851267
C    -5.075840  1.633240  -0.671138
N    -6.246050  1.251943  -1.469429
H    -2.483995  1.266052  0.419916
H    -1.939139  1.930530  1.949917
H    -3.841999  3.156172  1.399134
H    -4.320847  2.115741  2.731691
H    -6.110050  2.324788  1.085645
H    -5.602826  0.647533  1.181992
H    -4.265551  0.939832  -0.942692
H    -4.747802  2.629290  -1.011617
H    -6.571591  0.325475  -1.187576
H    -7.021985  1.889649  -1.283033
N    -3.554095  -1.643846  0.394736
C    -2.448998  -1.535670  -0.544120
H    -4.260817  -2.346413  0.199304
H    -2.745824  -2.027810  -1.476436
H    -1.531072  -2.014724  -0.175374
H    -2.225568  -0.490273  -0.789818
