33
Energy: -18209.1352134 eV PBE+vdW (tier 2 basis)
C    1.251703  0.233161  1.714949
C    0.053686  1.104074  2.046199
O    -0.115762  2.205091  1.523693
H    1.284398  0.077718  0.629733
H    1.246054  -0.742688  2.216087
H    2.164923  0.773067  1.995443
N    -0.826635  0.572829  2.949024
C    -1.951924  1.339086  3.501709
C    -2.571725  0.575705  4.679905
O    -2.684733  1.107832  5.780124
H    -0.537252  -0.257790  3.453545
H    -1.553469  2.257781  3.954604
C    -3.013885  1.745875  2.438259
C    -3.185246  3.263892  2.332773
C    -4.013223  3.718995  1.124505
C    -3.384430  3.393644  -0.236345
N    -2.057095  4.000509  -0.372218
H    -3.985993  1.286736  2.676736
H    -2.705959  1.326798  1.471315
H    -2.189532  3.727931  2.283641
H    -3.653322  3.638135  3.256464
H    -4.147950  4.809197  1.187882
H    -5.019768  3.268957  1.164691
H    -4.031012  3.812170  -1.022111
H    -3.389511  2.294278  -0.393663
H    -1.368054  3.502504  0.196562
H    -1.735682  3.935893  -1.337165
N    -2.969919  -0.727530  4.483740
C    -3.257832  -1.420316  3.234921
H    -3.397912  -1.111181  5.322848
H    -3.075262  -2.494617  3.364981
H    -2.602403  -1.061988  2.435579
H    -4.301494  -1.280188  2.911582
