33
Energy: -18209.479002 eV PBE+vdW (tier 2 basis)
C    -6.056613  3.114002  2.297003
C    -4.572425  2.980805  2.011518
O    -4.030953  3.553631  1.065525
H    -6.615606  2.784565  1.412406
H    -6.290948  4.173926  2.456000
H    -6.391810  2.538539  3.168586
N    -3.879788  2.183679  2.876978
C    -2.460872  1.921751  2.725079
C    -2.226149  0.487579  3.212487
O    -2.801532  0.048751  4.209350
H    -4.343564  1.683408  3.630040
H    -2.230339  2.016460  1.652432
C    -1.613600  2.963910  3.496239
C    -0.090581  2.829951  3.338767
C    0.593545  1.929960  4.373799
C    2.089618  1.694356  4.108545
N    2.447904  0.922877  2.912649
H    -1.894777  2.919857  4.559819
H    -1.942129  3.941864  3.118939
H    0.359962  3.832780  3.402305
H    0.136734  2.477683  2.316613
H    0.087008  0.954314  4.439391
H    0.481849  2.389974  5.369926
H    2.528094  1.176797  4.975049
H    2.609504  2.663543  4.040356
H    1.991860  0.009484  2.922619
H    2.144694  1.397358  2.062128
N    -1.347357  -0.241055  2.471047
C    -0.928328  -1.578727  2.841323
H    -0.906491  0.211303  1.679384
H    0.075446  -1.583193  3.294913
H    -0.924239  -2.237493  1.964315
H    -1.641118  -1.960641  3.579471
