33
Energy: -18209.3702658 eV PBE+vdW (tier 2 basis)
C    -0.454464  -0.655976  -0.087096
C    -0.334705  -0.006209  1.277273
O    0.730475  -0.080047  1.908171
H    -1.348897  -0.358503  -0.647826
H    -0.477655  -1.746094  0.055111
H    0.438779  -0.417191  -0.674586
N    -1.461740  0.615037  1.718683
C    -1.895125  1.166053  3.025633
C    -0.959235  2.083770  3.845655
O    -1.497442  2.862056  4.638184
H    -2.226446  0.579602  1.054224
H    -2.693141  1.864823  2.740526
C    -2.580486  0.116190  3.947743
C    -1.725818  -0.689724  4.939438
C    -0.628463  -1.605262  4.381106
C    -1.082946  -2.630760  3.333443
N    -0.005475  -3.384771  2.678878
H    -3.166327  -0.555355  3.301345
H    -3.312460  0.681626  4.541013
H    -2.431593  -1.293442  5.533787
H    -1.268293  0.011966  5.653889
H    -0.164954  -2.142968  5.224684
H    0.171409  -0.998672  3.934616
H    -1.655012  -2.125430  2.539971
H    -1.781794  -3.354663  3.782055
H    0.454621  -3.996176  3.355166
H    0.713425  -2.730236  2.360957
N    0.372572  1.975484  3.678251
C    1.292530  2.779400  4.460270
H    0.721877  1.222516  3.066649
H    2.285899  2.725676  4.001974
H    1.360568  2.428139  5.501494
H    0.957669  3.823693  4.483578
