33
Energy: -18209.1571965 eV PBE+vdW (tier 2 basis)
C    -0.332614  -0.358159  -0.091366
C    -1.185569  -0.185888  1.153483
O    -2.360835  -0.538077  1.200587
H    0.680079  0.054533  0.001119
H    -0.839858  0.122830  -0.936722
H    -0.259302  -1.428377  -0.322125
N    -0.557808  0.401497  2.218931
C    -1.198842  0.561050  3.514368
C    -2.288598  1.650266  3.662927
O    -3.059213  1.548299  4.616025
H    0.415125  0.665880  2.125388
H    -1.765008  -0.360162  3.712596
C    -0.145843  0.734374  4.623191
C    0.692404  2.014587  4.537897
C    1.702317  2.136236  5.681037
C    2.555552  3.400619  5.598095
N    3.481922  3.480193  6.733171
H    0.511742  -0.149834  4.612460
H    -0.685552  0.715545  5.579641
H    0.022274  2.889748  4.547963
H    1.239251  2.061595  3.578644
H    2.363969  1.252210  5.680230
H    1.179273  2.126005  6.649423
H    1.898387  4.283206  5.644461
H    3.055150  3.434338  4.607347
H    4.175207  2.732362  6.681233
H    4.001026  4.357747  6.714183
N    -2.384862  2.714688  2.810935
C    -1.621696  3.099584  1.634413
H    -3.183026  3.295808  3.048819
H    -1.901764  4.127863  1.377800
H    -1.834971  2.462130  0.764313
H    -0.542097  3.093083  1.825050
