33
Energy: -18209.4986846 eV PBE+vdW (tier 2 basis)
C    -0.164746  -0.248387  0.063451
C    -0.088394  -0.058643  1.565404
O    1.001566  0.035795  2.144919
H    0.409965  0.548528  -0.423431
H    -1.186458  -0.251358  -0.335059
H    0.317062  -1.201032  -0.191649
N    -1.283651  0.000532  2.213598
C    -1.510946  0.043686  3.667262
C    -1.162267  1.387576  4.355699
O    -1.979360  1.909144  5.115920
H    -2.115436  -0.048396  1.639063
H    -2.599025  -0.018695  3.784464
C    -0.866304  -1.136345  4.425618
C    -1.245812  -2.525385  3.900379
C    -2.740594  -2.851831  3.938979
C    -3.076422  -4.301363  3.542582
N    -2.591348  -5.370457  4.418478
H    -1.179228  -1.034308  5.476308
H    0.225807  -1.027549  4.406324
H    -0.695565  -3.262981  4.506387
H    -0.871033  -2.647421  2.870584
H    -3.293900  -2.181043  3.259387
H    -3.138496  -2.653432  4.949563
H    -2.686476  -4.501381  2.531149
H    -4.169767  -4.405379  3.470726
H    -2.928573  -5.235296  5.372649
H    -1.572553  -5.375275  4.465896
N    0.073647  1.877797  4.092545
C    0.567421  3.101411  4.691100
H    0.675409  1.323030  3.473603
H    0.920678  3.798864  3.919151
H    1.395999  2.900745  5.386333
H    -0.253770  3.564953  5.248063
