33
Energy: -18209.1283137 eV PBE+vdW (tier 2 basis)
C    -0.678374  -1.879039  1.694526
C    -0.078004  -0.597938  2.238501
O    1.034024  -0.558091  2.762766
H    -1.662333  -2.089361  2.136130
H    0.004977  -2.699489  1.926860
H    -0.816535  -1.822347  0.605271
N    -0.831971  0.544235  2.116408
C    -2.099950  0.708916  1.428175
C    -2.085330  0.640324  -0.120201
O    -3.131946  0.330062  -0.688733
H    -0.367889  1.370942  2.481835
H    -2.742407  -0.147224  1.680170
C    -2.850645  1.953905  1.949988
C    -2.189489  3.326924  1.747756
C    -2.336874  3.925251  0.345371
C    -1.657045  5.285757  0.208319
N    -1.737885  5.768840  -1.175657
H    -3.011437  1.786159  3.025329
H    -3.843977  1.951523  1.479427
H    -1.119745  3.290341  2.021300
H    -2.637281  4.021463  2.475955
H    -3.410387  4.024525  0.111190
H    -1.925519  3.258422  -0.424034
H    -0.588644  5.182973  0.459510
H    -2.086527  5.984100  0.955572
H    -2.711864  5.926242  -1.439559
H    -1.265936  6.668185  -1.269887
N    -0.943322  0.867074  -0.837947
C    0.344191  1.437533  -0.454585
H    -1.116903  0.768294  -1.833821
H    0.862058  1.731386  -1.374172
H    0.981235  0.725473  0.085087
H    0.232321  2.343205  0.155085
