33
Energy: -18209.2552807 eV PBE+vdW (tier 2 basis)
C    -0.355276  0.128601  -0.328920
C    -0.368709  -0.108353  1.168840
O    0.647555  -0.012647  1.856526
H    -1.342796  0.043103  -0.799051
H    0.327190  -0.592446  -0.796317
H    0.047541  1.130438  -0.521345
N    -1.584039  -0.458123  1.692947
C    -1.804302  -0.618672  3.126236
C    -2.455633  -1.984687  3.429296
O    -3.560588  -2.086760  3.962660
H    -2.391204  -0.457389  1.081174
H    -0.786576  -0.629945  3.549005
C    -2.534258  0.571622  3.775876
C    -3.976615  0.903465  3.359041
C    -4.194146  1.344742  1.906836
C    -5.557840  1.999327  1.689018
N    -5.757026  2.333143  0.272191
H    -1.892356  1.451460  3.607557
H    -2.529507  0.389002  4.860603
H    -4.307775  1.724166  4.017198
H    -4.623077  0.046245  3.587566
H    -4.139980  0.489556  1.213830
H    -3.401079  2.049210  1.599081
H    -5.650533  2.867643  2.372097
H    -6.348235  1.289527  1.978143
H    -6.705020  2.674923  0.114697
H    -5.130025  3.090399  -0.004348
N    -1.738049  -3.098563  3.091747
C    -0.421011  -3.205948  2.486951
H    -2.242070  -3.958524  3.286451
H    0.065250  -4.118650  2.852312
H    0.213709  -2.355211  2.759417
H    -0.468699  -3.252199  1.387560
