33
Energy: -18209.2254738 eV PBE+vdW (tier 2 basis)
C    0.543161  2.131101  0.580800
C    0.356595  0.674582  0.978359
O    1.311969  -0.091988  1.088552
H    0.155901  2.812762  1.352103
H    0.029330  2.370430  -0.360272
H    1.614166  2.309731  0.455646
N    -0.920253  0.250504  1.225391
C    -2.158470  0.995563  1.121153
C    -3.162263  0.314852  2.070041
O    -3.010770  -0.855979  2.418692
H    -1.021278  -0.705048  1.566293
H    -1.982783  2.026784  1.465468
C    -2.738771  1.075793  -0.321576
C    -3.401525  -0.185259  -0.887095
C    -2.487501  -1.400729  -1.083472
C    -3.106469  -2.466975  -1.991438
N    -3.283658  -1.961087  -3.361714
H    -1.914401  1.383132  -0.982956
H    -3.467369  1.900625  -0.351183
H    -3.828155  0.076507  -1.867008
H    -4.254277  -0.475958  -0.250720
H    -2.248511  -1.866270  -0.117360
H    -1.522977  -1.079276  -1.513130
H    -4.102993  -2.737439  -1.607431
H    -2.489309  -3.383547  -1.934576
H    -2.375821  -1.862015  -3.818725
H    -3.817678  -2.623610  -3.923259
N    -4.241711  1.038167  2.483858
C    -4.605055  2.409410  2.173822
H    -4.890086  0.491457  3.042823
H    -3.712954  3.039924  2.080870
H    -5.207172  2.812679  2.996362
H    -5.188611  2.493734  1.244009
