33
Energy: -18209.4312028 eV PBE+vdW (tier 2 basis)
C    -0.103422  1.309455  -0.456413
C    -0.133773  0.801471  0.972889
O    0.884423  0.710877  1.660322
H    0.273095  2.340188  -0.456035
H    -1.081939  1.288317  -0.951380
H    0.606206  0.701927  -1.031081
N    -1.368730  0.468146  1.448386
C    -1.549890  -0.115888  2.761036
C    -2.796629  -1.007271  2.677355
O    -3.617101  -0.867647  1.766011
H    -2.182676  0.412585  0.839617
H    -0.651973  -0.715057  2.979710
C    -1.679924  0.958836  3.870548
C    -2.934658  1.826949  3.773095
C    -2.947971  2.960053  4.803258
C    -4.241371  3.776739  4.810095
N    -4.436336  4.495534  3.543012
H    -0.777210  1.583441  3.802293
H    -1.638981  0.470055  4.856269
H    -3.834878  1.202290  3.904467
H    -2.994957  2.248361  2.757663
H    -2.101584  3.639167  4.614137
H    -2.800977  2.538634  5.811954
H    -4.179090  4.531213  5.607964
H    -5.086002  3.107032  5.074746
H    -4.682779  3.847014  2.794745
H    -5.216388  5.147363  3.621925
N    -2.986182  -1.935061  3.656469
C    -2.124855  -2.275144  4.775590
H    -3.863818  -2.437385  3.562055
H    -2.233759  -3.342741  5.001236
H    -2.367472  -1.702370  5.683842
H    -1.073419  -2.096072  4.524928
