33
Energy: -18209.381551 eV PBE+vdW (tier 2 basis)
C    1.835038  -1.078809  0.636816
C    1.080811  -0.050770  1.459325
O    1.631152  0.944927  1.933004
H    2.241272  -0.586124  -0.255666
H    1.217969  -1.929765  0.323523
H    2.685740  -1.445442  1.224048
N    -0.250398  -0.296197  1.621995
C    -1.088144  0.548657  2.448170
C    -2.221424  -0.339483  2.978435
O    -2.499270  -1.410011  2.430421
H    -0.672784  -1.178521  1.342051
H    -0.459403  0.912107  3.276819
C    -1.626344  1.803549  1.705724
C    -2.810756  1.603841  0.751229
C    -2.533374  0.758450  -0.496992
C    -3.725616  0.672142  -1.452343
N    -4.069127  1.981047  -2.030214
H    -0.768881  2.234014  1.168853
H    -1.907461  2.550817  2.462541
H    -3.131892  2.609903  0.436604
H    -3.665095  1.169746  1.299847
H    -2.267141  -0.266152  -0.202366
H    -1.670893  1.176633  -1.039599
H    -4.571395  0.184420  -0.925924
H    -3.456082  0.009065  -2.287128
H    -4.728822  1.864712  -2.798902
H    -4.539934  2.569023  -1.342193
N    -2.930074  0.102023  4.054246
C    -2.747969  1.313260  4.834895
H    -3.702703  -0.510189  4.298577
H    -3.082939  1.129556  5.862512
H    -1.689178  1.592936  4.877577
H    -3.317145  2.164805  4.431466
