33
Energy: -18209.092331 eV PBE+vdW (tier 2 basis)
C    -0.795051  0.409644  -0.195418
C    -0.678610  -0.213257  1.186898
O    0.062597  -1.172473  1.396030
H    -1.343880  1.359398  -0.217625
H    -1.305760  -0.303560  -0.855984
H    0.212812  0.564391  -0.596886
N    -1.463982  0.378479  2.140554
C    -1.720550  -0.002156  3.535417
C    -1.056092  0.919380  4.590298
O    -1.764791  1.388331  5.483525
H    -2.004965  1.174455  1.823969
H    -2.782065  0.226603  3.703739
C    -1.516859  -1.484351  3.897913
C    -2.386033  -2.495630  3.135071
C    -3.911080  -2.312506  3.261690
C    -4.559184  -1.489360  2.134826
N    -6.013612  -1.324363  2.200243
H    -1.752634  -1.550494  4.971909
H    -0.464058  -1.765146  3.781460
H    -2.111310  -3.488947  3.518891
H    -2.095251  -2.506139  2.073765
H    -4.159691  -1.856537  4.235829
H    -4.393569  -3.303251  3.266291
H    -4.317635  -1.958882  1.167594
H    -4.118059  -0.482278  2.091118
H    -6.279299  -0.861444  3.070990
H    -6.473726  -2.236179  2.211177
N    0.280080  1.180795  4.548321
C    1.304751  0.743508  3.615317
H    0.563064  1.812999  5.291710
H    2.247620  0.608943  4.159856
H    1.471226  1.477732  2.810933
H    1.044236  -0.211876  3.148984
