33
Energy: -18209.2216942 eV PBE+vdW (tier 2 basis)
C    -1.577233  -0.365464  -0.037242
C    -1.103080  -0.991057  1.263066
O    -0.692030  -2.148369  1.312273
H    -2.655049  -0.157686  -0.009504
H    -1.375634  -1.081274  -0.838289
H    -1.063501  0.577878  -0.264473
N    -1.141930  -0.220734  2.401184
C    -1.672640  1.127557  2.600628
C    -0.637463  1.897563  3.453044
O    -0.752097  1.994259  4.673009
H    -0.858326  -0.726671  3.237997
H    -1.752698  1.596929  1.610741
C    -3.048510  1.148561  3.279765
C    -4.149200  0.465720  2.469935
C    -5.506226  0.480092  3.177902
C    -6.637980  -0.135030  2.351244
N    -6.884461  0.640651  1.125700
H    -3.315010  2.201435  3.464838
H    -2.951006  0.690221  4.275349
H    -3.868715  -0.581115  2.268570
H    -4.261295  0.953171  1.489120
H    -5.776913  1.517997  3.441162
H    -5.434534  -0.062479  4.134234
H    -7.532728  -0.242207  2.994563
H    -6.349677  -1.152747  2.044298
H    -7.312501  1.538383  1.357691
H    -7.546195  0.154643  0.521139
N    0.431512  2.439789  2.795246
C    0.794025  2.298184  1.395271
H    1.113780  2.854184  3.422705
H    1.675814  2.918382  1.203005
H    -0.005296  2.654910  0.730613
H    1.039402  1.259606  1.127650
