33
Energy: -18209.0661455 eV PBE+vdW (tier 2 basis)
C    0.634296  -1.678711  1.324274
C    0.036635  -0.337400  1.689276
O    0.736349  0.603420  2.058890
H    0.602240  -1.831994  0.236039
H    0.106419  -2.502348  1.817327
H    1.681247  -1.667304  1.639224
N    -1.325751  -0.135549  1.557573
C    -2.450806  -1.024814  1.295927
C    -2.775427  -1.937315  2.502254
O    -1.898806  -2.431973  3.204011
H    -1.572985  0.797962  1.871569
H    -3.299284  -0.342630  1.136427
C    -2.334172  -1.888286  0.020709
C    -2.054646  -1.082309  -1.247713
C    -1.929882  -1.966278  -2.491596
C    -1.644786  -1.190202  -3.779046
N    -0.318917  -0.559098  -3.745761
H    -3.279103  -2.443574  -0.093375
H    -1.559270  -2.653662  0.163181
H    -1.130172  -0.503757  -1.103772
H    -2.859530  -0.341527  -1.399114
H    -2.861146  -2.540809  -2.627958
H    -1.120581  -2.698564  -2.341303
H    -2.475103  -0.476536  -3.961311
H    -1.649663  -1.895370  -4.622873
H    -0.071000  -0.199998  -4.666993
H    -0.309287  0.242506  -3.114886
N    -4.099500  -2.204153  2.728262
C    -5.264597  -1.655015  2.054055
H    -4.252055  -2.829685  3.513141
H    -5.272300  -1.884561  0.978528
H    -5.348684  -0.565006  2.181485
H    -6.160496  -2.108273  2.491290
