33
Energy: -18209.4804796 eV PBE+vdW (tier 2 basis)
C    -0.157058  0.240116  -0.126715
C    -0.148583  -0.426734  1.236007
O    0.844185  -1.005564  1.675609
H    -1.109439  0.724346  -0.374592
H    0.072227  -0.514987  -0.888883
H    0.643993  0.989002  -0.157553
N    -1.314593  -0.316986  1.944520
C    -1.530921  -1.024180  3.191432
C    -2.905250  -1.704613  3.100664
O    -3.820018  -1.212807  2.438614
H    -2.164399  0.005737  1.487352
H    -0.723394  -1.769117  3.273755
C    -1.491506  -0.092656  4.424632
C    -0.142348  0.602699  4.619948
C    -0.111004  1.587322  5.798570
C    -0.369428  0.976125  7.178271
N    0.671939  0.004238  7.538657
H    -1.748074  -0.693414  5.312044
H    -2.292999  0.656732  4.318410
H    0.112827  1.151491  3.702078
H    0.652498  -0.152484  4.728364
H    -0.858990  2.379031  5.627675
H    0.873595  2.078316  5.819019
H    -1.397758  0.562403  7.215252
H    -0.338228  1.781850  7.926522
H    0.642690  -0.806064  6.918916
H    0.520261  -0.349550  8.482928
N    -3.033401  -2.844463  3.832982
C    -4.277021  -3.585287  3.934476
H    -2.210426  -3.201439  4.303508
H    -4.170277  -4.599607  3.525793
H    -5.029914  -3.045721  3.350745
H    -4.614185  -3.654734  4.978000
