33
Energy: -18208.962412 eV PBE+vdW (tier 2 basis)
C    0.640678  0.183385  0.338208
C    0.187342  -0.695295  1.494569
O    0.847612  -1.667940  1.854126
H    1.650669  0.552457  0.555320
H    -0.015607  1.038102  0.131975
H    0.708033  -0.437166  -0.564081
N    -0.980340  -0.296032  2.086598
C    -1.789300  -0.934827  3.136965
C    -1.740945  -0.234405  4.516567
O    -2.795812  -0.130001  5.146142
H    -1.405935  0.533885  1.691043
H    -2.824233  -0.722290  2.836835
C    -1.704385  -2.482330  3.223185
C    -0.654802  -3.136124  4.136033
C    -1.077125  -3.274665  5.602828
C    0.063441  -3.757017  6.494983
N    -0.407585  -3.989387  7.866599
H    -1.581211  -2.845132  2.194330
H    -2.701512  -2.814169  3.549546
H    0.300799  -2.603710  4.052084
H    -0.448115  -4.140823  3.735228
H    -1.917463  -3.981496  5.689177
H    -1.450809  -2.315268  5.993142
H    0.899392  -3.030061  6.424753
H    0.452495  -4.713561  6.110235
H    0.360362  -4.293600  8.465029
H    -0.763091  -3.120617  8.269117
N    -0.577180  0.258927  5.029002
C    0.789377  0.226388  4.533536
H    -0.735262  0.719060  5.920999
H    1.471161  0.183036  5.391725
H    1.036962  1.120732  3.939983
H    0.975300  -0.659265  3.918909
