33
Energy: -18209.5456772 eV PBE+vdW (tier 2 basis)
C    -2.944657  1.442830  0.140143
C    -2.080521  0.772580  1.188074
O    -1.311946  -0.154183  0.902398
H    -3.582768  2.241354  0.538001
H    -3.575259  0.683777  -0.338869
H    -2.291679  1.862295  -0.635470
N    -2.198454  1.254337  2.455407
C    -1.401950  0.763789  3.582640
C    -2.053121  -0.509527  4.190806
O    -2.627131  -0.505565  5.278406
H    -2.901324  1.958670  2.650062
H    -0.427599  0.473582  3.159236
C    -1.209396  1.857597  4.628470
C    -0.351943  3.027073  4.138091
C    -0.255584  4.186676  5.138355
C    0.387476  3.836266  6.484790
N    1.739579  3.291754  6.303489
H    -0.748741  1.387519  5.507173
H    -2.197822  2.207319  4.971986
H    -0.754661  3.417599  3.190059
H    0.660790  2.658289  3.916805
H    -1.260174  4.596154  5.335561
H    0.317394  5.007977  4.675332
H    -0.211437  3.066678  6.994490
H    0.349704  4.734668  7.131571
H    2.371536  4.014525  5.955626
H    2.122508  2.974993  7.193520
N    -1.915587  -1.601629  3.392029
C    -2.525893  -2.878199  3.704088
H    -1.509009  -1.443270  2.466476
H    -1.796483  -3.692227  3.598001
H    -3.384509  -3.089216  3.048521
H    -2.877339  -2.842485  4.740733
