33
Energy: -18209.5405111 eV PBE+vdW (tier 2 basis)
C    1.413034  -2.721036  1.010927
C    0.586717  -1.764094  1.844090
O    0.391912  -0.594014  1.492535
H    2.413912  -2.295293  0.868748
H    0.951634  -2.809258  0.019356
H    1.506926  -3.721745  1.449960
N    0.068156  -2.270468  2.996920
C    -0.794213  -1.499878  3.894718
C    0.061874  -0.643876  4.869348
O    0.170459  -0.912735  6.064220
H    0.329451  -3.206919  3.284883
H    -1.356580  -0.808669  3.247180
C    -1.758435  -2.416367  4.642244
C    -2.785744  -3.095591  3.731594
C    -3.705125  -4.087254  4.456120
C    -4.619276  -3.478449  5.536757
N    -5.569226  -2.448527  5.106948
H    -2.255191  -1.808484  5.410697
H    -1.181499  -3.167015  5.207666
H    -2.268534  -3.626639  2.917350
H    -3.394698  -2.322984  3.231634
H    -3.093449  -4.877470  4.925040
H    -4.337052  -4.595734  3.708887
H    -4.012618  -3.047870  6.347657
H    -5.197572  -4.292115  6.000519
H    -6.141735  -2.785575  4.331373
H    -5.082984  -1.617391  4.770076
N    0.660774  0.410511  4.254053
C    1.584706  1.292338  4.939100
H    0.567717  0.460634  3.236495
H    2.623057  1.121466  4.616911
H    1.513467  1.091243  6.013239
H    1.328132  2.343258  4.750756
