33
Energy: -18209.5140455 eV PBE+vdW (tier 2 basis)
C    0.048837  -0.047748  0.014749
C    -0.009636  -0.101910  1.528444
O    1.024982  -0.137051  2.206939
H    0.651811  0.818340  -0.283854
H    -0.933637  0.013932  -0.468570
H    0.565898  -0.945858  -0.346052
N    -1.260253  -0.109218  2.068575
C    -1.607189  -0.225904  3.494813
C    -1.270703  1.049264  4.316520
O    -2.168365  1.694614  4.858371
H    -2.037074  -0.013123  1.426928
H    -2.703598  -0.262386  3.523463
C    -1.047259  -1.506489  4.139567
C    -1.533943  -1.699408  5.581284
C    -0.674675  -2.671302  6.399249
C    0.769428  -2.191578  6.655446
N    0.935766  -0.885095  7.298158
H    0.048585  -1.469474  4.103468
H    -1.346452  -2.365220  3.518570
H    -2.578903  -2.045373  5.574870
H    -1.556952  -0.727865  6.099799
H    -0.633842  -3.654705  5.899704
H    -1.166322  -2.842765  7.371079
H    1.330964  -2.160693  5.709351
H    1.281357  -2.942037  7.276934
H    0.422744  -0.848665  8.180506
H    0.552147  -0.145387  6.708361
N    0.054039  1.330740  4.425314
C    0.538462  2.505882  5.125137
H    0.685984  0.806494  3.808540
H    1.462844  2.265265  5.665238
H    -0.228572  2.827770  5.837603
H    0.740419  3.340277  4.435828
