33
Energy: -18209.5074182 eV PBE+vdW (tier 2 basis)
C    1.430676  0.582178  1.812632
C    -0.044238  0.354170  2.066318
O    -0.908781  1.176634  1.732430
H    2.004914  -0.352419  1.782436
H    1.835055  1.225980  2.606342
H    1.543579  1.117851  0.864061
N    -0.355496  -0.805731  2.707305
C    -1.736299  -1.225402  2.959090
C    -2.277982  -0.571021  4.262284
O    -2.436162  -1.204117  5.304846
H    0.399683  -1.442039  2.937380
H    -2.322300  -0.821294  2.118039
C    -1.884176  -2.748582  3.005080
C    -1.165561  -3.487420  1.860263
C    0.201902  -4.074776  2.264086
C    1.196276  -4.223962  1.114808
N    1.678510  -2.904989  0.666183
H    -2.962029  -2.958096  2.986446
H    -1.538171  -3.111823  3.983912
H    -1.049677  -2.799447  1.007111
H    -1.800273  -4.304811  1.489943
H    0.043081  -5.054795  2.739700
H    0.680071  -3.450425  3.036653
H    0.739073  -4.826400  0.304701
H    2.072090  -4.786405  1.468989
H    2.433433  -3.017092  -0.010693
H    0.937011  -2.400787  0.177538
N    -2.547776  0.752455  4.110977
C    -2.959187  1.594410  5.216323
H    -2.247848  1.177877  3.228821
H    -3.801240  2.233617  4.919935
H    -2.137213  2.237405  5.566868
H    -3.270948  0.946255  6.042193
