33
Energy: -18209.0888289 eV PBE+vdW (tier 2 basis)
C    -1.662074  -1.289143  0.762722
C    -1.957369  -0.882165  2.190871
O    -1.732139  -1.626946  3.143662
H    -1.037914  -2.185934  0.795590
H    -1.157600  -0.503236  0.189005
H    -2.592726  -1.527383  0.229129
N    -2.517403  0.355819  2.416743
C    -2.850758  1.442712  1.489637
C    -3.791392  0.952862  0.358003
O    -3.475650  1.000113  -0.828539
H    -2.647311  0.538296  3.407227
H    -3.443902  2.145250  2.098442
C    -1.633476  2.215845  0.945050
C    -1.843966  3.733356  0.852133
C    -2.884803  4.202784  -0.169236
C    -3.064295  5.722554  -0.190208
N    -3.664309  6.203611  1.065441
H    -0.793889  2.016963  1.625143
H    -1.365913  1.810122  -0.040833
H    -0.876283  4.195760  0.597269
H    -2.113230  4.130105  1.844111
H    -3.866864  3.741844  0.032943
H    -2.604824  3.854619  -1.174914
H    -3.643751  6.003251  -1.090604
H    -2.078582  6.204020  -0.290007
H    -3.631397  7.221681  1.112205
H    -4.652244  5.947557  1.101047
N    -5.009120  0.464561  0.742819
C    -5.554083  0.307283  2.081166
H    -5.561257  0.122078  -0.037034
H    -6.639306  0.178889  2.000213
H    -5.376281  1.202429  2.692112
H    -5.135057  -0.561237  2.609469
