33
Energy: -18209.5250408 eV PBE+vdW (tier 2 basis)
C    0.534714  1.282906  0.718322
C    -0.181290  0.018901  1.146776
O    0.309629  -1.101567  0.967608
H    0.714902  1.238609  -0.362944
H    1.513820  1.316000  1.212062
H    -0.014477  2.202881  0.952995
N    -1.390464  0.194377  1.751537
C    -2.199358  -0.929412  2.229266
C    -3.021599  -1.492494  1.036394
O    -4.186887  -1.161486  0.823458
H    -1.797656  1.122218  1.784917
H    -1.479179  -1.696251  2.552178
C    -3.086941  -0.506736  3.401596
C    -3.466254  -1.650024  4.354144
C    -4.281575  -2.791394  3.738600
C    -4.749846  -3.803321  4.781873
N    -5.448710  -4.924750  4.140994
H    -3.996047  -0.036341  2.995654
H    -2.544146  0.256828  3.979279
H    -4.037222  -1.213044  5.189602
H    -2.545897  -2.061611  4.803125
H    -3.695611  -3.330635  2.978447
H    -5.154192  -2.375430  3.209054
H    -5.356408  -3.275227  5.546443
H    -3.875261  -4.216497  5.309983
H    -6.289970  -4.590661  3.667918
H    -5.759254  -5.600476  4.839161
N    -2.308193  -2.352120  0.262268
C    -2.832729  -2.901478  -0.972734
H    -1.303096  -2.389217  0.440561
H    -2.536619  -3.952988  -1.074733
H    -2.475278  -2.346213  -1.853859
H    -3.925112  -2.834018  -0.941104
