33
Energy: -18209.3425716 eV PBE+vdW (tier 2 basis)
C    -1.329797  -2.103583  4.289539
C    -2.774311  -2.551428  4.382972
O    -3.104241  -3.648781  4.822865
H    -1.159150  -1.152759  4.812489
H    -1.031231  -1.953778  3.242093
H    -0.702276  -2.881554  4.731073
N    -3.732080  -1.654475  3.952801
C    -3.523869  -0.361932  3.307846
C    -3.083709  0.755764  4.281485
O    -2.445472  1.725890  3.878362
H    -4.670714  -2.046024  3.938265
H    -2.712667  -0.430623  2.566818
C    -4.823136  0.032719  2.577020
C    -4.719152  1.280532  1.694587
C    -5.999197  1.590526  0.907973
C    -7.179921  2.050610  1.763853
N    -8.309817  2.441955  0.910223
H    -5.617742  0.158035  3.330642
H    -5.115188  -0.826321  1.949690
H    -3.889851  1.140226  0.984499
H    -4.437171  2.150524  2.305150
H    -6.298752  0.702710  0.322646
H    -5.790485  2.382150  0.173425
H    -6.876482  2.937941  2.341796
H    -7.439181  1.267347  2.503793
H    -8.665542  1.631381  0.400689
H    -9.084654  2.786961  1.476857
N    -3.491020  0.588842  5.569065
C    -3.188393  1.539788  6.619787
H    -3.935858  -0.293650  5.799325
H    -2.542047  1.094032  7.389168
H    -4.106935  1.905702  7.098843
H    -2.663609  2.384715  6.160929
