33
Energy: -18209.202216 eV PBE+vdW (tier 2 basis)
C    -0.106714  0.404137  -0.051833
C    -0.427533  -0.279926  1.265614
O    0.213545  -1.237957  1.686216
H    0.887267  0.863297  0.024377
H    -0.830859  1.175957  -0.341834
H    -0.054854  -0.355747  -0.840683
N    -1.491628  0.237765  1.955476
C    -1.879918  -0.239130  3.275175
C    -2.208577  -1.742859  3.374584
O    -1.896482  -2.346877  4.403785
H    -1.977409  1.043000  1.578159
H    -1.028977  -0.126049  3.963695
C    -3.067156  0.601822  3.787319
C    -3.453061  0.338745  5.259841
C    -4.951196  0.084207  5.473529
C    -5.475099  -1.240050  4.880269
N    -4.945112  -2.485980  5.432411
H    -3.934576  0.421001  3.132097
H    -2.801872  1.662703  3.655012
H    -3.139023  1.195443  5.872039
H    -2.885344  -0.522480  5.639818
H    -5.536153  0.918770  5.047278
H    -5.162382  0.088120  6.555502
H    -5.291627  -1.260586  3.793347
H    -6.570618  -1.258364  4.991904
H    -5.112907  -2.535465  6.437792
H    -3.934124  -2.559051  5.294374
N    -2.934800  -2.366612  2.403998
C    -3.432333  -1.888889  1.125995
H    -3.094103  -3.344745  2.626214
H    -4.205891  -2.585377  0.782589
H    -2.646297  -1.840062  0.357644
H    -3.898138  -0.900169  1.213312
