33
Energy: -18209.5819934 eV PBE+vdW (tier 2 basis)
C    1.663709  -0.681443  1.787255
C    0.266099  -0.318897  2.236789
O    -0.664656  -0.147357  1.438432
H    1.708194  -1.773866  1.671348
H    2.436548  -0.382295  2.506811
H    1.866216  -0.217972  0.816873
N    0.083982  -0.228298  3.582629
C    -1.243748  -0.126713  4.183064
C    -1.592904  1.356480  4.454851
O    -1.604270  1.851184  5.579818
H    0.876934  -0.373053  4.197309
H    -1.933745  -0.478681  3.402082
C    -1.359989  -1.009314  5.425126
C    -1.070189  -2.488617  5.135895
C    -2.086505  -3.172906  4.205711
C    -1.479374  -4.283590  3.345606
N    -0.499918  -3.725360  2.399222
H    -2.373072  -0.881428  5.834919
H    -0.682076  -0.626281  6.203302
H    -1.022473  -3.035266  6.089379
H    -0.074384  -2.580347  4.676899
H    -2.540742  -2.435612  3.522845
H    -2.922467  -3.583987  4.791449
H    -2.298270  -4.842814  2.853749
H    -0.948817  -5.003654  3.989372
H    -0.078123  -4.468742  1.843051
H    -0.966502  -3.097686  1.740809
N    -1.870156  2.036411  3.307037
C    -2.114116  3.464235  3.281103
H    -1.748224  1.528238  2.430414
H    -2.224937  3.805170  4.316053
H    -3.034182  3.693167  2.726598
H    -1.278841  4.010293  2.817199
