33
Energy: -18209.1828145 eV PBE+vdW (tier 2 basis)
C    -1.091264  -0.725288  -0.658940
C    -0.235428  -0.278517  0.515507
O    0.825882  0.317446  0.358702
H    -1.323860  -1.799725  -0.631746
H    -0.542335  -0.499707  -1.576775
H    -2.045181  -0.177464  -0.674765
N    -0.691791  -0.587354  1.777185
C    -1.999842  -1.114510  2.113315
C    -3.047363  0.013915  2.228499
O    -2.768536  1.095108  2.738374
H    -0.185121  -0.104471  2.515576
H    -2.290279  -1.810842  1.316897
C    -1.970446  -1.884357  3.448116
C    -1.085566  -3.139096  3.468903
C    -1.439687  -4.178194  2.385906
C    -0.465082  -4.180172  1.204336
N    -1.070470  -4.804466  0.019883
H    -3.006123  -2.170289  3.693035
H    -1.658392  -1.184561  4.239443
H    -1.176162  -3.585959  4.469035
H    -0.028709  -2.847573  3.367225
H    -2.453446  -3.990388  1.994601
H    -1.473614  -5.186963  2.825423
H    0.482829  -4.653739  1.528157
H    -0.206626  -3.145887  0.939213
H    -1.299556  -5.781947  0.209850
H    -0.405206  -4.815331  -0.754019
N    -4.303266  -0.263387  1.762503
C    -4.779001  -1.489727  1.140779
H    -4.967185  0.490291  1.910208
H    -5.822241  -1.342208  0.842471
H    -4.746873  -2.350832  1.825546
H    -4.208867  -1.743734  0.235629
