33
Energy: -18209.3300909 eV PBE+vdW (tier 2 basis)
C    0.463676  1.403642  0.696315
C    0.220430  0.311037  1.725735
O    1.138016  -0.381880  2.159419
H    0.181667  2.394096  1.081924
H    -0.099661  1.228759  -0.229570
H    1.532464  1.408412  0.467682
N    -1.067223  0.116871  2.156018
C    -2.265741  0.874233  1.847669
C    -2.969844  1.202427  3.177326
O    -3.012573  0.383293  4.092100
H    -1.168884  -0.556939  2.914139
H    -1.971871  1.805517  1.342101
C    -3.251410  0.096766  0.943299
C    -2.720741  -0.172541  -0.463510
C    -3.672361  -1.027064  -1.304705
C    -3.171418  -1.299398  -2.725496
N    -1.892623  -2.021104  -2.710864
H    -4.196288  0.663257  0.889020
H    -3.489299  -0.852323  1.449353
H    -1.746744  -0.677892  -0.408582
H    -2.545145  0.786425  -0.982135
H    -4.659766  -0.541401  -1.371887
H    -3.845960  -1.989984  -0.792881
H    -3.001032  -0.339402  -3.238804
H    -3.972319  -1.818147  -3.288397
H    -1.522642  -2.120562  -3.655514
H    -2.020782  -2.966907  -2.347773
N    -3.563215  2.428677  3.232085
C    -4.339041  2.878376  4.373532
H    -3.458584  3.047145  2.437085
H    -3.911582  3.792258  4.808104
H    -4.309996  2.081092  5.123524
H    -5.384908  3.070069  4.095522
