33
Energy: -18209.4157387 eV PBE+vdW (tier 2 basis)
C    0.132976  0.724086  -0.668968
C    -0.589058  0.952406  0.645106
O    -1.336368  1.919649  0.827561
H    -0.592816  0.767556  -1.489843
H    0.670623  -0.231625  -0.702793
H    0.850876  1.540776  -0.819776
N    -0.352918  0.025693  1.609593
C    -0.983509  0.168770  2.906767
C    -0.419193  1.401714  3.650484
O    0.788101  1.623051  3.717658
H    0.252546  -0.787096  1.427801
H    -2.054574  0.334811  2.723550
C    -0.860151  -1.111657  3.762350
C    0.477160  -1.416195  4.465493
C    1.766996  -1.510384  3.634088
C    1.907531  -2.698767  2.680529
N    1.013780  -2.617716  1.499759
H    -1.176885  -1.954891  3.127801
H    -1.627660  -1.040401  4.548463
H    0.341217  -2.359155  5.023034
H    0.641630  -0.640003  5.226843
H    2.602636  -1.579411  4.349012
H    1.922878  -0.569999  3.086871
H    1.771876  -3.645476  3.235974
H    2.939084  -2.706901  2.301349
H    1.425231  -3.116731  0.711582
H    0.124492  -3.081171  1.688360
N    -1.327353  2.192431  4.297183
C    -2.763342  2.255839  4.054853
H    -0.892734  3.000798  4.731959
H    -3.168840  3.101024  4.621828
H    -3.277391  1.350447  4.407901
H    -2.986681  2.409149  2.988940
