33
Energy: -18209.4324194 eV PBE+vdW (tier 2 basis)
C    0.396251  -1.398080  0.827393
C    -0.066173  -0.375020  1.843755
O    0.640137  -0.048964  2.807212
H    1.328150  -1.041327  0.371007
H    -0.335678  -1.594288  0.034280
H    0.625180  -2.337037  1.346332
N    -1.297873  0.159671  1.629571
C    -1.883240  1.218705  2.454320
C    -2.549907  0.642976  3.740558
O    -3.756868  0.738532  3.960504
H    -1.857752  -0.201898  0.866649
H    -1.037457  1.838669  2.790734
C    -2.854041  2.086774  1.648846
C    -3.952582  1.331991  0.867015
C    -3.661594  1.161255  -0.631082
C    -4.680877  0.286551  -1.363588
N    -6.017491  0.894157  -1.357834
H    -2.266894  2.706371  0.953647
H    -3.320933  2.773102  2.365777
H    -4.894394  1.886066  0.980700
H    -4.141526  0.352679  1.336142
H    -2.660406  0.723332  -0.789622
H    -3.634929  2.152606  -1.111003
H    -4.654791  -0.734340  -0.926908
H    -4.371671  0.184837  -2.414229
H    -6.643186  0.383353  -1.979799
H    -6.435123  0.844373  -0.428331
N    -1.656950  0.057532  4.579823
C    -2.050201  -0.586192  5.816690
H    -0.681368  0.023446  4.268538
H    -1.497209  -0.167639  6.668862
H    -1.868144  -1.670467  5.780600
H    -3.121087  -0.411595  5.965301
