33
Energy: -18209.0100737 eV PBE+vdW (tier 2 basis)
C    -0.256675  -0.146732  -0.344514
C    0.042696  -0.027734  1.134082
O    1.199154  -0.071653  1.550028
H    0.529838  0.383509  -0.891587
H    -1.236331  0.229362  -0.650969
H    -0.212269  -1.210240  -0.611714
N    -0.991236  0.103817  2.034888
C    -2.432929  0.228621  1.881409
C    -3.024132  -0.853423  0.936124
O    -2.480235  -1.941031  0.783421
H    -0.641195  0.108255  2.988097
H    -2.840187  -0.099337  2.854074
C    -2.894787  1.707175  1.741394
C    -2.346197  2.558072  0.586437
C    -2.987556  2.378381  -0.798029
C    -4.429976  2.883549  -0.916303
N    -4.517833  4.318741  -0.624888
H    -2.579598  2.190941  2.678242
H    -3.996661  1.757666  1.778834
H    -1.261461  2.396553  0.510856
H    -2.470736  3.612244  0.871345
H    -2.963791  1.327073  -1.120179
H    -2.373145  2.922342  -1.534856
H    -5.079393  2.370394  -0.186097
H    -4.816356  2.601791  -1.915394
H    -5.486098  4.636430  -0.652390
H    -4.014815  4.854927  -1.333605
N    -4.233293  -0.543619  0.383978
C    -4.971284  -1.470987  -0.450837
H    -4.615929  0.379531  0.539637
H    -5.957815  -1.695948  -0.022120
H    -4.389096  -2.396380  -0.510667
H    -5.108627  -1.068696  -1.464858
