33
Energy: -18209.0616744 eV PBE+vdW (tier 2 basis)
C    -0.060334  0.454824  0.146920
C    0.062874  0.309114  1.656016
O    1.155777  0.138115  2.193445
H    0.631721  1.237087  -0.186798
H    -1.071535  0.695893  -0.203979
H    0.260145  -0.485241  -0.320387
N    -1.127245  0.383267  2.330651
C    -1.426992  0.197745  3.756946
C    -1.772811  1.504240  4.515369
O    -2.818478  1.541885  5.167795
H    -1.945752  0.538136  1.754406
H    -2.393235  -0.327051  3.779967
C    -0.440014  -0.667350  4.561770
C    -0.366150  -2.117675  4.071734
C    0.713440  -2.981493  4.739855
C    0.538417  -3.268691  6.236999
N    1.056675  -2.189214  7.093725
H    -0.824969  -0.637564  5.592980
H    0.561834  -0.223329  4.568479
H    -0.169309  -2.116921  2.989824
H    -1.352631  -2.594049  4.207172
H    1.703133  -2.523459  4.586998
H    0.732374  -3.947984  4.212329
H    1.121467  -4.167703  6.484968
H    -0.523702  -3.523736  6.433386
H    1.061447  -2.489233  8.068722
H    0.456830  -1.365487  7.054059
N    -0.927414  2.571962  4.487633
C    0.346888  2.758018  3.814118
H    -1.296044  3.357352  5.016458
H    0.993879  3.382690  4.442313
H    0.228606  3.253931  2.837440
H    0.857607  1.804574  3.646956
