33
Energy: -18209.2232037 eV PBE+vdW (tier 2 basis)
C    -1.324898  0.236027  -0.638972
C    -0.751656  1.044285  0.509037
O    -0.139165  2.088370  0.301918
H    -0.490853  -0.263226  -1.151365
H    -2.059579  -0.523453  -0.359487
H    -1.774343  0.936905  -1.350376
N    -0.841235  0.553877  1.801413
C    -1.731413  -0.452562  2.394363
C    -1.632751  -1.843240  1.718687
O    -2.602966  -2.589884  1.627016
H    -0.435211  1.217158  2.457709
H    -1.303271  -0.632348  3.395464
C    -3.180372  0.006929  2.640756
C    -4.003280  0.450764  1.431465
C    -5.410320  0.908140  1.831746
C    -6.227521  1.481240  0.673147
N    -6.537682  0.455522  -0.332328
H    -3.136990  0.834740  3.367492
H    -3.694430  -0.825989  3.142160
H    -4.075651  -0.385553  0.720692
H    -3.497800  1.283136  0.914056
H    -5.329985  1.682015  2.613269
H    -5.962514  0.062517  2.270950
H    -5.693015  2.362504  0.261196
H    -7.185490  1.852642  1.065863
H    -7.176041  0.828286  -1.034674
H    -5.695220  0.173133  -0.833975
N    -0.373338  -2.184570  1.326765
C    -0.070371  -3.441732  0.673141
H    0.340121  -1.466015  1.385254
H    0.787300  -3.932980  1.151160
H    0.152864  -3.300061  -0.395176
H    -0.950917  -4.086290  0.764753
