33
Energy: -18209.4280189 eV PBE+vdW (tier 2 basis)
C    -0.284971  -0.425092  0.313225
C    -0.611559  -0.327344  1.792297
O    -0.330984  -1.218860  2.585865
H    -0.715102  0.383612  -0.291131
H    -0.643765  -1.388866  -0.066370
H    0.806326  -0.413517  0.194134
N    -1.257811  0.828490  2.176029
C    -1.444147  1.185985  3.578343
C    -2.886186  1.031267  4.099540
O    -3.150351  1.296948  5.270937
H    -1.303923  1.584247  1.499837
H    -0.875740  0.433651  4.147340
C    -0.901710  2.592660  3.869678
C    0.631303  2.663395  3.940402
C    1.270950  1.916007  5.122866
C    1.218507  2.624080  6.480512
N    -0.151924  2.921597  6.914899
H    -1.328075  2.938473  4.817852
H    -1.271437  3.279320  3.087558
H    0.926637  3.723676  3.985955
H    1.059580  2.271157  3.002739
H    2.332126  1.734348  4.893724
H    0.826631  0.910974  5.221380
H    1.753332  3.585201  6.402028
H    1.790970  2.007115  7.202439
H    -0.717728  2.072021  6.966959
H    -0.152556  3.334274  7.847021
N    -3.797307  0.579206  3.197136
C    -5.170875  0.285588  3.552073
H    -3.441427  0.315622  2.284936
H    -5.367730  -0.796529  3.545218
H    -5.868686  0.777839  2.861331
H    -5.339367  0.666455  4.565247
