33
Energy: -18209.4896768 eV PBE+vdW (tier 2 basis)
C    1.043020  2.132469  1.237082
C    0.198797  1.307679  2.185947
O    -0.018182  1.670859  3.348809
H    0.593120  3.128676  1.142994
H    1.143886  1.690934  0.238210
H    2.040750  2.264225  1.673808
N    -0.310537  0.150672  1.680056
C    -1.179065  -0.740070  2.452708
C    -0.308190  -1.679618  3.333626
O    -0.077937  -2.848237  3.026496
H    -0.046643  -0.140298  0.745432
H    -1.761943  -0.087155  3.120743
C    -2.112777  -1.511330  1.525618
C    -3.214593  -2.273574  2.274050
C    -4.258520  -2.924038  1.346897
C    -5.477847  -2.057463  1.019735
N    -5.133787  -0.820058  0.297653
H    -1.519234  -2.234806  0.944257
H    -2.555771  -0.804602  0.809207
H    -3.724092  -1.595110  2.981805
H    -2.736809  -3.048625  2.888552
H    -4.635208  -3.843553  1.820383
H    -3.774064  -3.234582  0.407568
H    -6.037814  -1.869219  1.958307
H    -6.149470  -2.636462  0.368901
H    -4.746027  -0.128135  0.940378
H    -5.978838  -0.396244  -0.085450
N    0.168844  -1.064285  4.448567
C    1.107581  -1.706199  5.347712
H    0.039715  -0.050674  4.493651
H    1.067473  -2.786055  5.170349
H    0.838766  -1.499311  6.391524
H    2.139399  -1.362809  5.175425
