33
Energy: -18209.0712847 eV PBE+vdW (tier 2 basis)
C    -0.035628  0.735297  0.148625
C    -0.238648  0.958113  1.638238
O    0.538202  1.632926  2.307137
H    -0.859965  0.203956  -0.343052
H    0.888854  0.160470  0.006132
H    0.107312  1.707611  -0.337288
N    -1.352409  0.360504  2.165288
C    -1.708523  0.326640  3.586446
C    -1.394111  1.646986  4.340224
O    -0.781407  1.640831  5.402343
H    -1.896158  -0.233234  1.550327
H    -2.810491  0.248259  3.606049
C    -1.160781  -0.896893  4.342928
C    0.366410  -1.092820  4.342620
C    0.908081  -1.938654  3.185519
C    2.430412  -2.049130  3.203837
N    2.910518  -2.885560  2.092412
H    -1.650286  -1.794823  3.929648
H    -1.515607  -0.796751  5.377243
H    0.644749  -1.583498  5.288176
H    0.858766  -0.111728  4.360565
H    0.600567  -1.509298  2.218452
H    0.478441  -2.953191  3.216889
H    2.747974  -2.531085  4.141968
H    2.859886  -1.028321  3.212217
H    3.922055  -3.005704  2.151241
H    2.733830  -2.416203  1.202341
N    -1.953042  2.802327  3.862050
C    -2.670371  3.045334  2.625911
H    -1.653421  3.613393  4.394118
H    -3.263012  3.960990  2.740819
H    -3.368970  2.228435  2.407894
H    -2.001755  3.171478  1.759313
