33
Energy: -18209.4245315 eV PBE+vdW (tier 2 basis)
C    -0.004029  0.169456  -0.147463
C    -0.568703  0.283021  1.256836
O    -0.940965  1.349733  1.735629
H    0.547001  1.084113  -0.387275
H    -0.839359  0.082253  -0.857713
H    0.650658  -0.701010  -0.283883
N    -0.646265  -0.907056  1.943221
C    -1.379409  -1.070177  3.194409
C    -0.464703  -1.422109  4.394420
O    -0.937962  -1.848705  5.445027
H    -0.441423  -1.755193  1.424448
H    -1.774355  -0.067354  3.429549
C    -2.538192  -2.076293  3.066595
C    -3.897595  -1.473748  2.678127
C    -3.980525  -0.645497  1.388826
C    -3.668422  -1.399399  0.098011
N    -3.891144  -0.522585  -1.058941
H    -2.644699  -2.564414  4.044246
H    -2.242054  -2.867128  2.356843
H    -4.232938  -0.837252  3.511999
H    -4.626762  -2.298779  2.623893
H    -3.319865  0.233963  1.464598
H    -4.999921  -0.240381  1.298579
H    -4.348318  -2.261596  0.002402
H    -2.642909  -1.817656  0.142152
H    -3.608045  -0.975565  -1.927526
H    -3.338242  0.331521  -0.970983
N    0.860283  -1.181675  4.203637
C    1.842557  -1.329846  5.258386
H    1.132638  -0.785753  3.311192
H    1.346415  -1.810095  6.108649
H    2.234843  -0.355091  5.583234
H    2.681408  -1.957707  4.928874
