33
Energy: -18208.878214 eV PBE+vdW (tier 2 basis)
C    0.431629  -1.094266  -0.015497
C    0.473274  -0.423665  1.343476
O    1.538419  -0.319389  1.952666
H    0.094661  -0.404060  -0.798401
H    -0.233249  -1.966178  -0.030926
H    1.450079  -1.420676  -0.241528
N    -0.666645  0.101655  1.914893
C    -2.111830  0.128552  1.642995
C    -2.897100  -0.576674  2.777152
O    -3.773400  0.047142  3.378262
H    -0.425129  0.525628  2.808830
H    -2.424271  1.175296  1.777907
C    -2.563556  -0.261398  0.225783
C    -4.064808  -0.034160  -0.033588
C    -4.976540  -1.202114  0.355544
C    -6.445139  -0.934490  0.032524
N    -7.275958  -2.084169  0.415266
H    -2.315323  -1.305065  -0.009487
H    -1.985695  0.360614  -0.471963
H    -4.191803  0.161238  -1.109985
H    -4.393847  0.882007  0.482164
H    -4.891082  -1.411864  1.432088
H    -4.662053  -2.118168  -0.169852
H    -6.560309  -0.787580  -1.053222
H    -6.749283  0.016418  0.513936
H    -7.288843  -2.181617  1.431957
H    -8.244214  -1.934092  0.131548
N    -2.607064  -1.868469  3.110785
C    -1.654989  -2.800470  2.528365
H    -3.167464  -2.196957  3.890788
H    -1.853732  -3.793406  2.945474
H    -0.613274  -2.534830  2.754150
H    -1.773741  -2.876826  1.439990
