33
Energy: -18209.5067027 eV PBE+vdW (tier 2 basis)
C    -0.075854  -0.557860  0.053380
C    -0.455355  -0.508145  1.521588
O    -0.038575  0.370108  2.276009
H    -0.535858  -1.390289  -0.492865
H    1.015721  -0.635270  -0.024904
H    -0.370917  0.387099  -0.419323
N    -1.309065  -1.494657  1.934996
C    -1.646132  -1.692457  3.331124
C    -1.499331  -3.192833  3.628441
O    -1.684705  -4.039147  2.752691
H    -1.487889  -2.300963  1.340219
H    -0.926035  -1.099658  3.917413
C    -3.081560  -1.230509  3.673332
C    -3.308335  0.266259  3.444182
C    -4.749300  0.726457  3.703967
C    -5.199757  0.642639  5.170986
N    -6.540336  1.156260  5.470672
H    -3.282695  -1.495115  4.723033
H    -3.788065  -1.817378  3.063452
H    -3.037332  0.511030  2.407214
H    -2.612772  0.843552  4.074906
H    -5.445154  0.139799  3.078895
H    -4.850264  1.772718  3.371149
H    -4.481961  1.193981  5.800419
H    -5.167730  -0.400766  5.520282
H    -7.243753  0.640385  4.939599
H    -6.619624  2.130715  5.174853
N    -1.197676  -3.497665  4.919446
C    -1.097188  -4.860062  5.409135
H    -1.018404  -2.732740  5.559026
H    -1.822247  -5.047878  6.213168
H    -0.086475  -5.074049  5.783068
H    -1.313375  -5.528558  4.569446
