33
Energy: -18209.2220577 eV PBE+vdW (tier 2 basis)
C    -0.293115  -0.463665  0.089286
C    -0.308718  0.115136  1.495786
O    0.437614  1.033806  1.832215
H    -0.531038  0.332035  -0.628023
H    -0.996258  -1.294647  -0.048222
H    0.723860  -0.809336  -0.134947
N    -1.228055  -0.450073  2.330227
C    -1.283330  -0.180476  3.764588
C    -1.176013  1.325003  4.124825
O    -0.422425  1.716835  5.010120
H    -1.703725  -1.311838  2.029975
H    -2.299173  -0.485260  4.080659
C    -0.270553  -0.998175  4.582392
C    -0.513722  -2.515663  4.606785
C    -0.142879  -3.298648  3.319971
C    -1.294548  -4.060474  2.658909
N    -2.409470  -3.171668  2.252958
H    -0.299375  -0.607891  5.607851
H    0.740103  -0.775532  4.209790
H    -1.568215  -2.704602  4.876952
H    0.064592  -2.927069  5.445776
H    0.638593  -4.036846  3.552948
H    0.302040  -2.616380  2.583007
H    -1.636783  -4.869336  3.330526
H    -0.919054  -4.547424  1.747688
H    -2.998669  -3.643316  1.566896
H    -3.015770  -2.986155  3.053794
N    -2.048173  2.191807  3.520356
C    -2.978558  1.970920  2.429870
H    -1.858148  3.154462  3.780724
H    -3.737075  2.763289  2.454848
H    -3.497974  1.012139  2.541906
H    -2.492070  1.984589  1.441654
