33
Energy: -18209.1699499 eV PBE+vdW (tier 2 basis)
C    -0.078804  0.206985  -1.340726
C    -0.181224  -0.263270  0.100432
O    0.795486  -0.641031  0.740574
H    0.390015  -0.584880  -1.937676
H    0.584919  1.079810  -1.379113
H    -1.042446  0.473893  -1.793070
N    -1.441414  -0.243950  0.636484
C    -1.712356  -0.596796  2.021380
C    -1.598567  -2.084292  2.413779
O    -1.224500  -2.354594  3.555403
H    -2.209681  0.096394  0.070686
H    -0.912192  -0.152724  2.628925
C    -3.077196  -0.035044  2.463801
C    -3.024606  1.433839  2.916872
C    -2.177508  1.705654  4.171379
C    -2.741877  1.215432  5.509531
N    -2.937148  -0.239452  5.551710
H    -3.457523  -0.639040  3.296280
H    -3.796439  -0.146021  1.633444
H    -4.056468  1.773764  3.100596
H    -2.640683  2.059958  2.094164
H    -2.031685  2.793294  4.259415
H    -1.163918  1.290876  4.040321
H    -3.723694  1.688828  5.679497
H    -2.071961  1.594987  6.307323
H    -3.197576  -0.538899  6.490506
H    -2.080859  -0.742541  5.304224
N    -1.950646  -3.073358  1.542278
C    -2.514406  -2.996561  0.205292
H    -1.813287  -3.997402  1.939385
H    -2.946350  -3.974322  -0.037854
H    -1.763126  -2.753751  -0.560104
H    -3.326957  -2.261108  0.147831
