33
Energy: -18209.4518821 eV PBE+vdW (tier 2 basis)
C    0.167033  -0.087810  0.074110
C    0.087926  -0.188840  1.585806
O    1.064738  -0.485692  2.273795
H    -0.777340  0.210124  -0.397213
H    0.478220  -1.060547  -0.326870
H    0.945268  0.638276  -0.191545
N    -1.137188  0.095517  2.124016
C    -1.430958  -0.118420  3.527408
C    -2.796701  -0.815264  3.600458
O    -3.618011  -0.687647  2.688972
H    -1.961985  0.146400  1.528764
H    -0.625379  -0.755338  3.922917
C    -1.474847  1.200405  4.334744
C    -0.132042  1.929328  4.383920
C    -0.196426  3.250269  5.152392
C    1.146436  3.999199  5.226100
N    1.734946  4.453052  3.963241
H    -1.814642  0.982875  5.360095
H    -2.244662  1.848698  3.885676
H    0.208986  2.114648  3.354275
H    0.626940  1.270064  4.836196
H    -0.546441  3.063797  6.182818
H    -0.950794  3.911136  4.690100
H    1.892445  3.359038  5.723820
H    1.025148  4.882136  5.872438
H    1.960886  3.661387  3.360774
H    1.074075  5.035308  3.446572
N    -3.081499  -1.546301  4.714172
C    -2.247101  -1.791061  5.877714
H    -4.030506  -1.908272  4.723469
H    -2.527560  -2.752732  6.322854
H    -2.352787  -1.009522  6.646509
H    -1.190812  -1.854256  5.593250
