33
Energy: -18209.6133294 eV PBE+vdW (tier 2 basis)
C    -1.591591  0.754809  1.211704
C    -0.869609  0.214246  2.429771
O    0.088828  0.828984  2.928760
H    -1.958489  1.763490  1.439671
H    -2.431875  0.126297  0.894772
H    -0.875697  0.847888  0.385186
N    -1.333640  -0.962021  2.915237
C    -0.828635  -1.532407  4.166641
C    0.484316  -2.334408  3.927714
O    0.562485  -3.562532  3.988657
H    -2.171026  -1.387709  2.475438
H    -0.537100  -0.665726  4.782159
C    -1.934554  -2.277112  4.938971
C    -2.309964  -3.732786  4.599265
C    -2.749027  -4.082860  3.170910
C    -4.020968  -3.379673  2.663354
N    -3.695740  -2.258881  1.752355
H    -2.826988  -1.630933  4.892585
H    -1.632257  -2.276347  5.996870
H    -3.128806  -4.010330  5.285207
H    -1.457519  -4.373626  4.849014
H    -2.912861  -5.169897  3.141286
H    -1.921084  -3.896200  2.468468
H    -4.580379  -2.957242  3.511448
H    -4.691292  -4.113515  2.183805
H    -4.532100  -1.708734  1.550533
H    -3.377401  -2.630407  0.855039
N    1.535307  -1.517620  3.652581
C    2.841630  -2.027825  3.291846
H    1.313245  -0.524516  3.511233
H    3.045713  -1.898868  2.217611
H    2.869228  -3.097172  3.527290
H    3.627852  -1.512364  3.859619
