33
Energy: -18209.1058955 eV PBE+vdW (tier 2 basis)
C    0.126180  -0.610409  1.053965
C    -0.324653  -0.086241  2.405365
O    0.483642  0.318612  3.237371
H    -0.154356  0.086795  0.252788
H    -0.308997  -1.590425  0.820173
H    1.215752  -0.693915  1.078895
N    -1.672399  -0.042551  2.679401
C    -2.822623  -0.558484  1.930987
C    -2.795505  -2.112503  1.897795
O    -2.835066  -2.748071  2.946472
H    -1.849845  0.228454  3.641404
H    -3.681172  -0.349305  2.586069
C    -3.093076  0.185382  0.610348
C    -4.548298  0.070124  0.139380
C    -4.803602  0.670642  -1.249019
C    -4.488694  2.165129  -1.381084
N    -5.220590  2.952083  -0.381180
H    -2.403506  -0.140084  -0.187559
H    -2.850241  1.241979  0.790170
H    -5.190872  0.577348  0.873984
H    -4.864183  -0.984866  0.126889
H    -5.860917  0.504997  -1.515471
H    -4.216402  0.128279  -2.009053
H    -4.687247  2.470055  -2.427026
H    -3.414713  2.336638  -1.211810
H    -6.223037  2.933276  -0.574673
H    -4.937031  3.930643  -0.413696
N    -2.722046  -2.701419  0.668949
C    -2.696876  -4.140823  0.491878
H    -2.694065  -2.107791  -0.150430
H    -3.551958  -4.483084  -0.107746
H    -2.752431  -4.594494  1.487024
H    -1.767470  -4.465864  0.003168
