33
Energy: -18209.5261835 eV PBE+vdW (tier 2 basis)
C    -4.568255  3.094563  1.009466
C    -3.713613  1.893215  1.355410
O    -3.808039  0.825990  0.736606
H    -5.625561  2.813311  1.088830
H    -4.380352  3.367918  -0.036407
H    -4.380157  3.968523  1.645016
N    -2.834735  2.061942  2.381322
C    -1.896391  1.024221  2.814402
C    -2.590013  0.046415  3.803323
O    -2.347639  0.041887  5.008748
H    -2.854555  2.927320  2.909298
H    -1.637175  0.457223  1.906392
C    -0.641634  1.647333  3.418759
C    0.196282  2.436703  2.407317
C    1.491194  3.020781  2.984707
C    1.280159  4.098590  4.049445
N    2.567442  4.660736  4.472877
H    -0.040123  0.835680  3.852614
H    -0.935947  2.272377  4.276270
H    -0.405765  3.251278  1.970780
H    0.451464  1.773455  1.565366
H    2.077851  3.457220  2.158908
H    2.115968  2.220752  3.411772
H    0.808830  3.658576  4.940823
H    0.566510  4.853596  3.656088
H    2.438869  5.326972  5.234032
H    3.002448  5.174800  3.705347
N    -3.477067  -0.780418  3.187711
C    -4.316160  -1.708315  3.919356
H    -3.662376  -0.597389  2.198345
H    -4.283846  -2.704555  3.458646
H    -5.363150  -1.370457  3.951535
H    -3.937467  -1.773241  4.944894
