33
Energy: -18209.4384431 eV PBE+vdW (tier 2 basis)
C    0.899564  1.903782  0.494582
C    -0.115963  1.347759  1.475416
O    -1.016485  2.040572  1.952936
H    1.416802  2.749022  0.965346
H    0.366743  2.293516  -0.381747
H    1.642300  1.167477  0.164033
N    0.037049  0.030654  1.792403
C    -0.839958  -0.653209  2.723814
C    -0.027127  -1.812941  3.313950
O    0.788396  -2.432008  2.628606
H    0.784696  -0.536011  1.400562
H    -1.122272  0.069437  3.506083
C    -2.129270  -1.144807  2.021341
C    -3.187369  -1.736081  2.955719
C    -4.468449  -2.237942  2.270065
C    -5.332696  -1.179885  1.569156
N    -4.903299  -0.916528  0.186277
H    -1.848470  -1.872206  1.244334
H    -2.527831  -0.256083  1.512250
H    -3.461015  -0.980065  3.713226
H    -2.753110  -2.583130  3.510117
H    -5.085098  -2.722833  3.042921
H    -4.220537  -3.018631  1.533575
H    -5.376943  -0.271421  2.204447
H    -6.361520  -1.563137  1.507264
H    -4.036009  -0.380203  0.165853
H    -5.599755  -0.344377  -0.291427
N    -0.289678  -2.102464  4.616638
C    0.321807  -3.215527  5.318467
H    -0.965238  -1.525655  5.103389
H    0.860620  -2.870368  6.211138
H    1.032869  -3.687199  4.632539
H    -0.429754  -3.958506  5.620728
