33
Energy: -18209.2018308 eV PBE+vdW (tier 2 basis)
C    -0.046662  -2.011743  1.171269
C    0.019230  -1.167250  2.435169
O    0.937471  -1.293411  3.243465
H    0.830402  -2.663885  1.164861
H    -0.953249  -2.630818  1.136977
H    -0.031923  -1.390044  0.264475
N    -0.988135  -0.266404  2.651280
C    -2.123552  0.052118  1.808326
C    -2.204020  1.586582  1.697054
O    -1.884676  2.302327  2.644327
H    -0.856823  0.348381  3.453388
H    -1.954384  -0.393422  0.819728
C    -3.481093  -0.457556  2.355502
C    -3.658172  -1.981103  2.419478
C    -3.016587  -2.680998  3.623449
C    -3.397860  -4.159737  3.732737
N    -4.842845  -4.325846  3.952016
H    -4.272779  -0.034266  1.716550
H    -3.632314  -0.013473  3.352288
H    -3.287129  -2.436299  1.484403
H    -4.734768  -2.203090  2.446215
H    -3.326656  -2.162130  4.547547
H    -1.921591  -2.605526  3.600483
H    -2.773192  -4.628660  4.516608
H    -3.147331  -4.670097  2.788741
H    -5.103811  -5.309867  3.896957
H    -5.093092  -4.013885  4.891656
N    -2.691292  2.107448  0.533652
C    -3.043652  1.397434  -0.685242
H    -2.753294  3.120677  0.536302
H    -2.179770  0.885286  -1.135025
H    -3.412732  2.126688  -1.413795
H    -3.843003  0.660564  -0.521059
