33
Energy: -18209.5068033 eV PBE+vdW (tier 2 basis)
C    -1.064905  -0.442418  -0.667017
C    -0.852533  -0.125818  0.799826
O    -0.196295  0.855336  1.161036
H    -1.542979  0.419477  -1.148649
H    -1.676802  -1.335694  -0.840015
H    -0.085015  -0.579385  -1.141164
N    -1.448216  -0.984249  1.673944
C    -1.225871  -0.948566  3.107804
C    -0.965860  -2.398374  3.547245
O    -1.458996  -3.339942  2.921006
H    -1.837905  -1.863806  1.339448
H    -0.349778  -0.310388  3.283398
C    -2.457550  -0.402768  3.873425
C    -2.804065  1.073149  3.594788
C    -2.293802  2.073165  4.642566
C    -0.765913  2.228015  4.775567
N    -0.026704  2.731631  3.622656
H    -2.304481  -0.552678  4.954419
H    -3.304376  -1.048616  3.597988
H    -3.898755  1.166677  3.547571
H    -2.442257  1.359158  2.595984
H    -2.700922  1.792835  5.630875
H    -2.719172  3.064630  4.412995
H    -0.316943  1.264091  5.063764
H    -0.569182  2.899170  5.627398
H    -0.098096  2.106927  2.813854
H    -0.386769  3.640914  3.331876
N    -0.214830  -2.598274  4.663885
C    0.461658  -1.605186  5.483162
H    -0.139994  -3.574560  4.931840
H    1.047898  -0.907625  4.870949
H    1.156892  -2.123748  6.151477
H    -0.236620  -1.023497  6.103606
