33
Energy: -18209.1023963 eV PBE+vdW (tier 2 basis)
C    -0.039697  -0.079221  0.002842
C    -0.032838  0.194339  1.499295
O    0.969338  0.631163  2.062558
H    0.283056  0.828972  -0.520083
H    -1.011093  -0.397240  -0.395773
H    0.701758  -0.859668  -0.210391
N    -1.216699  -0.085348  2.130221
C    -1.567695  -0.045915  3.557076
C    -2.498829  1.137959  3.930200
O    -3.614045  0.885064  4.394229
H    -1.965448  -0.410580  1.530199
H    -2.246473  -0.897996  3.697971
C    -0.393200  -0.238699  4.533391
C    -0.839616  -0.375597  5.999294
C    -1.805280  -1.525636  6.326733
C    -1.288867  -2.925725  5.964423
N    -2.145907  -4.051328  6.355203
H    0.321984  0.586028  4.453738
H    0.158284  -1.134925  4.213665
H    -1.296948  0.570166  6.329577
H    0.074487  -0.491480  6.603474
H    -2.778486  -1.354102  5.839229
H    -2.010216  -1.500591  7.409799
H    -0.298901  -3.084014  6.423062
H    -1.128107  -3.005212  4.877693
H    -2.304864  -4.036323  7.364245
H    -3.067696  -3.954750  5.925587
N    -2.085106  2.426595  3.779116
C    -0.874709  2.975566  3.192186
H    -2.809912  3.085838  4.050494
H    -0.508277  3.803899  3.812877
H    -1.056693  3.357774  2.175331
H    -0.083802  2.222603  3.127002
