33
Energy: -18209.4037783 eV PBE+vdW (tier 2 basis)
C    -0.177885  -0.946244  0.148369
C    -0.424540  -0.547501  1.590652
O    0.252400  -0.993816  2.516514
H    -0.887751  -0.504569  -0.561811
H    -0.225330  -2.039237  0.070810
H    0.839328  -0.642845  -0.129541
N    -1.453595  0.334456  1.786576
C    -1.778144  0.903380  3.091531
C    -3.249636  0.560898  3.415567
O    -4.159870  1.373381  3.223048
H    -1.949287  0.699357  0.980583
H    -1.102419  0.400842  3.797627
C    -1.536920  2.412790  3.132106
C    -1.647208  3.002858  4.547616
C    -1.869816  4.525187  4.570220
C    -3.337257  4.959051  4.470578
N    -3.970141  4.576130  3.201521
H    -2.245448  2.911589  2.457401
H    -0.528820  2.599902  2.733102
H    -0.732012  2.750786  5.105464
H    -2.474870  2.520228  5.093664
H    -1.295570  4.998218  3.757167
H    -1.472846  4.932342  5.513253
H    -3.375876  6.056407  4.545080
H    -3.871800  4.566310  5.361113
H    -4.179499  3.573403  3.190566
H    -4.864148  5.056305  3.103429
N    -3.518012  -0.681010  3.906523
C    -2.640205  -1.833885  4.029355
H    -4.514806  -0.840557  4.029123
H    -2.758073  -2.524704  3.179978
H    -2.870470  -2.375349  4.955702
H    -1.589582  -1.529817  4.059390
