33
Energy: -18209.4922394 eV PBE+vdW (tier 2 basis)
C    -0.169254  -0.040511  0.074349
C    -0.068820  0.101502  1.580201
O    1.017058  0.330699  2.128862
H    0.247318  0.859760  -0.393365
H    -1.190581  -0.197479  -0.292919
H    0.453403  -0.888734  -0.237318
N    -1.239185  -0.036960  2.262698
C    -1.428537  -0.042250  3.723268
C    -1.236939  1.339652  4.402333
O    -2.143990  1.813578  5.089522
H    -2.076017  -0.166484  1.708278
H    -2.497100  -0.241621  3.865885
C    -0.616624  -1.160527  4.409666
C    -0.830837  -1.254894  5.927247
C    -2.269207  -1.527635  6.393845
C    -2.912535  -2.809739  5.838729
N    -2.251602  -4.084019  6.145151
H    0.450704  -1.006598  4.205467
H    -0.890420  -2.107871  3.918440
H    -0.480231  -0.325461  6.401083
H    -0.164092  -2.045493  6.307436
H    -2.911319  -0.667966  6.144154
H    -2.268040  -1.583690  7.495069
H    -3.003373  -2.746781  4.742267
H    -3.945235  -2.874502  6.213574
H    -2.153529  -4.197667  7.155525
H    -1.305316  -4.103300  5.763353
N    -0.023587  1.914646  4.220794
C    0.321244  3.200299  4.793334
H    0.625519  1.439674  3.582591
H    1.239188  3.126734  5.392905
H    -0.504170  3.519611  5.438396
H    0.475345  3.958118  4.011250
