33
Energy: -18209.4272454 eV PBE+vdW (tier 2 basis)
C    -1.681522  0.854486  1.071249
C    -0.929769  0.387113  2.299927
O    -0.114398  1.115078  2.881687
H    -0.959294  1.111854  0.286555
H    -2.229731  1.770336  1.324353
H    -2.389724  0.113677  0.679828
N    -1.206306  -0.877035  2.717417
C    -0.663522  -1.466478  3.944612
C    0.758505  -2.064013  3.730124
O    1.020482  -3.254764  3.898612
H    -1.833602  -1.443031  2.160894
H    -0.526201  -0.614910  4.630831
C    -1.656433  -2.434960  4.603305
C    -2.007138  -3.766882  3.908190
C    -2.716428  -3.725479  2.543868
C    -4.061825  -2.981715  2.511336
N    -4.798506  -3.020846  1.243427
H    -2.571247  -1.860189  4.817455
H    -1.228412  -2.691324  5.583014
H    -2.655461  -4.320722  4.607072
H    -1.085841  -4.353056  3.809484
H    -2.898021  -4.766988  2.230756
H    -2.043284  -3.323851  1.763789
H    -3.931241  -1.920678  2.779014
H    -4.718410  -3.396945  3.292593
H    -4.987510  -3.987702  0.973863
H    -4.236752  -2.623157  0.488617
N    1.669366  -1.122322  3.370363
C    3.053704  -1.440022  3.085613
H    1.329386  -0.161143  3.266748
H    3.201138  -2.509953  3.267121
H    3.730357  -0.870702  3.738155
H    3.307641  -1.216677  2.039128
