33
Energy: -18209.4049333 eV PBE+vdW (tier 2 basis)
C    -1.385918  0.497147  0.787071
C    -0.808511  0.155029  2.143797
O    -0.081787  0.936600  2.769248
H    -2.196923  -0.173513  0.478055
H    -0.583771  0.464338  0.037308
H    -1.763725  1.525202  0.818626
N    -1.142345  -1.074417  2.630618
C    -0.720795  -1.576051  3.939411
C    0.708063  -2.190352  3.896176
O    0.924386  -3.378591  4.130026
H    -1.607528  -1.726378  2.007881
H    -0.662285  -0.688526  4.588463
C    -1.754597  -2.548915  4.512983
C    -2.146807  -3.746187  3.609217
C    -3.633046  -3.855657  3.232598
C    -4.163928  -2.861038  2.179350
N    -4.442418  -1.474729  2.571204
H    -2.650165  -1.968872  4.777616
H    -1.342424  -2.926253  5.457084
H    -1.843642  -4.670471  4.116586
H    -1.544385  -3.748427  2.685065
H    -4.256858  -3.784864  4.140330
H    -3.802834  -4.869015  2.832649
H    -5.098443  -3.264241  1.760616
H    -3.460536  -2.834785  1.326536
H    -3.618096  -1.020680  2.963117
H    -5.163785  -1.447037  3.292228
N    1.665638  -1.273987  3.596505
C    3.066541  -1.618393  3.461778
H    1.351286  -0.317620  3.410433
H    3.184020  -2.673197  3.731974
H    3.686578  -1.005990  4.130894
H    3.418037  -1.474128  2.429558
