33
Energy: -18209.5803428 eV PBE+vdW (tier 2 basis)
C    -5.846639  2.930194  2.505946
C    -4.474134  2.482720  2.048794
O    -4.185965  2.384418  0.849997
H    -5.959604  2.965032  3.596351
H    -6.598839  2.249793  2.088205
H    -6.044538  3.928226  2.095325
N    -3.576553  2.205903  3.035951
C    -2.198381  1.794823  2.761017
C    -2.154807  0.264222  2.489982
O    -1.789971  -0.546447  3.340413
H    -3.884877  2.215252  4.001698
H    -1.906948  2.317543  1.837247
C    -1.276546  2.197908  3.908128
C    0.209114  2.061234  3.564695
C    1.127182  2.442763  4.728466
C    2.619582  2.316980  4.389723
N    3.566259  2.657224  5.455951
H    -1.505590  1.569204  4.783246
H    -1.499423  3.242666  4.177556
H    0.441344  2.693601  2.690796
H    0.415977  1.022540  3.265064
H    0.901193  1.802010  5.597799
H    0.917189  3.479122  5.046407
H    2.852492  2.954586  3.521614
H    2.834352  1.284770  4.070521
H    3.417286  3.617014  5.771324
H    3.412111  2.061357  6.270802
N    -2.572766  -0.061943  1.238513
C    -2.737302  -1.436665  0.808125
H    -3.000065  0.691616  0.694953
H    -2.360837  -1.563335  -0.214876
H    -3.792163  -1.750598  0.836498
H    -2.166135  -2.078734  1.486768
