33
Energy: -18209.3630672 eV PBE+vdW (tier 2 basis)
C    -0.618183  -0.065187  -0.557332
C    -0.701776  0.288572  0.924095
O    0.178387  0.960127  1.462430
H    0.292037  0.393153  -0.952720
H    -1.480035  0.318808  -1.122300
H    -0.565297  -1.151506  -0.719722
N    -1.787797  -0.150914  1.629812
C    -2.801197  -1.075818  1.157031
C    -4.204688  -0.576620  1.547565
O    -4.510054  -0.250485  2.696258
H    -1.762793  0.042654  2.652429
H    -2.746999  -1.084943  0.059879
C    -2.599315  -2.549553  1.607115
C    -2.630907  -2.871423  3.110283
C    -1.378042  -2.454705  3.924064
C    -1.638015  -1.444893  5.046300
N    -2.111035  -0.152629  4.528776
H    -1.636707  -2.881377  1.184674
H    -3.377620  -3.145386  1.102213
H    -2.761159  -3.959779  3.195029
H    -3.537798  -2.435983  3.555438
H    -0.930852  -3.349337  4.382309
H    -0.610890  -2.039642  3.254272
H    -0.691270  -1.266244  5.576165
H    -2.332771  -1.891775  5.784730
H    -1.980271  0.588385  5.214639
H    -3.105095  -0.178605  4.283927
N    -5.102187  -0.564300  0.520176
C    -6.489127  -0.172118  0.687185
H    -4.772673  -0.808753  -0.405309
H    -6.721146  0.730634  0.105199
H    -6.643620  0.042647  1.749670
H    -7.168574  -0.979122  0.380425
