33
Energy: -18209.4054668 eV PBE+vdW (tier 2 basis)
C    0.363070  -0.399637  -0.028709
C    -0.034948  -0.263140  1.428334
O    0.643470  0.426050  2.202911
H    -0.353673  -0.960022  -0.640895
H    1.336699  -0.904595  -0.075223
H    0.495379  0.602339  -0.453712
N    -1.168589  -0.927159  1.784356
C    -1.775613  -1.180009  3.107880
C    -2.086262  0.014369  4.045755
O    -2.929544  -0.168650  4.925067
H    -1.619437  -1.430208  1.029388
H    -2.791480  -1.521501  2.865112
C    -1.115435  -2.363777  3.859892
C    0.382065  -2.276006  4.173736
C    0.784728  -1.258469  5.242911
C    2.303706  -1.171446  5.474101
N    3.120704  -0.726036  4.339123
H    -1.291974  -3.264328  3.250512
H    -1.697139  -2.496204  4.784553
H    0.937426  -2.075220  3.244320
H    0.706878  -3.277990  4.501516
H    0.290376  -1.511323  6.195842
H    0.424959  -0.256558  4.968102
H    2.690696  -2.151405  5.797341
H    2.488820  -0.482419  6.313129
H    2.694637  0.093065  3.900357
H    3.141125  -1.442261  3.613119
N    -1.450396  1.188681  3.836205
C    -1.660096  2.312693  4.729933
H    -0.604251  1.155353  3.252787
H    -1.312854  3.229196  4.240177
H    -1.119413  2.189473  5.682287
H    -2.726986  2.404631  4.961946
