33
Energy: -18209.4012403 eV PBE+vdW (tier 2 basis)
C    -0.043000  0.976473  0.699419
C    0.068960  -0.188023  1.662515
O    1.144854  -0.678056  1.992677
H    -0.578716  1.825980  1.144796
H    -0.594505  0.688796  -0.207056
H    0.966814  1.287250  0.420702
N    -1.112271  -0.683774  2.176917
C    -2.474166  -0.296263  1.826283
C    -2.897936  1.076775  2.395766
O    -3.706162  1.786291  1.797547
H    -0.987085  -1.523473  2.737160
H    -2.565241  -0.186006  0.736098
C    -3.426040  -1.417697  2.301786
C    -4.924818  -1.147837  2.144732
C    -5.393318  -0.944081  0.700593
C    -6.864547  -0.538764  0.588186
N    -7.121411  0.696789  1.338767
H    -3.211233  -1.609220  3.366715
H    -3.144414  -2.331849  1.753096
H    -5.214157  -0.270229  2.738220
H    -5.467756  -2.000196  2.583855
H    -5.231311  -1.863600  0.114837
H    -4.788983  -0.156823  0.222963
H    -7.502875  -1.330943  1.014283
H    -7.121580  -0.471240  -0.487472
H    -8.062959  1.042425  1.158398
H    -6.468790  1.428989  1.051844
N    -2.342187  1.396805  3.594248
C    -2.631287  2.632757  4.293891
H    -1.611654  0.782991  3.939526
H    -2.963476  2.432794  5.321441
H    -3.434363  3.141743  3.750371
H    -1.751695  3.291788  4.327709
