33
Energy: -18209.4497133 eV PBE+vdW (tier 2 basis)
C    2.988673  -0.355470  4.575988
C    1.687166  0.337646  4.926450
O    1.477171  0.767437  6.068288
H    3.821240  0.320800  4.805505
H    3.059386  -0.670101  3.527830
H    3.097476  -1.237648  5.219402
N    0.786949  0.449299  3.911556
C    -0.575383  1.007792  3.997813
C    -0.573968  2.556856  4.126920
O    -1.143704  3.264199  3.292119
H    1.079212  0.126250  2.997816
H    -1.015409  0.828622  3.008357
C    -1.441297  0.285967  5.060034
C    -2.946296  0.225613  4.740400
C    -3.676805  1.557123  4.519596
C    -3.632472  2.527875  5.700641
N    -4.179468  3.828622  5.291250
H    -1.269527  0.734120  6.046523
H    -1.068880  -0.746598  5.132827
H    -3.430100  -0.326933  5.562631
H    -3.088414  -0.396429  3.841343
H    -4.729712  1.352047  4.275075
H    -3.257229  2.067115  3.639350
H    -2.599703  2.594627  6.093336
H    -4.252115  2.138583  6.524505
H    -4.177318  4.481579  6.075113
H    -3.575496  4.233203  4.572186
N    0.060928  3.048623  5.214929
C    0.105247  4.472169  5.486637
H    0.547505  2.381139  5.823344
H    0.772179  4.647822  6.336925
H    -0.894265  4.862655  5.731212
H    0.475279  5.028546  4.614862
