33
Energy: -18209.4920471 eV PBE+vdW (tier 2 basis)
C    -1.672042  1.066812  -0.565341
C    -2.163657  -0.298899  -0.130341
O    -2.493928  -1.158968  -0.952029
H    -2.444792  1.536528  -1.186305
H    -0.782307  0.936623  -1.193946
H    -1.426121  1.732533  0.270503
N    -2.191857  -0.507812  1.215884
C    -2.783463  -1.683271  1.827379
C    -3.743132  -1.181525  2.918360
O    -3.532925  -0.111867  3.495121
H    -2.086595  0.280999  1.851075
H    -3.317988  -2.221771  1.033854
C    -1.716502  -2.595410  2.483022
C    -0.718166  -3.256967  1.515275
C    -1.074790  -4.682518  1.064880
C    -2.290004  -4.841381  0.144450
N    -2.074179  -4.207104  -1.155947
H    -2.225333  -3.371215  3.077766
H    -1.177542  -1.967639  3.208452
H    0.257477  -3.307475  2.020835
H    -0.555581  -2.611330  0.639243
H    -1.231300  -5.306046  1.962060
H    -0.207156  -5.103333  0.534262
H    -3.205490  -4.493901  0.669939
H    -2.439886  -5.918441  -0.025740
H    -2.767430  -4.531645  -1.828527
H    -2.183198  -3.189931  -1.100073
N    -4.794458  -1.979367  3.250348
C    -5.203058  -3.227333  2.624872
H    -5.355714  -1.616022  4.014007
H    -5.341743  -3.114290  1.540795
H    -6.163985  -3.528825  3.054321
H    -4.483674  -4.040628  2.800624
