33
Energy: -18209.1639325 eV PBE+vdW (tier 2 basis)
C    0.353140  -0.655379  0.516438
C    -0.168499  0.456294  1.403479
O    0.251688  1.610146  1.339888
H    -0.404054  -0.958663  -0.220574
H    0.617252  -1.554171  1.089605
H    1.233871  -0.282912  -0.012584
N    -1.151505  0.125091  2.307284
C    -1.876847  -1.132068  2.430573
C    -2.717455  -1.510722  1.188439
O    -2.690345  -2.669658  0.768380
H    -1.463424  0.914143  2.867031
H    -1.158957  -1.962743  2.498911
C    -2.682758  -1.118725  3.747663
C    -3.400049  -2.433070  4.086354
C    -4.788343  -2.595660  3.450634
C    -5.289435  -4.041883  3.435843
N    -4.335767  -4.913127  2.740966
H    -3.403698  -0.283227  3.737643
H    -1.953898  -0.883545  4.538327
H    -3.502844  -2.503029  5.179871
H    -2.771674  -3.283519  3.785645
H    -4.779467  -2.231368  2.412191
H    -5.521020  -1.968549  3.983301
H    -6.307231  -4.046992  2.997383
H    -5.393078  -4.409736  4.470730
H    -4.093279  -4.529874  1.824701
H    -4.726839  -5.842179  2.594446
N    -3.477837  -0.563137  0.564629
C    -3.706034  0.837976  0.890752
H    -3.951368  -0.933642  -0.253479
H    -4.580747  1.177899  0.325076
H    -2.853427  1.479180  0.627744
H    -3.936110  0.975223  1.954605
