33
Energy: -18209.3944294 eV PBE+vdW (tier 2 basis)
C    -0.769160  1.284516  2.299928
C    0.010601  0.090470  2.816948
O    1.097152  0.204675  3.378165
H    -0.238903  2.190661  2.603172
H    -1.794388  1.310475  2.693766
H    -0.837570  1.265292  1.202692
N    -0.561732  -1.151749  2.645905
C    -1.793193  -1.493983  1.949167
C    -3.061308  -1.492224  2.839712
O    -4.162332  -1.733227  2.349230
H    0.039927  -1.916649  2.941777
H    -1.997593  -0.714497  1.200814
C    -1.652307  -2.819347  1.169866
C    -1.174709  -4.051628  1.949346
C    -2.108340  -4.554344  3.056177
C    -1.721233  -5.938923  3.584423
N    -1.848971  -6.959753  2.535370
H    -0.956057  -2.636371  0.338016
H    -2.636065  -3.023479  0.724670
H    -0.166913  -3.883950  2.371371
H    -1.039974  -4.867932  1.225042
H    -3.143854  -4.587686  2.677920
H    -2.125621  -3.854997  3.905948
H    -2.321606  -6.154094  4.489594
H    -0.667146  -5.926109  3.905196
H    -1.464252  -7.850379  2.848041
H    -2.833322  -7.126400  2.321490
N    -2.860210  -1.180576  4.147704
C    -3.932995  -1.152294  5.120251
H    -1.901335  -1.029931  4.442829
H    -3.937718  -0.203082  5.672288
H    -3.845795  -1.979707  5.840083
H    -4.877749  -1.258438  4.576029
