33
Energy: -18209.4166629 eV PBE+vdW (tier 2 basis)
C    0.575762  -0.657988  1.260528
C    0.182048  0.580743  2.041314
O    1.008487  1.332598  2.551469
H    0.121315  -0.677369  0.260555
H    0.256344  -1.570109  1.784886
H    1.664579  -0.667783  1.167699
N    -1.166095  0.847910  2.145912
C    -2.288804  0.035007  1.694958
C    -2.772090  0.348324  0.258045
O    -3.645365  -0.340159  -0.265668
H    -1.370856  1.643580  2.746205
H    -1.975762  -1.019371  1.664016
C    -3.468946  0.142785  2.672637
C    -3.181071  -0.464365  4.047926
C    -4.341408  -0.319673  5.041103
C    -5.600959  -1.117999  4.685357
N    -5.310317  -2.555432  4.607857
H    -4.317068  -0.362815  2.193470
H    -3.753272  1.206161  2.771753
H    -2.283525  0.001514  4.483239
H    -2.952209  -1.533817  3.923748
H    -4.619227  0.742342  5.144424
H    -3.995318  -0.636439  6.039241
H    -5.977295  -0.805340  3.699766
H    -6.394388  -0.860506  5.413795
H    -6.109569  -3.066787  4.235835
H    -5.128334  -2.934008  5.538392
N    -2.168960  1.407719  -0.343431
C    -2.493811  1.837579  -1.688323
H    -1.448524  1.888206  0.185187
H    -2.867254  2.871114  -1.696064
H    -3.277054  1.172525  -2.068305
H    -1.618051  1.773553  -2.349261
