33
Energy: -18209.5033595 eV PBE+vdW (tier 2 basis)
C    -0.255973  3.261810  3.488283
C    -0.293998  1.839190  4.007540
O    0.225715  1.526092  5.085904
H    0.790278  3.578886  3.397460
H    -0.733228  3.917228  4.227519
H    -0.756171  3.392741  2.520867
N    -0.937637  0.934107  3.220562
C    -1.100434  -0.475665  3.585851
C    0.167106  -1.276040  3.179194
O    0.198288  -2.019788  2.200771
H    -1.266458  1.223574  2.306158
H    -1.172691  -0.492290  4.684412
C    -2.364896  -1.066121  2.971501
C    -3.656242  -0.415136  3.479427
C    -4.944781  -0.969491  2.848839
C    -5.488247  -2.266196  3.456926
N    -4.562553  -3.396538  3.299550
H    -2.382870  -2.139990  3.193357
H    -2.300691  -0.992146  1.873031
H    -3.617029  0.670416  3.295405
H    -3.713927  -0.528237  4.575349
H    -4.794370  -1.110023  1.763659
H    -5.741915  -0.215314  2.940246
H    -6.492547  -2.453283  3.026424
H    -5.637545  -2.114339  4.537994
H    -4.933686  -4.228929  3.757171
H    -4.454287  -3.633374  2.311846
N    1.218760  -1.050569  4.013436
C    2.537952  -1.597809  3.768568
H    1.097595  -0.311073  4.709255
H    3.235779  -0.830273  3.399902
H    2.445241  -2.379802  3.007397
H    2.951463  -2.034618  4.687195
