33
Energy: -18209.4379259 eV PBE+vdW (tier 2 basis)
C    0.569469  0.733917  0.246915
C    0.182484  0.003703  1.519690
O    1.009013  -0.293001  2.383845
H    1.336007  0.148324  -0.275416
H    -0.273476  0.911627  -0.431911
H    1.021079  1.696992  0.516019
N    -1.144023  -0.288284  1.645243
C    -1.657108  -1.063594  2.755738
C    -2.909614  -1.787704  2.241711
O    -3.483965  -1.411505  1.216220
H    -1.799988  -0.159085  0.877316
H    -0.876503  -1.786357  3.041290
C    -1.961174  -0.186907  3.997070
C    -3.073472  0.842298  3.794996
C    -3.267712  1.744628  5.015223
C    -4.365300  2.788890  4.821763
N    -4.543059  3.591419  6.039391
H    -1.018434  0.315872  4.258401
H    -2.205471  -0.838875  4.849674
H    -4.022249  0.330268  3.563918
H    -2.840717  1.459269  2.912537
H    -2.317010  2.257098  5.244540
H    -3.511579  1.141877  5.904608
H    -5.319919  2.277971  4.619624
H    -4.134968  3.389624  3.918471
H    -3.705971  4.147832  6.220576
H    -5.308262  4.255542  5.921519
N    -3.384444  -2.837969  2.967301
C    -2.831713  -3.452046  4.162117
H    -4.248890  -3.218537  2.593935
H    -3.060099  -4.524589  4.153149
H    -3.241053  -3.018091  5.087205
H    -1.741371  -3.346831  4.183969
