33
Energy: -18209.2366427 eV PBE+vdW (tier 2 basis)
C    -0.277707  -0.734141  1.713301
C    -1.145722  -0.488079  2.931488
O    -0.671199  -0.429891  4.061979
H    0.706492  -0.297361  1.906772
H    -0.681865  -0.337527  0.776519
H    -0.146829  -1.818327  1.587388
N    -2.515940  -0.404914  2.754758
C    -3.273491  -0.176783  1.519135
C    -3.141527  -1.350988  0.513934
O    -3.173122  -1.172203  -0.700905
H    -2.987960  -0.172569  3.624928
H    -4.327890  -0.212094  1.838342
C    -3.030700  1.194972  0.855684
C    -4.243630  1.756706  0.098580
C    -5.389039  2.224912  1.002884
C    -6.630174  2.689096  0.236972
N    -6.352953  3.884945  -0.571270
H    -2.182405  1.117393  0.162902
H    -2.737461  1.898838  1.649337
H    -4.603653  1.001223  -0.616802
H    -3.890912  2.608231  -0.503058
H    -5.039734  3.050633  1.643514
H    -5.702051  1.409837  1.677530
H    -7.412661  2.958858  0.961230
H    -7.025257  1.836338  -0.352416
H    -5.787650  3.646697  -1.386555
H    -7.221975  4.276290  -0.933530
N    -3.049381  -2.577814  1.097007
C    -2.926580  -3.802841  0.333077
H    -2.943134  -2.600227  2.105703
H    -3.683451  -4.535872  0.642928
H    -1.929847  -4.253632  0.449347
H    -3.078620  -3.553842  -0.722479
