33
Energy: -18209.0937731 eV PBE+vdW (tier 2 basis)
C    -0.546165  0.407248  -0.121526
C    -0.400874  0.364149  1.391365
O    0.706342  0.405076  1.927601
H    -0.083115  1.330890  -0.490162
H    -1.582586  0.360193  -0.477578
H    0.015111  -0.432830  -0.548904
N    -1.582115  0.262551  2.072863
C    -1.814324  0.205816  3.525003
C    -2.190678  1.615357  4.064237
O    -3.388079  1.861642  4.244243
H    -2.427054  0.323201  1.517012
H    -2.778773  -0.312347  3.622759
C    -0.793274  -0.643278  4.303285
C    -1.291748  -1.090800  5.685757
C    -1.382179  0.005419  6.752320
C    -1.714825  -0.545532  8.137471
N    -1.785895  0.541383  9.123061
H    0.176562  -0.143836  4.392750
H    -0.607525  -1.538444  3.691379
H    -0.601964  -1.872169  6.044227
H    -2.273502  -1.583190  5.579901
H    -2.152467  0.742971  6.478441
H    -0.429778  0.555175  6.814481
H    -0.916476  -1.233797  8.457800
H    -2.642451  -1.149959  8.070654
H    -2.571901  1.157481  8.908793
H    -1.960714  0.167659  10.055960
N    -1.249183  2.571486  4.289964
C    0.204925  2.523699  4.251728
H    -1.671629  3.422463  4.651410
H    0.631916  2.291089  5.240253
H    0.579892  3.506256  3.938823
H    0.556603  1.786308  3.522574
