33
Energy: -18209.3546142 eV PBE+vdW (tier 2 basis)
C    0.571147  0.658330  2.918592
C    -0.118591  -0.330921  2.001022
O    0.387479  -1.400176  1.674001
H    -0.048347  0.913515  3.789130
H    0.789440  1.597979  2.391147
H    1.510168  0.212866  3.255994
N    -1.372929  0.018546  1.541111
C    -2.078582  1.280668  1.738412
C    -2.683616  1.440363  3.152482
O    -2.896539  2.555651  3.623888
H    -1.740534  -0.627320  0.846610
H    -1.384216  2.127606  1.627140
C    -3.175441  1.402543  0.661347
C    -3.874583  2.763883  0.601705
C    -4.896535  2.877844  -0.536115
C    -6.133733  1.994053  -0.369712
N    -7.074992  2.217240  -1.473813
H    -3.910387  0.597454  0.825535
H    -2.698803  1.201545  -0.312673
H    -3.110560  3.546201  0.475671
H    -4.359105  2.979007  1.565060
H    -4.426374  2.649137  -1.505891
H    -5.227078  3.927897  -0.599269
H    -6.566421  2.173718  0.636052
H    -5.846299  0.931822  -0.400224
H    -7.881190  1.598115  -1.390823
H    -7.438525  3.171073  -1.441385
N    -2.984397  0.272904  3.783383
C    -3.573094  0.222324  5.106485
H    -2.684044  -0.584251  3.330835
H    -2.894013  -0.252503  5.828836
H    -4.521873  -0.331726  5.096766
H    -3.764611  1.253205  5.423510
