33
Energy: -18209.0826607 eV PBE+vdW (tier 2 basis)
C    0.027054  -0.147391  0.382130
C    -0.200266  -0.110249  1.879367
O    0.741399  -0.085053  2.670154
H    0.989477  0.332632  0.182334
H    -0.756645  0.330048  -0.213062
H    0.099716  -1.196293  0.060245
N    -1.488041  -0.175284  2.369388
C    -2.796431  -0.033745  1.725253
C    -2.934891  -0.815588  0.399683
O    -3.307893  -0.275272  -0.639549
H    -1.490810  -0.146865  3.386049
H    -3.499004  -0.541200  2.410396
C    -3.283722  1.424761  1.618517
C    -2.383047  2.401215  0.858343
C    -2.876259  3.853898  0.913592
C    -2.826550  4.519058  2.302644
N    -1.516251  4.618888  2.951922
H    -3.425760  1.779219  2.652028
H    -4.281083  1.409218  1.154223
H    -2.318918  2.085926  -0.191269
H    -1.358585  2.359530  1.262559
H    -3.911295  3.906956  0.534582
H    -2.268271  4.456203  0.218467
H    -3.498557  3.995227  3.000216
H    -3.232895  5.538280  2.215690
H    -0.852453  5.106045  2.347691
H    -1.120199  3.694472  3.125706
N    -2.678554  -2.157808  0.441162
C    -2.292972  -2.993756  1.566213
H    -2.790620  -2.603304  -0.464163
H    -2.548380  -4.032776  1.328759
H    -2.843187  -2.718318  2.474897
H    -1.217380  -2.939446  1.788859
