33
Energy: -18209.2586195 eV PBE+vdW (tier 2 basis)
C    -0.014215  -0.788632  0.449877
C    -0.044290  -1.391992  1.839699
O    0.901310  -1.283893  2.615487
H    1.032165  -0.702012  0.142865
H    -0.441809  0.222934  0.487613
H    -0.574955  -1.361314  -0.297781
N    -1.174458  -2.089797  2.223587
C    -2.475642  -2.189781  1.554987
C    -2.436569  -3.053318  0.267112
O    -3.250824  -2.890909  -0.638814
H    -1.138869  -2.355922  3.203833
H    -3.088915  -2.781722  2.252819
C    -3.196899  -0.843280  1.327000
C    -4.729438  -0.911215  1.437674
C    -5.283118  -1.385036  2.788481
C    -4.857683  -0.540470  3.988888
N    -5.450004  -1.067756  5.224287
H    -2.942052  -0.456344  0.331825
H    -2.798386  -0.129014  2.061813
H    -5.110707  -1.563808  0.640640
H    -5.122144  0.095756  1.222844
H    -5.011506  -2.434265  2.988477
H    -6.384151  -1.382332  2.725841
H    -5.105018  0.522061  3.785941
H    -3.764040  -0.583366  4.110904
H    -5.145353  -0.523029  6.031004
H    -6.467721  -0.989742  5.190683
N    -1.478771  -4.020047  0.261300
C    -1.304101  -4.945994  -0.839513
H    -0.815492  -4.015722  1.028805
H    -0.340438  -4.790566  -1.345745
H    -2.113178  -4.767437  -1.555825
H    -1.356232  -5.986568  -0.491156
