33
Energy: -18209.0268631 eV PBE+vdW (tier 2 basis)
C    -0.082128  0.301719  0.449155
C    -0.132612  -0.204995  1.878413
O    0.878065  -0.274314  2.573363
H    -0.870131  1.030015  0.221088
H    -0.185917  -0.539568  -0.250203
H    0.895167  0.766957  0.296098
N    -1.344752  -0.609516  2.386246
C    -2.671770  -0.647443  1.775880
C    -2.649779  -1.467007  0.455446
O    -2.220235  -2.616206  0.452326
H    -1.253192  -1.019931  3.309854
H    -3.260048  -1.296084  2.440921
C    -3.364942  0.733068  1.752068
C    -4.907303  0.689570  1.664932
C    -5.637670  0.789816  3.011888
C    -5.409780  -0.372531  3.979001
N    -6.270378  -0.224743  5.159055
H    -2.947559  1.351086  0.940830
H    -3.066318  1.254203  2.673379
H    -5.231816  -0.226753  1.144627
H    -5.254519  1.522500  1.035932
H    -6.720653  0.864176  2.831815
H    -5.344766  1.732153  3.507284
H    -4.332519  -0.450178  4.230735
H    -5.686405  -1.316607  3.482539
H    -6.159688  -1.021824  5.785776
H    -5.999300  0.601699  5.694400
N    -3.147061  -0.853151  -0.655365
C    -3.182429  -1.502370  -1.951822
H    -3.433610  0.114858  -0.589064
H    -4.179324  -1.415601  -2.403661
H    -2.943481  -2.559980  -1.798960
H    -2.440800  -1.070665  -2.640257
