33
Energy: -18209.3790558 eV PBE+vdW (tier 2 basis)
C    -1.285256  0.565960  -0.249971
C    -0.902709  0.618449  1.219664
O    -0.286843  1.566580  1.700841
H    -0.367993  0.577318  -0.852238
H    -1.850888  1.472101  -0.498391
H    -1.881225  -0.313804  -0.523582
N    -1.299988  -0.460030  1.964395
C    -0.902990  -0.640474  3.361617
C    -1.041901  -2.111307  3.776169
O    -0.205283  -2.641086  4.502272
H    -1.674514  -1.267796  1.480395
H    0.170913  -0.423752  3.449391
C    -1.635092  0.337018  4.319779
C    -3.167605  0.287199  4.267769
C    -3.844549  -0.667264  5.264544
C    -5.229811  -1.114485  4.789965
N    -5.121506  -2.052406  3.646990
H    -1.283363  1.338908  4.043895
H    -1.265993  0.142209  5.338192
H    -3.476768  0.023290  3.243048
H    -3.565260  1.299398  4.435142
H    -3.937726  -0.176670  6.245642
H    -3.224809  -1.560904  5.439696
H    -5.797912  -0.234238  4.453333
H    -5.797538  -1.550438  5.629536
H    -5.109773  -3.013329  3.990788
H    -5.940644  -1.981247  3.044911
N    -2.120270  -2.793490  3.267987
C    -2.348704  -4.166657  3.687572
H    -2.969985  -2.268242  3.034927
H    -2.701010  -4.234888  4.730704
H    -1.411277  -4.728675  3.621721
H    -3.091728  -4.624250  3.024295
