33
Energy: -18209.5224289 eV PBE+vdW (tier 2 basis)
C    -0.599771  0.061125  -0.193455
C    -0.711071  -0.295339  1.274498
O    -0.658474  -1.468873  1.664501
H    -1.397319  -0.452523  -0.744391
H    0.356995  -0.317260  -0.574500
H    -0.661992  1.137943  -0.392353
N    -0.864248  0.749938  2.132320
C    -0.943682  0.587522  3.585991
C    -2.401745  0.224988  3.988934
O    -3.182603  1.045627  4.468631
H    -0.973972  1.686197  1.758993
H    -0.298270  -0.270488  3.830994
C    -0.445663  1.848179  4.285140
C    -0.267907  1.657724  5.794505
C    0.224983  2.896384  6.555147
C    -0.737512  4.091746  6.578898
N    -0.675750  4.876143  5.333445
H    -1.143315  2.675285  4.096815
H    0.518924  2.133350  3.834879
H    0.443164  0.832882  5.970469
H    -1.227096  1.338363  6.230180
H    1.198155  3.227939  6.151821
H    0.420707  2.598660  7.596985
H    -0.526523  4.697585  7.481519
H    -1.768836  3.720938  6.684194
H    0.213029  5.376151  5.279713
H    -1.406434  5.588039  5.327343
N    -2.706964  -1.077097  3.740474
C    -4.044766  -1.606833  3.914806
H    -2.023218  -1.603033  3.190221
H    -4.600590  -0.925095  4.567128
H    -4.004402  -2.600939  4.378252
H    -4.581834  -1.687225  2.956902
