33
Energy: -18209.1275049 eV PBE+vdW (tier 2 basis)
C    -0.212010  -1.071223  1.688226
C    -0.823460  -0.273125  2.820835
O    -0.221293  -0.069502  3.873431
H    0.867721  -1.112255  1.854616
H    -0.422059  -0.660194  0.694498
H    -0.604762  -2.098116  1.702150
N    -2.110972  0.195032  2.674465
C    -3.013278  0.169106  1.521577
C    -3.186647  -1.245733  0.918755
O    -2.974544  -1.477243  -0.269034
H    -2.415562  0.720133  3.488919
H    -4.000624  0.430753  1.937738
C    -2.674622  1.198032  0.432454
C    -2.552360  2.637903  0.946681
C    -3.806762  3.230593  1.610006
C    -5.074383  3.213074  0.750526
N    -4.906682  4.009351  -0.471572
H    -3.445089  1.117030  -0.347935
H    -1.738254  0.905779  -0.061589
H    -2.255426  3.279119  0.102646
H    -1.717141  2.699034  1.660868
H    -3.591683  4.273224  1.887589
H    -4.025601  2.702407  2.553724
H    -5.892076  3.667426  1.328958
H    -5.381112  2.164354  0.556448
H    -4.272327  3.546245  -1.123191
H    -5.796823  4.102946  -0.959923
N    -3.610964  -2.231974  1.765681
C    -3.963225  -2.149731  3.173883
H    -3.690893  -3.134495  1.308094
H    -4.559023  -1.251655  3.385186
H    -3.082760  -2.141549  3.831991
H    -4.581535  -3.018463  3.426873
