33
Energy: -18209.1556006 eV PBE+vdW (tier 2 basis)
C    -0.511812  1.581016  0.091609
C    -0.314030  0.368014  0.977511
O    0.794450  -0.001591  1.363115
H    -1.080311  2.366585  0.609213
H    -1.071090  1.331264  -0.820707
H    0.473073  1.969266  -0.179207
N    -1.441637  -0.328226  1.340173
C    -2.833243  0.030371  1.107407
C    -3.324789  1.291872  1.858104
O    -4.057811  2.088215  1.272085
H    -1.245045  -1.117486  1.948591
H    -2.959709  0.315771  0.052307
C    -3.773744  -1.159386  1.387239
C    -3.874923  -2.202153  0.263292
C    -2.613395  -3.014319  -0.066838
C    -2.079778  -3.895100  1.066982
N    -3.111044  -4.816936  1.561605
H    -4.779156  -0.747101  1.551674
H    -3.490252  -1.640886  2.337740
H    -4.211557  -1.689754  -0.651758
H    -4.676639  -2.901617  0.539710
H    -1.800191  -2.354595  -0.403671
H    -2.844946  -3.662924  -0.928842
H    -1.768441  -3.272815  1.921829
H    -1.160000  -4.397149  0.710672
H    -3.377634  -5.474256  0.826523
H    -2.749761  -5.378951  2.331965
N    -2.952607  1.504530  3.155496
C    -2.182220  0.672631  4.069715
H    -3.338564  2.367916  3.524570
H    -2.344662  1.048552  5.086109
H    -1.103584  0.699311  3.861852
H    -2.520303  -0.371781  4.055389
