33
Energy: -18209.3343279 eV PBE+vdW (tier 2 basis)
C    0.272830  0.404588  0.184255
C    0.030173  0.026598  1.631848
O    0.949869  -0.073584  2.437878
H    1.170658  1.028078  0.144690
H    -0.561339  0.925654  -0.296684
H    0.470084  -0.509962  -0.393029
N    -1.261884  -0.285477  2.021638
C    -2.527300  0.021327  1.345788
C    -2.665423  -0.721253  -0.011331
O    -3.244456  -0.221519  -0.975206
H    -1.314194  -0.456436  3.022576
H    -3.299737  -0.432548  1.989762
C    -2.855040  1.520211  1.218531
C    -4.363256  1.802060  1.197023
C    -4.729451  3.212986  0.722204
C    -4.340052  3.521256  -0.740325
N    -4.806989  2.593846  -1.769501
H    -2.388058  1.913483  0.305835
H    -2.388617  2.044336  2.065607
H    -4.774799  1.637128  2.206117
H    -4.857339  1.071760  0.539463
H    -4.261860  3.968206  1.377999
H    -5.818488  3.345687  0.832406
H    -3.244336  3.581480  -0.830684
H    -4.708790  4.528750  -0.988944
H    -4.397955  1.666128  -1.636294
H    -5.821127  2.485157  -1.728824
N    -2.138632  -1.973567  -0.018031
C    -2.160757  -2.832404  -1.185546
H    -1.602427  -2.248577  0.798394
H    -1.152233  -2.972335  -1.601460
H    -2.789688  -2.352385  -1.942369
H    -2.580753  -3.816481  -0.938778
