33
Energy: -18209.1467455 eV PBE+vdW (tier 2 basis)
C    -0.499123  -0.537280  -0.096333
C    -0.666678  -0.837265  1.383822
O    -0.414522  -1.936782  1.865818
H    -0.811761  0.474221  -0.385835
H    -1.077632  -1.269796  -0.672391
H    0.556170  -0.672249  -0.364837
N    -1.124266  0.206118  2.144887
C    -1.293375  0.112259  3.586578
C    -2.469712  -0.753030  4.094991
O    -2.346532  -1.331497  5.171330
H    -1.310335  1.092434  1.691589
H    -0.418691  -0.416752  3.992050
C    -1.374072  1.512849  4.214451
C    -0.079060  2.323214  4.103099
C    -0.190537  3.709304  4.744732
C    1.059960  4.575044  4.579202
N    2.209640  4.011798  5.298963
H    -1.633369  1.380151  5.274332
H    -2.211756  2.073411  3.761621
H    0.212996  2.436864  3.044842
H    0.727742  1.747928  4.584630
H    -0.404670  3.601713  5.819694
H    -1.044580  4.247041  4.299909
H    0.859953  5.567335  5.009012
H    1.245688  4.733674  3.496155
H    2.565123  3.180098  4.827133
H    2.979769  4.679436  5.318973
N    -3.640984  -0.829478  3.392145
C    -4.067421  -0.176632  2.166387
H    -4.308006  -1.445861  3.845639
H    -5.157862  -0.266524  2.096847
H    -3.629303  -0.630395  1.265503
H    -3.832338  0.895731  2.169735
