33
Energy: -18209.2532635 eV PBE+vdW (tier 2 basis)
C    1.560338  1.274274  0.689051
C    1.146083  0.177371  1.648820
O    1.927428  -0.696803  2.012872
H    0.756066  1.617657  0.028239
H    2.397583  0.901214  0.092039
H    1.913184  2.140934  1.265307
N    -0.157279  0.171793  2.111710
C    -1.195882  1.197984  1.971446
C    -1.737847  1.311853  0.520153
O    -2.203485  2.363173  0.087339
H    -0.294845  -0.526696  2.836887
H    -2.048476  0.803152  2.549358
C    -0.839725  2.575802  2.565790
C    -2.051082  3.317674  3.144545
C    -1.713679  4.670739  3.782546
C    -1.290745  5.753328  2.788790
N    -1.105328  7.037835  3.479754
H    -0.359813  3.191094  1.793811
H    -0.098975  2.412739  3.363824
H    -2.523109  2.676472  3.907875
H    -2.797998  3.460876  2.349686
H    -0.916121  4.535318  4.535229
H    -2.589869  5.045675  4.332387
H    -2.090659  5.886292  2.044119
H    -0.395122  5.422330  2.227815
H    -0.316791  6.979850  4.126522
H    -0.871792  7.771419  2.810389
N    -1.699532  0.150928  -0.188895
C    -2.178906  0.047403  -1.552570
H    -1.215799  -0.632453  0.237039
H    -2.913339  -0.763508  -1.649884
H    -1.354051  -0.136430  -2.256217
H    -2.657920  0.997926  -1.810418
