33
Energy: -18209.1908996 eV PBE+vdW (tier 2 basis)
C    0.002485  0.301254  -0.014994
C    0.186157  -0.221277  1.395061
O    1.293001  -0.429545  1.888158
H    -0.381103  1.331436  -0.006625
H    -0.714876  -0.300224  -0.589356
H    0.975665  0.288106  -0.511933
N    -0.955192  -0.462265  2.124778
C    -2.330937  -0.140695  1.773605
C    -2.634607  1.367539  1.606046
O    -3.314264  1.740713  0.649346
H    -0.766110  -0.796164  3.066032
H    -2.557243  -0.546602  0.776392
C    -3.283627  -0.807918  2.782329
C    -4.768709  -0.589272  2.490653
C    -5.675867  -1.300049  3.498471
C    -7.168257  -1.137052  3.203362
N    -7.593219  0.264877  3.322212
H    -3.055632  -0.447352  3.799525
H    -3.057302  -1.886513  2.778880
H    -4.996969  -0.940938  1.470865
H    -4.982851  0.489827  2.495136
H    -5.476167  -0.914885  4.511490
H    -5.438753  -2.376820  3.510802
H    -7.738996  -1.716654  3.943340
H    -7.389353  -1.585894  2.213219
H    -7.259309  0.813303  2.529090
H    -8.610515  0.329156  3.302447
N    -2.163581  2.264971  2.522109
C    -1.356623  2.069922  3.719044
H    -2.421450  3.218119  2.285804
H    -1.758869  1.274250  4.358712
H    -1.388711  2.997415  4.301417
H    -0.306224  1.841682  3.491034
