33
Energy: -18209.1728205 eV PBE+vdW (tier 2 basis)
C    0.061096  0.862574  1.377291
C    0.254508  0.281027  2.766182
O    1.157094  0.670900  3.503485
H    -0.988243  1.028529  1.105059
H    0.497289  0.190705  0.625605
H    0.599115  1.813696  1.340449
N    -0.598360  -0.712653  3.184314
C    -1.695109  -1.385965  2.489785
C    -2.897066  -1.412157  3.462067
O    -3.127180  -2.387685  4.173545
H    -0.359613  -1.076109  4.105321
H    -1.951751  -0.781302  1.610585
C    -1.336074  -2.812458  2.048341
C    -0.285118  -2.888476  0.935331
C    -0.741926  -2.409261  -0.453192
C    -1.951651  -3.147230  -1.034410
N    -1.681204  -4.580373  -1.203244
H    -2.266176  -3.314569  1.741806
H    -0.990519  -3.364117  2.933506
H    0.609542  -2.320989  1.235976
H    0.059594  -3.930747  0.853705
H    -0.983493  -1.334282  -0.428958
H    0.100515  -2.521181  -1.152263
H    -2.162217  -2.732695  -2.031073
H    -2.849004  -2.934211  -0.417836
H    -1.642249  -5.052153  -0.299154
H    -2.436595  -5.025858  -1.723333
N    -3.674318  -0.289317  3.521557
C    -3.466830  0.986141  2.856981
H    -4.390970  -0.340200  4.239034
H    -2.548369  1.490644  3.191941
H    -4.316660  1.637093  3.087487
H    -3.430762  0.874448  1.764031
