33
Energy: -18209.3325549 eV PBE+vdW (tier 2 basis)
C    -1.041251  1.563980  -1.112703
C    -0.862138  1.739118  0.387483
O    -0.082157  2.569853  0.847703
H    -2.088960  1.685030  -1.422250
H    -0.704329  0.574561  -1.449618
H    -0.436930  2.328924  -1.607006
N    -1.592623  0.928584  1.218126
C    -2.615579  -0.046840  0.893012
C    -3.855702  0.255994  1.754729
O    -3.742278  0.642349  2.915347
H    -1.517209  1.156502  2.208986
H    -2.871415  0.055449  -0.170389
C    -2.158174  -1.498431  1.182574
C    -1.005260  -1.986558  0.300006
C    -1.411926  -2.309821  -1.142276
C    -0.233101  -2.635887  -2.061483
N    0.462221  -3.858865  -1.638805
H    -3.024205  -2.171339  1.069893
H    -1.868717  -1.541324  2.242924
H    -0.581932  -2.889684  0.764988
H    -0.199664  -1.233158  0.309342
H    -1.955418  -1.457915  -1.583821
H    -2.107251  -3.164491  -1.142695
H    0.429422  -1.747319  -2.122570
H    -0.614494  -2.810483  -3.078047
H    1.125918  -4.154172  -2.354165
H    1.010945  -3.691028  -0.795159
N    -5.053327  0.020414  1.148116
C    -6.325225  0.164069  1.833066
H    -5.049458  -0.288562  0.183608
H    -6.967620  0.896087  1.325139
H    -6.113003  0.520067  2.846551
H    -6.856716  -0.795864  1.895285
