33
Energy: -18209.4288699 eV PBE+vdW (tier 2 basis)
C    2.128060  0.083646  4.457700
C    0.957321  -0.787909  4.872431
O    0.979187  -1.480140  5.883479
H    3.054840  -0.491468  4.561423
H    2.191101  0.935159  5.148624
H    2.052104  0.468928  3.432841
N    -0.129778  -0.749421  4.023528
C    -1.421767  -1.323435  4.382382
C    -1.874312  -2.468687  3.449171
O    -3.031990  -2.880374  3.471097
H    -0.122043  -0.050573  3.287169
H    -1.257935  -1.791890  5.367562
C    -2.512692  -0.251960  4.503142
C    -2.270286  0.732744  5.649300
C    -3.390617  1.764422  5.846793
C    -3.655476  2.684287  4.651664
N    -2.471016  3.489612  4.315920
H    -3.467553  -0.778200  4.638092
H    -2.596937  0.276690  3.537086
H    -1.310773  1.257219  5.507897
H    -2.149564  0.163002  6.583843
H    -3.140984  2.391004  6.716279
H    -4.328345  1.238687  6.089314
H    -4.458839  3.383936  4.924484
H    -4.041697  2.088343  3.801186
H    -2.701644  4.176083  3.597783
H    -1.735974  2.901806  3.921001
N    -0.901673  -2.985037  2.649214
C    -1.120317  -4.134836  1.795246
H    0.031215  -2.602605  2.755373
H    -2.192345  -4.359298  1.810426
H    -0.570136  -5.015739  2.156859
H    -0.811132  -3.922995  0.762692
