33
Energy: -18209.1903042 eV PBE+vdW (tier 2 basis)
C    -2.029985  -0.652946  -0.270743
C    -0.727839  -0.600111  0.511220
O    0.088192  -1.517472  0.482643
H    -2.097296  0.159904  -1.007800
H    -2.904327  -0.574411  0.390252
H    -2.063893  -1.610398  -0.796646
N    -0.487007  0.533030  1.250487
C    -1.395939  1.652285  1.499873
C    -0.497366  2.906671  1.549573
O    0.022736  3.283824  2.597370
H    0.357005  0.486804  1.817549
H    -2.072644  1.721665  0.637677
C    -2.238997  1.483632  2.774019
C    -3.517605  2.329626  2.810657
C    -3.315723  3.848965  2.837865
C    -4.609457  4.625910  3.098093
N    -5.140691  4.335149  4.437165
H    -1.601841  1.705880  3.642970
H    -2.513518  0.420595  2.841925
H    -4.096725  2.047844  3.701488
H    -4.150469  2.066429  1.943686
H    -2.888464  4.206956  1.887261
H    -2.573359  4.109758  3.610403
H    -5.374428  4.318612  2.366684
H    -4.419036  5.702241  2.920027
H    -6.056610  4.764386  4.563870
H    -4.530893  4.733791  5.152603
N    -0.271782  3.549733  0.365462
C    -0.672927  3.125221  -0.966489
H    0.397932  4.308868  0.442162
H    -0.292442  3.854448  -1.689245
H    -1.766598  3.095995  -1.075362
H    -0.262769  2.138901  -1.230054
