33
Energy: -18209.127904 eV PBE+vdW (tier 2 basis)
C    -0.064167  0.400680  0.344948
C    -0.369158  0.512394  1.830929
O    0.089285  1.431469  2.508540
H    -0.617163  -0.393217  -0.172309
H    1.011133  0.216280  0.223602
H    -0.285995  1.363010  -0.131215
N    -1.175477  -0.480665  2.319660
C    -1.605491  -0.771980  3.693972
C    -3.082023  -0.418586  4.007654
O    -3.793479  -1.289713  4.512776
H    -1.487521  -1.161954  1.637985
H    -1.639137  -1.868141  3.750842
C    -0.671841  -0.296364  4.822515
C    0.754194  -0.859510  4.763956
C    0.848981  -2.387004  4.740081
C    2.285818  -2.891042  4.861146
N    2.340063  -4.353249  4.730642
H    -1.156809  -0.626110  5.754979
H    -0.624874  0.797983  4.850762
H    1.291901  -0.477126  5.646676
H    1.278622  -0.438771  3.893383
H    0.427535  -2.794559  3.808090
H    0.246029  -2.810701  5.562919
H    2.722293  -2.508579  5.806141
H    2.888958  -2.462947  4.044810
H    3.305062  -4.680890  4.775673
H    1.850580  -4.795508  5.510425
N    -3.575379  0.827115  3.760655
C    -2.942846  2.006668  3.195640
H    -4.559972  0.894645  4.002295
H    -3.357420  2.899638  3.679908
H    -3.117073  2.089095  2.110798
H    -1.860985  2.002427  3.362031
