33
Energy: -18209.2373401 eV PBE+vdW (tier 2 basis)
C    -0.670884  0.009782  -0.495234
C    -0.135932  0.075190  0.921257
O    1.061807  0.240174  1.138399
H    -0.197924  0.811742  -1.071816
H    -1.756369  0.087191  -0.593806
H    -0.348577  -0.944970  -0.933484
N    -0.993343  -0.143467  1.987970
C    -2.456137  -0.061477  2.088908
C    -3.203731  -1.027161  1.135161
O    -4.309649  -0.755769  0.675981
H    -0.490693  -0.042237  2.866874
H    -2.678258  -0.481531  3.085031
C    -3.045204  1.361418  2.098699
C    -2.773203  2.250391  0.886383
C    -3.443554  3.620589  1.018723
C    -3.170885  4.562016  -0.156353
N    -3.666293  3.998506  -1.419844
H    -2.670002  1.860423  3.007588
H    -4.131441  1.246186  2.228527
H    -3.135957  1.769332  -0.030918
H    -1.688758  2.403176  0.761643
H    -3.107597  4.116892  1.944215
H    -4.534027  3.485197  1.128270
H    -2.083161  4.701537  -0.262748
H    -3.593627  5.557552  0.084014
H    -3.429911  4.608240  -2.202072
H    -4.685247  3.930722  -1.402033
N    -2.572234  -2.218128  0.938576
C    -3.107634  -3.257257  0.082939
H    -1.633637  -2.309769  1.311930
H    -3.114897  -4.225422  0.601035
H    -2.525802  -3.356827  -0.845822
H    -4.135253  -2.980071  -0.174995
