 29
Energy: -26512.10368315.7 eV PBE+vdW (tier 2 basis)
C   -0.076918   -0.170343  -0.064497
C   -0.123336   -0.193666   1.451424
O    0.844291   -0.532494   2.132191
H    0.747423    0.479797  -0.382464
H   -1.007786    0.177596  -0.528438
H    0.148142   -1.182083  -0.424445
N   -1.308310    0.210178   2.004612
C   -1.579347    0.087890   3.423513
C   -3.001032   -0.479313   3.566705
O   -3.854176   -0.287848   2.698818
H   -2.141013    0.309209   1.426971
H   -0.831659   -0.608967   3.834991
C   -1.483045    1.439113   4.174168
C   -0.082951    2.049910   4.132043
S    0.085543    3.597882   5.079458
C   -0.819903    4.757943   4.015963
H   -1.779859    1.291263   5.223191
H   -2.218518    2.127422   3.731120
H    0.245581    2.230115   3.099552
H    0.652342    1.366685   4.578746
H   -1.888431    4.518358   3.954295
H   -0.384482    4.789155   3.008768
H   -0.711469    5.746592   4.476895
N   -3.238249   -1.156139   4.721698
C   -4.540839   -1.690838   5.073789
H   -2.463823   -1.295235   5.359918
H   -4.916062   -1.242230   6.004038
H   -4.501539   -2.782082   5.194108
H   -5.228695   -1.448280   4.257400
