 29
Energy: -26512.18111515.7 eV PBE+vdW (tier 2 basis)
C    0.019279   -0.561338   0.212941
C    0.007915   -0.293560   1.704523
O    1.044967    0.015690   2.308422
H    0.696580   -1.401783   0.014681
H    0.430694    0.316230  -0.300472
H   -0.967253   -0.793440  -0.205577
N   -1.202366   -0.403900   2.314369
C   -1.485109   -0.367530   3.756464
C   -1.346501    1.003033   4.459657
O   -2.212895    1.351378   5.264508
H   -1.983320   -0.688223   1.735079
H   -2.556439   -0.588491   3.827976
C   -0.735045   -1.453244   4.550651
C   -0.967418   -2.878427   4.041377
S   -2.700656   -3.367763   3.750845
C   -3.405452   -3.183855   5.412737
H   -1.058446   -1.362730   5.597473
H    0.346071   -1.253684   4.535264
H   -0.505521   -3.599735   4.730836
H   -0.490874   -3.024712   3.061790
H   -4.436307   -3.550965   5.351076
H   -3.425209   -2.137667   5.741975
H   -2.856543   -3.795711   6.140137
N   -0.233083    1.715191   4.164439
C    0.053858    2.994957   4.780589
H    0.455207    1.269362   3.546354
H    0.316646    3.740378   4.018037
H    0.885290    2.919865   5.497528
H   -0.841071    3.325671   5.318320
