 29
Energy: -26512.05081615.7 eV PBE+vdW (tier 2 basis)
C   -2.613798   -1.608184  -0.449285
C   -2.434645   -1.600614   1.057381
O   -1.676742   -0.815872   1.622219
H   -3.111069   -0.675175  -0.745845
H   -3.202533   -2.455104  -0.823743
H   -1.626226   -1.615427  -0.924874
N   -3.177585   -2.531809   1.740933
C   -3.266043   -2.594331   3.194659
C   -2.486174   -3.773639   3.823791
O   -2.706526   -4.130845   4.978001
H   -3.821576   -3.108590   1.209878
H   -2.770746   -1.683728   3.571555
C   -4.722556   -2.599463   3.663789
C   -5.480354   -1.296607   3.401993
S   -4.897571    0.128079   4.394329
C   -4.042230    1.144897   3.155492
H   -4.716927   -2.828133   4.736889
H   -5.259280   -3.433829   3.175772
H   -6.539456   -1.437392   3.655304
H   -5.443283   -1.005049   2.342346
H   -4.728193    1.445080   2.352791
H   -3.158865    0.645668   2.741370
H   -3.718865    2.047536   3.688115
N   -1.541952   -4.340503   3.023777
C   -0.635013   -5.367467   3.496449
H   -1.396838   -3.928261   2.109987
H    0.389764   -4.982484   3.602385
H   -0.623015   -6.225779   2.811347
H   -0.989704   -5.695978   4.479196
