 29
Energy: -26512.06508315.7 eV PBE+vdW (tier 2 basis)
C   -1.713527   -1.247645   0.363423
C   -1.560698   -1.641200   1.820562
O   -0.571989   -1.362997   2.490274
H   -2.454246   -0.438600   0.277781
H   -2.068809   -2.083946  -0.253204
H   -0.751116   -0.894333  -0.015820
N   -2.634414   -2.347423   2.333021
C   -2.809637   -2.501760   3.773877
C   -2.706725   -3.957857   4.274268
O   -2.975083   -4.238579   5.441326
H   -3.492349   -2.282658   1.787477
H   -1.951586   -1.979473   4.229408
C   -4.114385   -1.866036   4.280931
C   -4.268790   -0.385536   3.912324
S   -5.159736   -0.207180   2.321783
C   -4.755764    1.510266   1.910649
H   -4.120102   -1.985389   5.371288
H   -4.982280   -2.441658   3.917713
H   -3.284914    0.097530   3.817367
H   -4.836249    0.150544   4.684315
H   -3.673113    1.647113   1.790066
H   -5.132953    2.198341   2.677700
H   -5.253203    1.736039   0.960401
N   -2.287177   -4.858389   3.347968
C   -2.045974   -6.251567   3.660754
H   -2.067775   -4.492228   2.427577
H   -2.371994   -6.420517   4.692917
H   -0.978130   -6.501536   3.581166
H   -2.615282   -6.911328   2.991687
