 29
Energy: -26512.11912015.7 eV PBE+vdW (tier 2 basis)
C   -1.113414    0.420163  -0.259597
C   -0.485862    0.573337   1.112764
O    0.578711    1.166280   1.284855
H   -2.070781   -0.114728  -0.248963
H   -0.409605   -0.114542  -0.909628
H   -1.264061    1.416942  -0.692175
N   -1.199597    0.025911   2.144383
C   -0.664729   -0.068036   3.488586
C   -0.980783   -1.481228   4.004707
O   -1.954454   -2.109671   3.586634
H   -1.973052   -0.609456   1.957247
H    0.422814    0.092255   3.414034
C   -1.268977    0.982400   4.452884
C   -0.954646    2.421450   4.045752
S   -1.581727    3.679213   5.203961
C   -3.361709    3.615764   4.860050
H   -0.884868    0.803530   5.468227
H   -2.356799    0.821057   4.493084
H   -1.334842    2.645843   3.039921
H    0.130984    2.587077   4.012747
H   -3.805845    2.652704   5.139983
H   -3.565807    3.828349   3.802554
H   -3.821592    4.400879   5.471489
N   -0.138477   -1.946063   4.965286
C   -0.324426   -3.221271   5.633090
H    0.657041   -1.372516   5.219451
H   -0.468947   -3.086422   6.714013
H    0.536264   -3.883588   5.467915
H   -1.218816   -3.688636   5.208747
