 29
Energy: -26512.01594515.7 eV PBE+vdW (tier 2 basis)
C    0.287616   -0.159191   0.329907
C   -0.182009    0.620542   1.548809
O    0.369552    1.658227   1.907030
H    1.201760    0.314075  -0.037547
H   -0.467447   -0.132851  -0.469308
H    0.494048   -1.214377   0.555184
N   -1.263306    0.123726   2.228651
C   -2.033386   -1.068922   1.943216
C   -3.490943   -0.785902   2.359709
O   -3.747355   -0.057128   3.317273
H   -1.608563    0.687650   3.004905
H   -2.005408   -1.268625   0.862978
C   -1.473050   -2.301862   2.700190
C   -2.218930   -3.617924   2.479766
S   -2.351745   -4.022317   0.697337
C   -3.298905   -5.564698   0.806945
H   -1.482037   -2.071595   3.776094
H   -0.418597   -2.417449   2.410699
H   -3.234264   -3.569886   2.900044
H   -1.683138   -4.436118   2.980545
H   -3.458227   -5.912215  -0.220016
H   -4.273578   -5.400187   1.283588
H   -2.738473   -6.329952   1.358191
N   -4.428064   -1.412920   1.600587
C   -5.845851   -1.351525   1.901583
H   -4.095510   -2.073108   0.896793
H   -6.421742   -1.106610   0.999870
H   -5.997208   -0.566775   2.649942
H   -6.216443   -2.303672   2.310557
