 29
Energy: -26512.17612815.7 eV PBE+vdW (tier 2 basis)
C    0.718899   -0.909074   0.819355
C    0.194853   -1.337235   2.173522
O   -0.241852   -2.477387   2.372645
H    1.050439    0.135774   0.783870
H   -0.066303   -1.063654   0.069296
H    1.561334   -1.558514   0.549868
N    0.241010   -0.395993   3.157431
C   -0.168546   -0.666865   4.536016
C   -1.709629   -0.533080   4.677557
O   -2.242580    0.434919   5.219957
H    0.530015    0.547228   2.923753
H    0.112929   -1.711979   4.735822
C    0.582701    0.249932   5.495528
C    0.374947   -0.062392   6.981367
S    0.886612   -1.732334   7.522828
C   -0.688933   -2.636200   7.499267
H    0.263185    1.291517   5.325230
H    1.654570    0.180524   5.257019
H   -0.672462    0.090233   7.270608
H    0.978582    0.633995   7.578083
H   -1.432973   -2.137163   8.132436
H   -0.474808   -3.625436   7.921101
H   -1.091054   -2.765678   6.487663
N   -2.380767   -1.589951   4.148582
C   -3.827795   -1.634008   4.073391
H   -1.821510   -2.249425   3.599406
H   -4.229687   -0.881608   4.760070
H   -4.195550   -2.626021   4.365746
H   -4.190625   -1.410124   3.058584
