 29
Energy: -26512.01388415.7 eV PBE+vdW (tier 2 basis)
C    0.501604    0.267832   0.056728
C    0.207243    0.230218   1.544740
O    1.068863    0.470802   2.391519
H    1.314830   -0.436316  -0.158407
H    0.859518    1.270764  -0.207494
H   -0.364308    0.020497  -0.569282
N   -1.081087   -0.073802   1.878056
C   -1.495032   -0.261721   3.255291
C   -2.689332   -1.231534   3.208358
O   -3.295822   -1.425272   2.147268
H   -1.749408   -0.416456   1.189519
H   -0.657925   -0.730914   3.797183
C   -1.774505    1.094652   3.950489
C   -2.961643    1.886519   3.402361
S   -4.573406    1.360773   4.109816
C   -5.537166    0.975514   2.619991
H   -0.854284    1.683922   3.823215
H   -1.892413    0.945436   5.032825
H   -3.023546    1.796266   2.309742
H   -2.833011    2.951924   3.632265
H   -6.528601    0.666485   2.972686
H   -5.078343    0.151158   2.060697
H   -5.654821    1.862123   1.985143
N   -3.009220   -1.920167   4.335340
C   -2.536329   -1.691300   5.688273
H   -3.857714   -2.468201   4.226395
H   -3.065005   -0.857140   6.176245
H   -1.460807   -1.479251   5.692960
H   -2.694980   -2.601816   6.277437
