 29
Energy: -26512.22399915.7 eV PBE+vdW (tier 2 basis)
C    1.875856   -0.699623   1.908685
C    1.224310   -0.513290   3.262458
O    1.682784   -1.045809   4.285367
H    1.896098   -1.769625   1.666627
H    2.917129   -0.359539   1.971512
H    1.368075   -0.155495   1.103448
N    0.112493    0.263588   3.277470
C   -0.579535    0.659827   4.504401
C   -1.553986   -0.444792   5.014348
O   -2.769483   -0.263068   5.110287
H   -0.233787    0.672278   2.403980
H    0.197241    0.765943   5.279437
C   -1.283915    2.011286   4.337504
C   -2.317001    2.116328   3.206697
S   -1.520719    2.428185   1.582383
C   -2.912062    2.072026   0.478077
H   -0.521048    2.797277   4.226024
H   -1.809744    2.214187   5.279969
H   -3.004127    2.949077   3.407836
H   -2.910601    1.195809   3.147562
H   -2.555669    2.231837  -0.545923
H   -3.747518    2.755960   0.673191
H   -3.248108    1.033314   0.584923
N   -0.916530   -1.590839   5.356705
C   -1.618923   -2.770743   5.818113
H    0.099136   -1.616239   5.206234
H   -1.533317   -3.596224   5.096024
H   -2.676720   -2.514056   5.938863
H   -1.219330   -3.109583   6.783799
