 29
Energy: -26511.92896215.7 eV PBE+vdW (tier 2 basis)
C    0.336259   -0.438165   0.752585
C    0.043841    0.545386   1.874300
O    0.803517    1.478446   2.123078
H    1.049881    0.032491   0.070825
H   -0.558371   -0.742928   0.193344
H    0.801289   -1.347152   1.159847
N   -1.095201    0.350121   2.611325
C   -2.109012   -0.675015   2.483146
C   -3.368522   -0.139532   3.199697
O   -3.304301    0.778340   4.014618
H   -1.294485    1.051275   3.326484
H   -2.358635   -0.828967   1.419766
C   -1.684605   -2.047778   3.075068
C   -1.403829   -2.010982   4.576387
S   -0.749079   -3.571497   5.247248
C    0.956392   -3.517064   4.631523
H   -0.788639   -2.379217   2.532462
H   -2.462779   -2.796902   2.864683
H   -2.325757   -1.827305   5.145537
H   -0.708026   -1.198275   4.828338
H    1.458369   -4.403432   5.036449
H    1.476414   -2.620413   4.991967
H    1.005512   -3.562293   3.536258
N   -4.522295   -0.788258   2.885679
C   -5.796620   -0.479606   3.509775
H   -4.488569   -1.520041   2.185965
H   -6.531191   -0.144194   2.765089
H   -5.625532    0.328421   4.228098
H   -6.199418   -1.352756   4.041178
