 29
Energy: -26512.02632515.7 eV PBE+vdW (tier 2 basis)
C   -1.002923   -0.730001  -0.249075
C   -0.643327   -0.694003   1.223201
O    0.452497   -1.103859   1.624962
H   -0.959522   -1.771160  -0.592654
H   -0.245174   -0.169188  -0.809872
H   -1.994665   -0.321620  -0.478080
N   -1.598435   -0.181331   2.048947
C   -1.558009   -0.101260   3.517988
C   -0.566788    0.943152   4.092144
O   -0.963633    1.744026   4.944849
H   -2.436420    0.177894   1.609499
H   -2.535315    0.305100   3.808276
C   -1.421363   -1.501362   4.157386
C   -1.463543   -1.502274   5.690147
S    0.187936   -1.257259   6.454198
C   -0.169189    0.029780   7.681227
H   -0.501340   -1.984297   3.802102
H   -2.259548   -2.106640   3.776909
H   -1.860233   -2.462487   6.044483
H   -2.123485   -0.710484   6.069604
H   -0.884080   -0.320623   8.436189
H   -0.533882    0.937224   7.184453
H    0.783995    0.247158   8.178577
N    0.694712    0.899654   3.612883
C    1.752241    1.695346   4.201667
H    0.926000    0.124574   2.983162
H    2.583048    1.776442   3.492124
H    2.120066    1.240117   5.135879
H    1.373848    2.696714   4.436175
