 29
Energy: -26511.98494215.7 eV PBE+vdW (tier 2 basis)
C    0.313119   -1.420666   0.379727
C    0.031303   -0.259681   1.308638
O    0.915529    0.178543   2.058790
H    1.334342   -1.333405  -0.004851
H   -0.390210   -1.496203  -0.458744
H    0.245921   -2.343489   0.973096
N   -1.234926    0.238258   1.238690
C   -1.967045    1.145808   2.144314
C   -1.385661    2.556559   2.426273
O   -2.186621    3.461682   2.674766
H   -1.838618   -0.247830   0.586114
H   -2.879186    1.396472   1.587133
C   -2.445691    0.486731   3.460870
C   -1.366880   -0.102233   4.378924
S   -1.109126   -1.877495   4.014680
C    0.525407   -2.115876   4.756733
H   -3.186912   -0.291015   3.217253
H   -2.995503    1.272445   3.998582
H   -1.671432   -0.006758   5.429705
H   -0.407477    0.416401   4.254107
H    0.787638   -3.171131   4.616296
H    0.511726   -1.898449   5.832480
H    1.268956   -1.487675   4.249619
N   -0.047341    2.715089   2.409041
C    0.558320    4.001036   2.698927
H    0.530983    1.866695   2.317600
H    1.619015    3.960011   2.429062
H    0.469971    4.265444   3.763858
H    0.066627    4.792482   2.119589
