 29
Energy: -26512.19822315.7 eV PBE+vdW (tier 2 basis)
C    0.149232   -4.924917   3.213396
C   -0.595910   -3.632431   3.484266
O   -1.579773   -3.288687   2.821740
H    0.985266   -5.100894   3.900803
H    0.528697   -4.903383   2.184062
H   -0.556177   -5.762048   3.283824
N   -0.118553   -2.879806   4.512472
C   -0.659461   -1.572073   4.806624
C    0.424916   -0.811881   5.594470
O    1.436919   -1.379815   6.016684
H    0.762903   -3.083999   4.984003
H   -0.818862   -1.047866   3.850976
C   -2.022574   -1.625431   5.558767
C   -3.177829   -0.980235   4.795575
S   -2.994036    0.830216   4.526084
C   -2.728354    0.918752   2.730752
H   -1.926696   -1.169754   6.555167
H   -2.271665   -2.683301   5.724428
H   -4.118216   -1.116719   5.344902
H   -3.287101   -1.453701   3.811417
H   -2.603744    1.981162   2.490319
H   -3.601711    0.532819   2.192481
H   -1.830788    0.371930   2.419824
N    0.167925    0.502277   5.773648
C    1.047363    1.364363   6.540915
H   -0.721886    0.867487   5.416916
H    0.762345    2.406856   6.364280
H    2.088966    1.217675   6.229528
H    0.985805    1.156407   7.619677
