 29
Energy: -26512.04139315.7 eV PBE+vdW (tier 2 basis)
C   -0.089436    0.123235  -0.081715
C   -0.122750    0.186110   1.433430
O    0.868401    0.478554   2.102229
H    0.691815   -0.583405  -0.387428
H    0.192627    1.110561  -0.468351
H   -1.043388   -0.177352  -0.531927
N   -1.330807   -0.099151   2.004282
C   -1.520874   -0.118285   3.440738
C   -2.537684   -1.227031   3.743609
O   -3.509408   -1.415204   3.011120
H   -2.130398   -0.388994   1.448247
H   -0.540252   -0.337786   3.890937
C   -2.010880    1.256578   3.957123
C   -2.125015    1.343332   5.476732
S   -2.552992    3.050674   5.955829
C   -2.674337    2.844301   7.753128
H   -2.981127    1.480649   3.490225
H   -1.289683    2.003915   3.596856
H   -1.168774    1.071016   5.952460
H   -2.904965    0.667105   5.856506
H   -2.931386    3.827189   8.164678
H   -1.717679    2.521756   8.184445
H   -3.465294    2.132051   8.022328
N   -2.292382   -1.945688   4.872759
C   -3.178805   -2.988870   5.354407
H   -1.445650   -1.741544   5.389873
H   -3.560708   -2.753446   6.357553
H   -2.667204   -3.960483   5.386796
H   -4.020641   -3.053410   4.657331
