 29
Energy: -26512.12171515.7 eV PBE+vdW (tier 2 basis)
C   -0.825427   -2.074345   0.154421
C   -1.522502   -1.312213   1.263280
O   -2.758210   -1.251613   1.319536
H   -1.100068   -1.619551  -0.805806
H   -1.198575   -3.105612   0.145878
H    0.267693   -2.087410   0.240372
N   -0.704434   -0.717372   2.173990
C   -1.098326    0.169856   3.278829
C   -1.805187   -0.548310   4.456621
O   -1.366818   -0.427118   5.604465
H    0.291170   -0.859659   2.057903
H   -0.154444    0.526975   3.710469
C   -1.868494    1.411825   2.792223
C   -1.983073    2.511432   3.851690
S   -0.374251    3.256220   4.323537
C   -0.191908    2.700337   6.045074
H   -2.874737    1.129170   2.451953
H   -1.336663    1.808899   1.914324
H   -2.463450    2.143290   4.767953
H   -2.610891    3.322564   3.461105
H    0.810308    3.016265   6.358950
H   -0.277167    1.609962   6.122606
H   -0.932359    3.185492   6.692954
N   -2.919998   -1.244071   4.131035
C   -3.699944   -1.972137   5.111613
H   -3.161631   -1.294338   3.133618
H   -3.269595   -1.783207   6.100705
H   -3.678264   -3.053598   4.913632
H   -4.746757   -1.637732   5.105071
