 29
Energy: -26512.01331915.7 eV PBE+vdW (tier 2 basis)
C    0.458796    0.349508   0.974804
C   -0.040442   -0.068879   2.344610
O    0.650183   -0.716469   3.124885
H    1.264535    1.083944   1.105435
H   -0.316823    0.787554   0.334007
H    0.892271   -0.523291   0.473009
N   -1.326893    0.323114   2.645186
C   -1.901814    0.182030   3.977529
C   -3.118684   -0.769437   4.036504
O   -3.843356   -0.801808   5.027560
H   -1.783664    0.966090   2.005926
H   -1.118934   -0.313335   4.570510
C   -2.253800    1.545849   4.590080
C   -1.053646    2.460566   4.858470
S   -0.220772    2.302175   6.472100
C    0.636013    0.704593   6.365090
H   -2.815174    1.366295   5.515172
H   -2.949540    2.059180   3.901587
H   -1.389922    3.506670   4.873888
H   -0.301142    2.389292   4.057677
H   -0.046275   -0.142695   6.499704
H    1.360387    0.701015   7.188420
H    1.176212    0.597986   5.416715
N   -3.290145   -1.564171   2.944764
C   -4.310252   -2.591591   2.879631
H   -2.597056   -1.493252   2.208589
H   -3.869649   -3.598812   2.906545
H   -4.911339   -2.491379   1.965849
H   -4.960075   -2.468740   3.752754
