 29
Energy: -26512.05738615.7 eV PBE+vdW (tier 2 basis)
C    1.373942   -1.413947   2.903104
C   -0.030956   -1.482083   3.470976
O   -0.331908   -0.965756   4.547058
H    2.071636   -1.830950   3.639575
H    1.643330   -0.360428   2.756871
H    1.491885   -1.947827   1.952249
N   -0.940654   -2.151754   2.702406
C   -2.315580   -2.339152   3.120084
C   -2.754792   -3.718686   2.611322
O   -2.409902   -4.125917   1.501635
H   -0.672355   -2.618812   1.840798
H   -2.325012   -2.294406   4.220244
C   -3.225676   -1.215467   2.566856
C   -4.669933   -1.290802   3.055336
S   -5.587139    0.169232   2.464111
C   -7.230604   -0.209661   3.125513
H   -3.194769   -1.248857   1.467978
H   -2.777295   -0.262474   2.881905
H   -4.704869   -1.309361   4.156927
H   -5.170253   -2.195219   2.678899
H   -7.216862   -0.271960   4.221570
H   -7.627996   -1.142004   2.703231
H   -7.886188    0.617453   2.829449
N   -3.555381   -4.420759   3.458501
C   -4.123723   -5.712649   3.121008
H   -3.755052   -4.016881   4.365721
H   -3.772808   -5.974679   2.117548
H   -5.222079   -5.675624   3.118312
H   -3.795007   -6.486569   3.827816
