 29
Energy: -26512.00657115.7 eV PBE+vdW (tier 2 basis)
C   -1.424195   -0.212892   0.061586
C   -0.729401   -0.124570   1.402526
O    0.401484    0.365606   1.519785
H   -1.099134   -1.143370  -0.426543
H   -1.116120    0.630894  -0.563118
H   -2.518626   -0.232184   0.141561
N   -1.424994   -0.646775   2.450459
C   -0.900413   -0.979247   3.783570
C   -0.663011    0.238786   4.714455
O   -1.093716    0.210944   5.868772
H   -2.348469   -1.002737   2.239409
H   -1.710079   -1.521230   4.288780
C    0.353230   -1.879404   3.752961
C    0.130315   -3.362251   3.444591
S   -0.429406   -3.819007   1.759148
C   -2.207540   -4.060194   2.011064
H    0.803311   -1.828036   4.757519
H    1.089291   -1.453020   3.059010
H   -0.573191   -3.817209   4.157517
H    1.086326   -3.888894   3.569986
H   -2.731632   -3.135197   2.285945
H   -2.398889   -4.825275   2.774045
H   -2.609655   -4.413774   1.054132
N    0.065181    1.247288   4.180036
C    0.409226    2.439140   4.928572
H    0.393601    1.125266   3.213977
H    0.034190    3.341784   4.425872
H    1.498555    2.532358   5.046006
H   -0.049240    2.364201   5.920380
