 29
Energy: -26511.95619415.7 eV PBE+vdW (tier 2 basis)
C    0.652695    0.220349   0.342947
C   -0.197455   -0.915338   0.876914
O   -0.174756   -2.040063   0.375658
H    1.700838   -0.102042   0.329419
H    0.569558    1.146405   0.924632
H    0.358326    0.422047  -0.694766
N   -0.973334   -0.606551   1.962025
C   -1.916932   -1.557328   2.532526
C   -3.326471   -1.230986   1.993206
O   -3.892854   -0.189015   2.327980
H   -1.074975    0.365689   2.233832
H   -1.576619   -2.542953   2.194761
C   -1.900712   -1.497216   4.064840
C   -2.821579   -2.543004   4.690440
S   -2.655960   -2.495926   6.504273
C   -3.893912   -3.737521   6.959855
H   -2.212412   -0.493569   4.389837
H   -0.865160   -1.654814   4.399530
H   -2.561989   -3.552287   4.333555
H   -3.869819   -2.340432   4.425387
H   -3.883975   -3.803962   8.053963
H   -3.644868   -4.723146   6.545265
H   -4.898466   -3.438246   6.633723
N   -3.894118   -2.118352   1.132600
C   -3.338645   -3.362993   0.612898
H   -4.819134   -1.838828   0.819446
H   -3.906226   -3.644938  -0.280713
H   -3.417132   -4.187859   1.338017
H   -2.288778   -3.234791   0.320230
