 29
Energy: -26512.14076715.7 eV PBE+vdW (tier 2 basis)
C    1.268787   -0.476058   0.908426
C    0.605470   -0.778855   2.235597
O    1.189282   -1.402284   3.129148
H    2.178155    0.107898   1.097724
H    0.629250    0.077842   0.210455
H    1.577170   -1.419886   0.442233
N   -0.667618   -0.314551   2.385893
C   -1.432328   -0.488341   3.620600
C   -2.096435   -1.893551   3.643972
O   -3.290964   -2.063959   3.397901
H   -1.134951    0.105964   1.590422
H   -0.705421   -0.438504   4.444479
C   -2.464658    0.629321   3.762322
C   -3.150165    0.672480   5.127956
S   -1.959345    1.102082   6.446627
C   -3.023690    0.880025   7.895207
H   -3.246808    0.488133   3.000420
H   -1.967298    1.591309   3.564920
H   -3.606172   -0.300639   5.355171
H   -3.948934    1.427294   5.113746
H   -3.374630   -0.156856   7.975227
H   -3.882898    1.562773   7.868124
H   -2.413210    1.116095   8.774375
N   -1.219325   -2.883814   3.948496
C   -1.583869   -4.286219   3.919359
H   -0.232899   -2.616412   3.991758
H   -1.177745   -4.793395   3.030945
H   -2.676424   -4.354537   3.891416
H   -1.211326   -4.798355   4.816080
