 29
Energy: -26512.07543615.7 eV PBE+vdW (tier 2 basis)
C   -0.694211    3.853890   0.708824
C    0.082959    2.668708   1.254988
O    1.277168    2.742546   1.535389
H   -1.575745    4.086025   1.322582
H   -1.045393    3.664987  -0.315861
H   -0.024227    4.717176   0.696836
N   -0.609957    1.494818   1.438214
C   -2.010501    1.228329   1.148758
C   -2.977036    1.447602   2.339861
O   -4.191003    1.323776   2.181732
H   -0.060796    0.708512   1.798399
H   -2.349100    1.941628   0.384649
C   -2.226035   -0.182080   0.562871
C   -2.053851   -1.360321   1.525687
S   -0.389017   -1.654214   2.229608
C    0.545216   -2.123817   0.745333
H   -1.574278   -0.295665  -0.315314
H   -3.262103   -0.217873   0.196593
H   -2.377633   -2.288672   1.033605
H   -2.696393   -1.231172   2.408280
H    0.626834   -1.296452   0.030034
H    1.552034   -2.388666   1.087529
H    0.092581   -2.998184   0.260791
N   -2.384336    1.764769   3.518796
C   -3.131471    2.004605   4.736991
H   -1.372132    1.839337   3.518911
H   -2.835747    1.300244   5.526651
H   -4.193415    1.862155   4.508968
H   -2.978156    3.029574   5.102397
