 29
Energy: -26512.24322015.7 eV PBE+vdW (tier 2 basis)
C    0.347868   -0.087327   0.054176
C    0.204656    0.080099   1.554832
O    1.161228    0.367371   2.279918
H    1.069603   -0.890096  -0.142544
H    0.763723    0.836225  -0.367225
H   -0.595789   -0.321182  -0.453269
N   -1.049886   -0.098240   2.051018
C   -1.322035   -0.052419   3.469815
C   -2.685670   -0.740906   3.675050
O   -3.436408   -0.974595   2.723454
H   -1.835348   -0.407652   1.479496
H   -0.547671   -0.639680   3.991635
C   -1.291558    1.395406   4.045907
C   -0.317787    1.576372   5.209120
S   -0.722585    0.692435   6.758661
C   -2.175732    1.627550   7.318996
H   -2.304736    1.720489   4.324936
H   -0.966809    2.064513   3.237315
H   -0.199351    2.640673   5.457208
H    0.670373    1.192517   4.919279
H   -2.475753    1.193589   8.279745
H   -3.014409    1.544611   6.615944
H   -1.921254    2.683730   7.471514
N   -2.969255   -1.036553   4.964575
C   -4.223266   -1.629613   5.382962
H   -2.263094   -0.790451   5.667660
H   -4.059195   -2.602098   5.867763
H   -4.843132   -1.777593   4.492512
H   -4.757307   -0.973325   6.085401
