 29
Energy: -26512.01321615.7 eV PBE+vdW (tier 2 basis)
C    2.254992   -0.375182   2.003593
C    1.527298    0.216605   3.195808
O    2.032888    1.072873   3.921882
H    2.270696    0.372847   1.199013
H    1.790152   -1.291470   1.618299
H    3.293199   -0.581192   2.285633
N    0.256164   -0.241202   3.383890
C   -0.578727    0.217706   4.469333
C   -1.651844   -0.861134   4.690550
O   -1.892914   -1.717086   3.836799
H   -0.117941   -1.029972   2.861820
H    0.053107    0.303012   5.369548
C   -1.205232    1.615956   4.237070
C   -2.342899    1.731414   3.213591
S   -1.917256    1.958999   1.452750
C   -1.795932    0.270007   0.801775
H   -0.386870    2.300116   3.975968
H   -1.594667    1.964717   5.208751
H   -2.911603    2.643942   3.440532
H   -3.056845    0.897615   3.290133
H   -0.801616   -0.162374   0.955902
H   -1.990615    0.342740  -0.274835
H   -2.553986   -0.379058   1.255655
N   -2.325205   -0.769039   5.867573
C   -3.414334   -1.657411   6.229671
H   -2.039561   -0.054408   6.526471
H   -3.171888   -2.235136   7.132148
H   -3.567317   -2.350244   5.396120
H   -4.342246   -1.095643   6.404555
