 29
Energy: -26512.01926015.7 eV PBE+vdW (tier 2 basis)
C    0.642252    0.549255   0.866795
C    0.070511    0.052141   2.181085
O    0.779655   -0.373000   3.086131
H    1.229586    1.456103   1.061378
H   -0.118237    0.776422   0.109015
H    1.331397   -0.206078   0.471333
N   -1.304718    0.097721   2.276650
C   -2.002447   -0.167935   3.528620
C   -2.995065   -1.348717   3.449027
O   -3.861703   -1.502338   4.306725
H   -1.811673    0.576378   1.540083
H   -1.208042   -0.495971   4.219213
C   -2.663431    1.088361   4.124900
C   -3.790222    1.670918   3.270791
S   -4.564683    3.170521   3.953369
C   -3.243355    4.388853   3.711355
H   -1.870690    1.832991   4.283563
H   -3.068589    0.821700   5.108492
H   -4.616794    0.950950   3.194573
H   -3.461760    1.904043   2.244127
H   -3.650461    5.351646   4.041641
H   -2.967280    4.470929   2.651467
H   -2.354530    4.163902   4.313342
N   -2.808860   -2.195900   2.399768
C   -3.569607   -3.418998   2.239013
H   -2.028405   -2.001992   1.782653
H   -2.949218   -4.307714   2.425640
H   -3.992800   -3.487455   1.227943
H   -4.384832   -3.400736   2.970306
