 29
Energy: -26512.10822715.7 eV PBE+vdW (tier 2 basis)
C   -2.280861    0.118545   0.439861
C   -1.370020    0.138389   1.648912
O   -0.194691    0.516581   1.575620
H   -2.335720    1.133308   0.026407
H   -3.296643   -0.233232   0.657365
H   -1.835156   -0.523795  -0.329711
N   -1.924679   -0.279252   2.821394
C   -1.194779   -0.291740   4.090173
C   -0.361763   -1.596907   4.228363
O   -0.674711   -2.501561   4.998983
H   -2.858323   -0.675287   2.812045
H   -0.489488    0.552421   4.038188
C   -2.151345   -0.108739   5.266538
C   -2.773296    1.286054   5.303842
S   -4.007826    1.372058   6.641851
C   -4.531657    3.097648   6.467061
H   -1.597220   -0.303353   6.193967
H   -2.933322   -0.883313   5.226268
H   -3.266884    1.526482   4.350035
H   -1.997034    2.046075   5.481762
H   -5.294442    3.273784   7.234284
H   -4.974780    3.284688   5.480104
H   -3.695634    3.788671   6.636351
N    0.724274   -1.613128   3.410347
C    1.595681   -2.765580   3.293573
H    0.811858   -0.839010   2.747705
H    1.452265   -3.287187   2.335240
H    1.355928   -3.456989   4.108256
H    2.648268   -2.463630   3.374217
