 29
Energy: -26512.02527315.7 eV PBE+vdW (tier 2 basis)
C    2.512188   -0.200464   2.210568
C    1.711185    0.337414   3.379681
O    2.118468    1.247281   4.103993
H    3.577582   -0.166516   2.459289
H    2.341901    0.455746   1.345138
H    2.230163   -1.222357   1.926877
N    0.486249   -0.234754   3.549549
C   -0.454762    0.226202   4.543854
C   -1.500367   -0.883710   4.727988
O   -1.666941   -1.765911   3.883117
H    0.168374   -1.002871   2.965912
H    0.097080    0.371256   5.487662
C   -1.110648    1.591177   4.205748
C   -2.132780    1.637839   3.065477
S   -1.465783    1.521465   1.360360
C   -1.990739   -0.142237   0.860908
H   -0.291176    2.296472   4.012092
H   -1.613770    1.954815   5.118095
H   -2.650421    2.605568   3.111434
H   -2.906393    0.864257   3.173807
H   -1.630175   -0.914832   1.549686
H   -1.557767   -0.309666  -0.132695
H   -3.083310   -0.205583   0.781676
N   -2.243293   -0.788512   5.862794
C   -3.317946   -1.708689   6.186267
H   -2.010250   -0.058949   6.525975
H   -3.090749   -2.283092   7.095058
H   -3.422807   -2.403260   5.346698
H   -4.266115   -1.173089   6.330992
