 29
Energy: -26512.05596915.7 eV PBE+vdW (tier 2 basis)
C   -1.430233   -2.600902   0.283315
C   -1.420750   -1.411120   1.220081
O   -1.546286   -0.252695   0.815157
H   -0.959006   -3.494868   0.710398
H   -0.928014   -2.327466  -0.650205
H   -2.478172   -2.840147   0.052944
N   -1.299488   -1.720677   2.542011
C   -1.349741   -0.731215   3.595883
C   -0.407077   -1.208577   4.711870
O   -0.260364   -2.406291   4.953516
H   -1.171189   -2.680965   2.847644
H   -0.997020    0.216246   3.158981
C   -2.763653   -0.505847   4.189187
C   -3.799676    0.027504   3.189832
S   -4.675305   -1.328663   2.327885
C   -5.281056   -0.418292   0.883506
H   -2.664814    0.221422   5.010394
H   -3.113476   -1.442190   4.651527
H   -3.309239    0.648742   2.427910
H   -4.545605    0.640989   3.714015
H   -5.956939    0.396509   1.174371
H   -5.840122   -1.134466   0.269794
H   -4.438356   -0.023701   0.301286
N    0.197435   -0.215360   5.419743
C    1.063972   -0.469052   6.555928
H    0.058844    0.739906   5.112567
H    1.082327   -1.551351   6.720371
H    0.685834    0.025639   7.461144
H    2.088168   -0.122113   6.360942
