 29
Energy: -26512.30004415.7 eV PBE+vdW (tier 2 basis)
C   -0.601056   -0.446617  -0.114510
C   -1.145662   -0.247541   1.286498
O   -2.229231    0.305547   1.496631
H   -1.326602   -1.027805  -0.697049
H    0.370022   -0.955606  -0.140186
H   -0.505248    0.534134  -0.596846
N   -0.363836   -0.721817   2.295239
C   -0.720296   -0.550965   3.688299
C    0.584184   -0.570275   4.496991
O    1.571048   -1.198929   4.105674
H    0.549538   -1.137760   2.127898
H   -1.209524    0.427626   3.796412
C   -1.716801   -1.644161   4.141477
C   -2.305326   -1.494355   5.547695
S   -2.895774    0.172118   6.012648
C   -4.049809    0.549758   4.661462
H   -1.221203   -2.625023   4.071304
H   -2.528444   -1.646008   3.401135
H   -1.560955   -1.726694   6.322213
H   -3.132694   -2.206892   5.674958
H   -4.855495   -0.194515   4.628104
H   -3.548479    0.609321   3.686932
H   -4.483907    1.527022   4.902130
N    0.533352    0.138761   5.651887
C    1.629063    0.188370   6.599992
H   -0.346077    0.610436   5.868328
H    1.329735   -0.222970   7.574416
H    1.978707    1.219681   6.745609
H    2.450770   -0.411840   6.195660
