 29
Energy: -26512.22143815.7 eV PBE+vdW (tier 2 basis)
C    0.013856    0.888132  -0.767875
C    0.001449    0.877024   0.745964
O    0.561959    1.764627   1.408763
H   -0.483955    1.802157  -1.116488
H   -0.484269    0.018698  -1.213246
H    1.053328    0.930145  -1.115577
N   -0.653486   -0.161077   1.320082
C   -0.887344   -0.292278   2.759700
C    0.343395   -0.833622   3.544560
O    0.281273   -1.822068   4.279520
H   -1.063847   -0.898356   0.738465
H   -1.053276    0.730390   3.139241
C   -2.164953   -1.102888   3.013153
C   -2.173341   -2.602983   2.686017
S   -1.786452   -3.112533   0.962063
C   -0.021895   -3.535012   1.095742
H   -2.982011   -0.601406   2.472723
H   -2.400530   -1.018122   4.084589
H   -3.183191   -2.992843   2.870465
H   -1.480645   -3.140052   3.342964
H    0.263617   -3.960590   0.126446
H    0.131801   -4.287661   1.877301
H    0.603074   -2.658067   1.301423
N    1.465173   -0.099455   3.358267
C    2.715300   -0.422928   4.017299
H    1.381107    0.745398   2.779617
H    3.547175   -0.004479   3.439618
H    2.826891   -1.511747   4.082079
H    2.757698   -0.019872   5.041185
