 29
Energy: -26512.06656815.7 eV PBE+vdW (tier 2 basis)
C   -2.842767    0.803739  -0.112618
C   -1.931248    0.935282   1.093438
O   -1.063151    1.805913   1.167404
H   -2.223334    0.653102  -1.005544
H   -3.388026    1.746055  -0.248652
H   -3.564151   -0.018089  -0.030651
N   -2.160166    0.036140   2.097801
C   -1.269404   -0.086750   3.237663
C   -1.525353   -1.497204   3.819647
O   -2.122615   -2.348685   3.155210
H   -2.690115   -0.815825   1.911042
H   -0.225092   -0.074400   2.874297
C   -1.413489    1.093455   4.220447
C   -2.740876    1.141708   4.997294
S   -2.624051    0.714277   6.769974
C   -1.833693    2.213471   7.416128
H   -1.289947    2.001095   3.615523
H   -0.559957    1.091180   4.915888
H   -3.467992    0.428058   4.584473
H   -3.209697    2.132092   4.927967
H   -2.477364    3.089718   7.267162
H   -0.853010    2.390984   6.957043
H   -1.693067    2.054802   8.491520
N   -1.015647   -1.730264   5.054082
C   -1.227626   -2.984531   5.754752
H   -0.772250   -0.922140   5.621020
H   -1.939276   -2.855728   6.583188
H   -0.280180   -3.366573   6.156669
H   -1.636455   -3.707884   5.042832
