 29
Energy: -26512.01162215.7 eV PBE+vdW (tier 2 basis)
C    0.590762   -0.376650   0.179517
C    0.061188   -0.551143   1.589965
O    0.575862   -1.333607   2.388031
H    1.654462   -0.114952   0.233857
H    0.062293    0.389724  -0.400534
H    0.516092   -1.337479  -0.345175
N   -1.011761    0.237655   1.912497
C   -1.708011    0.118982   3.185836
C   -2.965002   -0.752498   2.978586
O   -3.899968   -0.336474   2.288321
H   -1.495027    0.730496   1.168558
H   -0.998681   -0.360783   3.868850
C   -2.101657    1.505940   3.712372
C   -2.859320    1.484891   5.038669
S   -1.836973    0.787934   6.384364
C   -3.039724    0.857508   7.736923
H   -2.750726    1.989860   2.966204
H   -1.187667    2.110673   3.802117
H   -3.780577    0.890953   4.946241
H   -3.145682    2.509873   5.313745
H   -2.537937    0.461484   8.627255
H   -3.919695    0.237980   7.520429
H   -3.353021    1.890203   7.938070
N   -2.982896   -1.978256   3.561423
C   -1.945654   -2.610276   4.373291
H   -3.833054   -2.501515   3.374499
H   -2.209200   -3.666179   4.496687
H   -1.872551   -2.148798   5.368945
H   -0.967387   -2.555596   3.878313
