 29
Energy: -26512.01762215.7 eV PBE+vdW (tier 2 basis)
C   -2.494823    1.373604   0.444403
C   -1.386076    0.855950   1.338336
O   -0.206364    1.179861   1.149723
H   -2.321515    1.003248  -0.574278
H   -2.437727    2.467997   0.408036
H   -3.501008    1.074571   0.761991
N   -1.779166    0.023313   2.342312
C   -0.919931   -0.714697   3.283444
C   -0.202794    0.141827   4.356523
O   -0.263326   -0.204855   5.537597
H   -2.775032   -0.125376   2.443790
H   -1.613690   -1.319272   3.876945
C    0.080984   -1.651291   2.573551
C   -0.581768   -2.814011   1.819762
S   -0.645532   -4.417136   2.684700
C   -1.680590   -4.058390   4.130664
H    0.770661   -2.047420   3.331906
H    0.683223   -1.052690   1.877114
H   -0.008156   -3.056081   0.914890
H   -1.593091   -2.541203   1.479397
H   -2.665722   -3.672960   3.833857
H   -1.196428   -3.366515   4.830549
H   -1.825186   -5.019018   4.639206
N    0.496141    1.205727   3.894159
C    1.257786    2.075188   4.768518
H    0.492308    1.363091   2.880154
H    2.333037    2.019072   4.545283
H    1.093757    1.749734   5.801211
H    0.933028    3.119732   4.663257
