 29
Energy: -26512.16121615.7 eV PBE+vdW (tier 2 basis)
C    0.963013   -2.848342   1.102187
C    0.493167   -2.568682   2.513824
O    0.520132   -3.437635   3.393894
H    2.015998   -3.154644   1.139089
H    0.865828   -1.990520   0.425775
H    0.390904   -3.692375   0.697955
N    0.047217   -1.304330   2.756112
C   -0.384682   -0.853926   4.079839
C   -1.859101   -1.269785   4.336847
O   -2.790493   -0.466150   4.292451
H   -0.032669   -0.653553   1.982853
H    0.259013   -1.377461   4.803011
C   -0.175408    0.650510   4.215513
C   -0.418231    1.211059   5.620780
S    0.643652    0.526620   6.944935
C   -0.436137   -0.740822   7.674916
H   -0.856895    1.174192   3.524609
H    0.857115    0.875320   3.909010
H   -1.466912    1.083920   5.917420
H   -0.213825    2.289705   5.613084
H   -1.384680   -0.299663   8.004987
H    0.098789   -1.122734   8.552605
H   -0.633461   -1.576120   6.992983
N   -1.992008   -2.593589   4.614577
C   -3.284717   -3.227108   4.784970
H   -1.156785   -3.169553   4.473284
H   -3.266988   -3.906479   5.646968
H   -3.578817   -3.800175   3.892394
H   -4.030268   -2.443582   4.956520
