 29
Energy: -26512.25440215.7 eV PBE+vdW (tier 2 basis)
C   -2.329266   -3.578545  -1.128749
C   -2.517484   -2.597244   0.012261
O   -2.430268   -1.376537  -0.147359
H   -1.326057   -3.438847  -1.550553
H   -3.051828   -3.344345  -1.920344
H   -2.450523   -4.626833  -0.830365
N   -2.799511   -3.148794   1.224115
C   -2.917304   -2.343063   2.418134
C   -2.760337   -3.308099   3.609616
O   -2.805258   -4.533241   3.461219
H   -2.793279   -4.154519   1.392456
H   -2.082023   -1.622488   2.435218
C   -4.246940   -1.532237   2.471927
C   -4.048426   -0.030346   2.670414
S   -3.371950    0.502673   4.283182
C   -4.776187    0.153975   5.379129
H   -4.920218   -1.946499   3.236894
H   -4.755310   -1.670892   1.507964
H   -4.992180    0.511226   2.513992
H   -3.327924    0.342427   1.928867
H   -5.010683   -0.917443   5.419083
H   -5.662903    0.717854   5.063824
H   -4.482358    0.488765   6.380663
N   -2.589811   -2.704924   4.805685
C   -2.471132   -3.456324   6.041079
H   -2.559833   -1.679638   4.823617
H   -2.432675   -2.750966   6.877920
H   -1.559364   -4.070095   6.051698
H   -3.328970   -4.129000   6.176409
