 29
Energy: -26512.04932415.7 eV PBE+vdW (tier 2 basis)
C   -2.441266   -1.945047  -0.314973
C   -1.991614   -1.871894   1.129535
O   -0.941856   -1.321668   1.468199
H   -2.907121   -0.984681  -0.577238
H   -3.169014   -2.744239  -0.503248
H   -1.564800   -2.083980  -0.956024
N   -2.855241   -2.423522   2.030790
C   -2.617651   -2.399354   3.457822
C   -3.054428   -3.758116   4.025535
O   -4.058918   -4.330825   3.603829
H   -3.704802   -2.886862   1.724629
H   -1.535250   -2.242868   3.583878
C   -3.375787   -1.277690   4.206331
C   -3.052895    0.149978   3.738070
S   -4.012260    0.783128   2.321183
C   -5.628482    1.036861   3.101151
H   -3.113185   -1.361925   5.273852
H   -4.456592   -1.473571   4.142461
H   -2.005775    0.226306   3.415128
H   -3.191249    0.856666   4.569100
H   -6.284526    1.451283   2.326718
H   -5.562296    1.755376   3.929038
H   -6.067884    0.096852   3.458998
N   -2.281142   -4.235062   5.039551
C   -2.572978   -5.471205   5.741509
H   -1.440166   -3.722581   5.276500
H   -3.512380   -5.863920   5.338760
H   -2.688845   -5.296354   6.819930
H   -1.780595   -6.216088   5.583986
