 29
Energy: -26512.10549415.7 eV PBE+vdW (tier 2 basis)
C   -1.352455    0.798460  -0.050441
C   -0.731115    0.549335   1.309415
O    0.428451    0.908207   1.559141
H   -0.733778    0.307258  -0.812034
H   -1.328598    1.875506  -0.257324
H   -2.384160    0.438558  -0.141638
N   -1.530708   -0.070709   2.217607
C   -1.147325   -0.583068   3.541380
C   -0.876784    0.484744   4.631514
O   -1.383944    0.349481   5.745563
H   -2.445405   -0.364500   1.896429
H   -2.042839   -1.096599   3.909709
C    0.006206   -1.609495   3.492516
C   -0.184154   -2.721871   2.463298
S   -1.769194   -3.601371   2.697554
C   -1.661665   -4.775614   1.322415
H    0.096115   -2.033879   4.502727
H    0.952220   -1.098194   3.267860
H    0.637690   -3.446563   2.551268
H   -0.161699   -2.310661   1.443166
H   -1.602085   -4.256918   0.356670
H   -2.579014   -5.374901   1.345918
H   -0.799399   -5.444832   1.438024
N   -0.042548    1.491961   4.277028
C    0.336057    2.544661   5.197840
H    0.353832    1.460581   3.330315
H   -0.259173    2.431652   6.110197
H    0.143482    3.533411   4.759324
H    1.401989    2.481360   5.462560
