 29
Energy: -26512.13054415.7 eV PBE+vdW (tier 2 basis)
C   -0.690842    0.364732  -0.456135
C   -0.641430    0.381570   1.060273
O    0.314962    0.846084   1.682346
H   -1.606921   -0.081363  -0.861844
H    0.177026   -0.192736  -0.829746
H   -0.600298    1.394327  -0.824051
N   -1.735086   -0.141876   1.686516
C   -1.803724   -0.292471   3.124233
C   -2.831289   -1.404200   3.403269
O   -3.579239   -1.827972   2.520306
H   -2.463497   -0.637827   1.175345
H   -0.810346   -0.605138   3.487456
C   -2.162039    1.032312   3.846293
C   -3.555210    1.558187   3.509867
S   -3.962810    3.153136   4.287822
C   -2.915886    4.283369   3.329859
H   -1.389222    1.757957   3.560151
H   -2.073347    0.896531   4.934692
H   -4.335387    0.872479   3.871215
H   -3.690641    1.649328   2.422505
H   -3.166972    4.242543   2.262081
H   -1.847712    4.079035   3.469775
H   -3.130269    5.291206   3.704029
N   -2.862150   -1.847313   4.687579
C   -3.800537   -2.849781   5.157844
H   -2.199024   -1.454813   5.345398
H   -3.276006   -3.741285   5.528112
H   -4.431708   -3.135874   4.310546
H   -4.436397   -2.451146   5.960262
