 29
Energy: -26512.08445215.7 eV PBE+vdW (tier 2 basis)
C   -1.049703    0.120088  -0.144672
C   -0.570091    0.232149   1.286666
O    0.587208    0.582478   1.556301
H   -0.745135   -0.862109  -0.533919
H   -0.562658    0.892311  -0.748231
H   -2.138719    0.204639  -0.244861
N   -1.492631   -0.097164   2.234248
C   -1.246214   -0.373083   3.659568
C   -0.895083    0.850021   4.545053
O   -1.452600    0.970532   5.638132
H   -2.384201   -0.430758   1.886729
H   -2.217938   -0.688932   4.059325
C   -0.233632   -1.518519   3.883029
C   -0.801055   -2.922949   3.676936
S   -1.382672   -3.236818   1.968698
C   -1.828322   -4.984858   2.137261
H    0.108687   -1.459030   4.927025
H    0.648475   -1.355133   3.249049
H   -1.640978   -3.097854   4.367021
H   -0.019610   -3.663624   3.901354
H   -2.616685   -5.124922   2.888008
H   -0.953261   -5.594141   2.398318
H   -2.207602   -5.310355   1.161800
N    0.056952    1.681267   4.063681
C    0.518460    2.840536   4.799994
H    0.476883    1.433959   3.157669
H   -0.088268    2.935077   5.706878
H    0.413172    3.753535   4.197564
H    1.574224    2.733654   5.089377
