 29
Energy: -26512.04441215.7 eV PBE+vdW (tier 2 basis)
C   -0.112850    0.016726  -0.068040
C   -0.171379   -0.122071   1.440423
O    0.823633   -0.398593   2.114061
H    0.286592   -0.912665  -0.492042
H    0.590505    0.820251  -0.320243
H   -1.084236    0.234502  -0.528301
N   -1.396454    0.082243   2.003794
C   -1.609427   -0.034821   3.433318
C   -3.046448   -0.535297   3.628502
O   -3.965076   -0.123396   2.919211
H   -2.221338    0.279089   1.443914
H   -0.883616   -0.770511   3.804752
C   -1.386673    1.323877   4.146673
C   -1.261489    1.258197   5.675295
S    0.427108    1.127361   6.353642
C    1.017438   -0.462550   5.703293
H   -2.223970    1.983025   3.868823
H   -0.472911    1.768004   3.729531
H   -1.892376    0.465185   6.105160
H   -1.618105    2.198864   6.116639
H    2.003365   -0.616902   6.158209
H    1.132454   -0.450776   4.612298
H    0.365052   -1.290127   6.017576
N   -3.216183   -1.427294   4.641936
C   -4.511511   -1.967476   5.012410
H   -2.390342   -1.751321   5.131025
H   -4.737667   -1.760116   6.067088
H   -4.553248   -3.052604   4.844911
H   -5.263571   -1.482784   4.381495
