 29
Energy: -26512.20927615.7 eV PBE+vdW (tier 2 basis)
C    1.519274   -0.825494   1.400793
C    1.081046   -0.710792   2.845336
O    1.645905   -1.345146   3.750163
H    2.577274   -0.542850   1.332456
H    0.934862   -0.197139   0.718180
H    1.440500   -1.873632   1.086024
N    0.035144    0.121020   3.077733
C   -0.446607    0.457964   4.417742
C   -1.406954   -0.628820   4.989133
O   -2.582101   -0.390242   5.275118
H   -0.405265    0.615139   2.295387
H    0.438491    0.462132   5.074947
C   -1.079230    1.854139   4.449415
C   -2.254367    2.101149   3.493100
S   -1.680288    2.493411   1.792457
C   -3.235138    2.284913   0.883242
H   -0.291163    2.604303   4.281048
H   -1.450869    2.011617   5.470715
H   -2.850606    2.951908   3.848915
H   -2.908170    1.221093   3.458982
H   -3.020694    2.502365  -0.169257
H   -3.992999    2.991427   1.244005
H   -3.610810    1.258067   0.970444
N   -0.801882   -1.830201   5.154993
C   -1.505384   -3.002916   5.632756
H    0.177866   -1.898457   4.854404
H   -0.993502   -3.436959   6.502572
H   -1.578398   -3.773038   4.850631
H   -2.515867   -2.699924   5.926846
