 29
Energy: -26512.08066415.7 eV PBE+vdW (tier 2 basis)
C   -0.535381    0.736023   0.128151
C   -0.637958    0.736575   1.641638
O    0.010374    1.519464   2.341221
H    0.512315    0.572055  -0.152665
H   -0.822754    1.726675  -0.245702
H   -1.159552   -0.025097  -0.355504
N   -1.488414   -0.185682   2.170398
C   -1.710042   -0.316251   3.600006
C   -2.242188   -1.740956   3.812872
O   -3.022772   -2.228125   2.988771
H   -2.051252   -0.798112   1.585477
H   -0.752564   -0.138834   4.106873
C   -2.735718    0.733354   4.095860
C   -2.820169    0.946764   5.606667
S   -1.273098    1.443380   6.446869
C   -0.768298    2.894137   5.476816
H   -3.732051    0.451263   3.720596
H   -2.473846    1.681923   3.608229
H   -3.123627    0.028297   6.130199
H   -3.589881    1.702550   5.819982
H    0.097403    3.313966   6.002361
H   -1.565998    3.648237   5.459478
H   -0.467691    2.617668   4.458994
N   -1.885997   -2.422361   4.935376
C   -0.808232   -2.148404   5.875617
H   -2.298961   -3.351609   4.962444
H   -1.096495   -2.511734   6.869775
H   -0.623390   -1.071433   5.960251
H    0.128418   -2.646059   5.579680
