 29
Energy: -26512.11359915.7 eV PBE+vdW (tier 2 basis)
C    0.626593    1.116173   0.767691
C   -0.138033    0.087764   1.578693
O    0.331815   -1.017674   1.847126
H    1.580986    1.321443   1.267908
H    0.084504    2.059346   0.629078
H    0.858711    0.686575  -0.214789
N   -1.375367    0.486007   2.007707
C   -2.298909   -0.426387   2.651808
C   -3.677328   -0.213615   2.006254
O   -3.996974    0.875297   1.528305
H   -1.807947    1.325940   1.628787
H   -1.925190   -1.445143   2.461418
C   -2.399487   -0.197181   4.180391
C   -1.070655   -0.418997   4.901687
S   -1.124834   -0.106547   6.693578
C   -2.102274   -1.520918   7.270943
H   -3.165849   -0.878176   4.581121
H   -2.756572    0.826532   4.365737
H   -0.311403    0.281372   4.529038
H   -0.678994   -1.430374   4.719988
H   -1.634229   -2.469763   6.977262
H   -3.138335   -1.486768   6.911362
H   -2.114663   -1.460338   8.365469
N   -4.505627   -1.292147   2.046924
C   -5.870691   -1.260741   1.554738
H   -4.136593   -2.162379   2.411266
H   -6.070015   -0.244119   1.200812
H   -6.585262   -1.510031   2.351210
H   -6.008377   -1.961151   0.719486
