 29
Energy: -26512.05046315.7 eV PBE+vdW (tier 2 basis)
C    0.578193    0.356601   0.693228
C    0.485564   -0.585930   1.878124
O    1.321792   -1.456106   2.092538
H   -0.317839    0.972481   0.544856
H    0.768743   -0.229419  -0.213214
H    1.440754    1.019632   0.840955
N   -0.615304   -0.401872   2.689110
C   -0.755267   -1.083165   3.969753
C   -1.968589   -2.038363   4.043277
O   -2.367337   -2.466525   5.124959
H   -1.195770    0.411432   2.515669
H    0.133108   -1.732472   4.035822
C   -0.742857   -0.118140   5.167359
C   -1.893648    0.890052   5.165133
S   -1.982003    1.939250   6.651435
C   -2.546363    0.733711   7.883969
H    0.219456    0.411093   5.190359
H   -0.801312   -0.740227   6.068788
H   -2.862340    0.383000   5.039746
H   -1.793699    1.618042   4.345217
H   -1.807776   -0.057725   8.056648
H   -3.504155    0.287477   7.588863
H   -2.685535    1.293918   8.815929
N   -2.516550   -2.377457   2.845475
C   -3.583370   -3.350031   2.719292
H   -2.074174   -2.001636   2.014361
H   -4.421828   -2.941011   2.139527
H   -3.929868   -3.594669   3.729156
H   -3.232025   -4.271941   2.233666
