 29
Energy: -26512.14878415.7 eV PBE+vdW (tier 2 basis)
C   -0.051947   -0.016428   0.053755
C   -0.051841    0.025041   1.567613
O    0.997003    0.105342   2.217040
H    0.406571    0.907883  -0.319836
H   -1.051362   -0.119393  -0.386355
H    0.576601   -0.851102  -0.279515
N   -1.275723   -0.024767   2.165304
C   -1.471489    0.068698   3.613049
C   -1.270163   -1.308433   4.301646
O   -2.198977   -1.935717   4.810046
H   -2.091969   -0.201686   1.590149
H   -0.690934    0.753271   3.982334
C   -2.841991    0.657132   3.928848
C   -2.996911    2.130006   3.541557
S   -1.857993    3.294463   4.365621
C   -2.433552    3.182723   6.083524
H   -3.034110    0.514444   4.999973
H   -3.624856    0.064883   3.425798
H   -4.029324    2.462251   3.722755
H   -2.794966    2.283570   2.471429
H   -1.852361    3.920106   6.649136
H   -2.253715    2.191493   6.516824
H   -3.498451    3.437804   6.160957
N    0.023859   -1.720940   4.280665
C    0.443226   -3.010293   4.791347
H    0.684382   -1.133958   3.763286
H    1.273407   -2.896609   5.501627
H    0.766134   -3.679639   3.979983
H   -0.409359   -3.465802   5.306138
