 29
Energy: -26511.99030215.7 eV PBE+vdW (tier 2 basis)
C   -1.790495    0.231973  -0.524159
C   -1.105654   -0.302860   0.720343
O    0.097387   -0.183687   0.917095
H   -1.196621   -0.043637  -1.402863
H   -1.806330    1.328698  -0.469813
H   -2.819195   -0.127565  -0.653698
N   -1.932369   -0.945870   1.617969
C   -1.476369   -1.308674   2.957220
C   -0.758093   -2.670755   3.026591
O   -0.145934   -3.001039   4.043144
H   -2.933478   -0.890207   1.463766
H   -0.730944   -0.561030   3.267811
C   -2.670236   -1.263034   3.929861
C   -2.313057   -1.234905   5.419210
S   -1.411058    0.272893   5.936095
C    0.275926   -0.364472   6.176152
H   -3.332509   -2.126212   3.739960
H   -3.248027   -0.354727   3.695912
H   -1.710499   -2.106220   5.699814
H   -3.240408   -1.262261   6.006681
H    0.902760    0.512385   6.377181
H    0.643173   -0.884284   5.285233
H    0.318870   -1.039945   7.038918
N   -0.889376   -3.463386   1.931770
C   -0.225552   -4.745602   1.810890
H   -1.331864   -3.046364   1.120373
H   -0.934126   -5.525891   1.502351
H    0.185785   -5.000892   2.793321
H    0.598493   -4.704490   1.083806
