 29
Energy: -26512.00391015.7 eV PBE+vdW (tier 2 basis)
C   -0.220106    0.028817  -0.158213
C   -0.143774   -0.159670   1.344670
O    0.892576   -0.509492   1.909863
H    0.548308    0.749415  -0.463796
H   -1.199026    0.377453  -0.508442
H    0.016331   -0.926279  -0.643910
N   -1.300934    0.106704   2.024703
C   -1.449379   -0.197422   3.433347
C   -2.823368   -0.862488   3.609219
O   -3.725449   -0.665590   2.791901
H   -2.183141    0.205823   1.525102
H   -0.629617   -0.882993   3.696460
C   -1.364385    1.059532   4.331885
C    0.005379    1.729124   4.277719
S    0.022729    3.154620   5.417455
C    1.704284    3.764572   5.117334
H   -1.591092    0.778153   5.371471
H   -2.146879    1.766622   4.017573
H    0.224929    2.080432   3.260341
H    0.794770    1.020147   4.565513
H    1.841632    4.639165   5.763604
H    1.835305    4.072112   4.071987
H    2.455337    3.008435   5.379151
N   -3.015735   -1.645994   4.706097
C   -2.076817   -1.975298   5.765025
H   -3.969305   -1.985025   4.792906
H   -2.340044   -2.953503   6.183713
H   -2.082705   -1.235948   6.580967
H   -1.056388   -2.048197   5.372430
