 29
Energy: -26511.90125415.7 eV PBE+vdW (tier 2 basis)
C    0.384031   -0.884541   0.825580
C    0.047478    0.326651   1.681153
O    0.856951    1.228977   1.877745
H    1.425285   -0.789492   0.507367
H   -0.254907   -0.933307  -0.068055
H    0.263141   -1.828009   1.375773
N   -1.215912    0.385425   2.212387
C   -2.264638   -0.618361   2.162549
C   -3.603994    0.137290   2.211227
O   -3.802619    1.008149   3.055738
H   -1.413855    1.199040   2.792923
H   -2.182314   -1.170282   1.213642
C   -2.174150   -1.617253   3.342019
C   -3.229203   -2.720738   3.295042
S   -3.032202   -4.021974   4.556665
C   -3.433869   -3.101661   6.069182
H   -2.262079   -1.036440   4.271147
H   -1.171174   -2.066796   3.337611
H   -3.175448   -3.269733   2.341905
H   -4.246772   -2.309649   3.372653
H   -3.429459   -3.836673   6.882335
H   -4.433529   -2.653243   6.004328
H   -2.689755   -2.328351   6.292893
N   -4.526249   -0.245315   1.285733
C   -5.857892    0.328993   1.216149
H   -4.265565   -0.960901   0.618436
H   -6.629285   -0.438569   1.367711
H   -6.027266    0.819768   0.248181
H   -5.935253    1.076735   2.012140
