 29
Energy: -26512.01116715.7 eV PBE+vdW (tier 2 basis)
C    0.579597    0.581328   0.300039
C    0.312350    0.293941   1.764346
O    1.235775    0.242762   2.585831
H    1.240255   -0.201487  -0.093379
H    1.118397    1.533455   0.221196
H   -0.324120    0.627273  -0.319612
N   -0.995633    0.105169   2.096803
C   -1.535775   -0.268573   3.413885
C   -1.471780    0.846101   4.489256
O   -2.489886    1.121477   5.132326
H   -1.676335    0.226105   1.357630
H   -2.614607   -0.392388   3.254849
C   -0.971576   -1.624832   3.893062
C   -1.564777   -2.123542   5.215995
S   -0.664110   -1.498200   6.690620
C   -2.033275   -0.902889   7.723357
H    0.122763   -1.568634   3.964355
H   -1.196303   -2.358533   3.102528
H   -1.530849   -3.220360   5.241277
H   -2.615792   -1.821776   5.319145
H   -1.572245   -0.494859   8.631132
H   -2.705210   -1.721028   8.011052
H   -2.580688   -0.106210   7.205061
N   -0.275593    1.449545   4.656555
C   -0.042083    2.369559   5.750709
H    0.516470    1.064839   4.131842
H    0.836281    2.984697   5.526212
H    0.129451    1.828673   6.695878
H   -0.916678    3.016696   5.881913
