 29
Energy: -26511.96592915.7 eV PBE+vdW (tier 2 basis)
C    0.277940    0.135450   0.113822
C    0.194090   -0.072476   1.612684
O    1.197724   -0.182308   2.318376
H    0.977028    0.955495  -0.087082
H   -0.690600    0.361530  -0.348410
H    0.691924   -0.769640  -0.349891
N   -1.077768   -0.169552   2.112851
C   -1.343204   -0.174262   3.546347
C   -2.192464   -1.395693   3.965395
O   -3.285896   -1.272010   4.521988
H   -1.856121    0.102827   1.510719
H   -0.349971   -0.277287   4.013264
C   -1.944631    1.155496   4.035295
C   -3.304129    1.575068   3.465274
S   -3.227215    2.083262   1.701893
C   -4.998336    2.310766   1.388047
H   -1.197610    1.942096   3.849813
H   -2.065171    1.082847   5.125666
H   -3.679600    2.436739   4.035273
H   -4.022078    0.752772   3.566956
H   -5.098853    2.628283   0.343959
H   -5.412065    3.092348   2.038059
H   -5.550307    1.374063   1.533997
N   -1.674249   -2.632233   3.714542
C   -0.405321   -3.003378   3.110273
H   -2.306523   -3.379244   3.986088
H   -0.058546   -3.941839   3.559923
H    0.359994   -2.239853   3.289244
H   -0.490694   -3.146833   2.021881
