 29
Energy: -26512.03298015.7 eV PBE+vdW (tier 2 basis)
C    0.486448    0.597394   0.536172
C    0.057347    0.412678   1.978837
O    0.840871    0.546659   2.918771
H    0.905006    1.604518   0.418429
H   -0.327533    0.460905  -0.185929
H    1.288581   -0.117486   0.314208
N   -1.265334    0.110243   2.159910
C   -1.796258   -0.259115   3.456430
C   -2.673735   -1.501844   3.256256
O   -3.227732   -1.716350   2.176305
H   -1.843344   -0.172937   1.371193
H   -0.931412   -0.471361   4.102656
C   -2.643650    0.869263   4.096046
C   -1.822785    2.122437   4.396589
S   -2.779746    3.497230   5.107257
C   -3.120575    2.865805   6.773002
H   -3.099273    0.487062   5.021814
H   -3.472244    1.118104   3.417085
H   -1.401356    2.535624   3.470601
H   -0.970746    1.894580   5.053548
H   -3.627874    3.674784   7.311499
H   -2.188827    2.623075   7.300909
H   -3.783168    1.991234   6.760277
N   -2.846149   -2.326067   4.327146
C   -2.195192   -2.253124   5.626041
H   -3.477165   -3.100348   4.147005
H   -2.429834   -3.167450   6.180696
H   -2.543474   -1.397918   6.224336
H   -1.102612   -2.190642   5.531251
