 29
Energy: -26511.97928915.7 eV PBE+vdW (tier 2 basis)
C   -0.075346   -1.144024   1.224323
C    0.086035   -0.007071   2.218815
O    1.182679    0.299557   2.680048
H    0.853914   -1.719954   1.224176
H   -0.227885   -0.738873   0.212635
H   -0.926227   -1.803518   1.444486
N   -1.043860    0.682752   2.587001
C   -2.400724    0.538769   2.098062
C   -2.902778    1.914576   1.625530
O   -2.633097    2.937408   2.250787
H   -0.869956    1.514242   3.150333
H   -2.398152   -0.171772   1.261200
C   -3.360638    0.016486   3.195257
C   -3.031053   -1.392339   3.680425
S   -3.460702   -2.629536   2.405417
C   -2.600068   -4.079054   3.068580
H   -4.395765    0.055695   2.820186
H   -3.311015    0.711148   4.047179
H   -3.591948   -1.619158   4.597408
H   -1.958347   -1.473984   3.909903
H   -2.797025   -4.906991   2.378014
H   -2.983407   -4.347621   4.060866
H   -1.516721   -3.908972   3.120876
N   -3.686054    1.888498   0.511042
C   -4.316234    3.075324  -0.038109
H   -3.837256    0.997297   0.053765
H   -5.411478    2.986846  -0.025800
H   -3.984466    3.258818  -1.069040
H   -4.019342    3.923754   0.587101
