 29
Energy: -26512.11297515.7 eV PBE+vdW (tier 2 basis)
C   -1.462627   -1.771529   0.158326
C   -1.388369   -2.146512   1.626999
O   -0.329577   -2.394774   2.194811
H   -1.207041   -2.649852  -0.449485
H   -0.707040   -1.004081  -0.044865
H   -2.449232   -1.403192  -0.148849
N   -2.606731   -2.227026   2.268053
C   -2.683840   -2.335621   3.721226
C   -2.713447   -3.781409   4.264699
O   -2.716424   -3.982574   5.477962
H   -3.398754   -1.767697   1.814090
H   -1.757676   -1.904244   4.135604
C   -3.900755   -1.581618   4.279137
C   -3.972176   -0.097110   3.909284
S   -4.646164    0.289882   2.248804
C   -6.407413   -0.050300   2.512975
H   -3.848757   -1.682938   5.371752
H   -4.827231   -2.095285   3.975400
H   -2.971857    0.359094   3.914936
H   -4.578369    0.455521   4.640398
H   -6.587024   -1.095344   2.793355
H   -6.908851    0.147527   1.558690
H   -6.822309    0.618114   3.277940
N   -2.759774   -4.757770   3.323816
C   -2.714635   -6.167038   3.653930
H   -2.694921   -4.458243   2.356934
H   -1.764665   -6.622519   3.338656
H   -3.543622   -6.709567   3.179285
H   -2.803717   -6.255897   4.742137
