 29
Energy: -26511.96644415.7 eV PBE+vdW (tier 2 basis)
C   -0.218759    0.421094  -0.137208
C   -0.039995   -0.297463   1.184940
O    1.025655   -0.795757   1.533385
H    0.754207    0.470038  -0.632158
H   -0.614915    1.437008  -0.004218
H   -0.922143   -0.119684  -0.786628
N   -1.145940   -0.365535   2.010063
C   -2.503745    0.082603   1.724533
C   -2.711191    1.607234   1.873039
O   -3.662689    2.162696   1.325714
H   -0.996082   -0.938027   2.837394
H   -2.761473   -0.141115   0.678081
C   -3.479932   -0.686014   2.643677
C   -4.956993   -0.504615   2.293964
S   -6.096768   -1.360216   3.424545
C   -5.802621   -3.096634   2.988743
H   -3.313651   -0.382143   3.689121
H   -3.212208   -1.751513   2.571922
H   -5.161298   -0.830677   1.263076
H   -5.246135    0.552085   2.350254
H   -6.523004   -3.684445   3.569503
H   -4.791765   -3.430505   3.253534
H   -5.987453   -3.271718   1.920756
N   -1.804132    2.241336   2.661385
C   -1.857262    3.663420   2.936583
H   -1.027721    1.687364   3.007707
H   -1.945593    3.854810   4.014818
H   -2.739966    4.067072   2.429123
H   -0.961512    4.175487   2.558383
