 29
Energy: -26511.94517515.7 eV PBE+vdW (tier 2 basis)
C    0.006704   -0.430309   0.081184
C    0.051491   -0.171180   1.571550
O    1.134504   -0.068661   2.163761
H    0.805864    0.137832  -0.405763
H   -0.956003   -0.182622  -0.382856
H    0.205300   -1.500022  -0.075396
N   -1.165032   -0.075002   2.176619
C   -1.534842   -0.090412   3.605658
C   -0.925251    0.976088   4.554140
O   -1.612667    1.346058   5.510079
H   -1.955447   -0.195973   1.554593
H   -2.592962    0.201960   3.606893
C   -1.489071   -1.489692   4.264696
C   -0.136276   -2.212764   4.318801
S    0.276398   -3.251788   2.870860
C   -0.825254   -4.663319   3.165600
H   -2.232019   -2.131288   3.766970
H   -1.856308   -1.336436   5.291017
H   -0.094666   -2.863139   5.203790
H    0.698564   -1.506091   4.402887
H   -0.652638   -5.369519   2.344980
H   -1.883935   -4.373310   3.155684
H   -0.586791   -5.160216   4.115185
N    0.323835    1.416275   4.306158
C    0.964346    2.384168   5.176474
H    0.847570    0.957787   3.545128
H    1.884911    2.733178   4.696788
H    1.213833    1.950373   6.156718
H    0.299960    3.239684   5.352626
