 29
Energy: -26512.26614415.7 eV PBE+vdW (tier 2 basis)
C   -0.477250   -0.781303   0.101763
C   -0.290484   -0.596285   1.592931
O    0.835141   -0.455411   2.096371
H   -1.525979   -0.909166  -0.191974
H    0.098692   -1.656432  -0.223655
H   -0.062162    0.092941  -0.415652
N   -1.427751   -0.596395   2.331219
C   -1.456473   -0.337962   3.770674
C   -1.112370   -1.604526   4.610007
O   -1.904349   -2.104939   5.411030
H   -2.334645   -0.773780   1.886589
H   -0.649476    0.386506   3.969286
C   -2.785409    0.298476   4.192775
C   -4.074980   -0.496208   3.944266
S   -4.620361   -0.723927   2.210706
C   -4.955088    0.986009   1.705922
H   -2.853741    1.293975   3.728954
H   -2.727955    0.467684   5.277942
H   -4.906100   -0.023434   4.486728
H   -3.967535   -1.515184   4.336343
H   -5.699673    1.446859   2.367415
H   -5.366781    0.936089   0.691393
H   -4.044413    1.597032   1.686159
N    0.143193   -2.061468   4.380337
C    0.672881   -3.251650   5.014042
H    0.697123   -1.557327   3.678409
H    1.604875   -3.027523   5.551219
H    0.876575   -4.040337   4.275082
H   -0.071506   -3.618313   5.728720
