 29
Energy: -26512.17265115.7 eV PBE+vdW (tier 2 basis)
C   -0.029958    0.182125   0.153299
C   -0.251444    0.376695   1.638912
O   -0.057154    1.465742   2.189859
H   -0.655631    0.900298  -0.391003
H   -0.260024   -0.830587  -0.199623
H    1.015786    0.415492  -0.082564
N   -0.684289   -0.719354   2.325576
C   -0.958663   -0.694661   3.761988
C    0.356155   -0.897756   4.563928
O    0.647820   -1.971065   5.092816
H   -0.719328   -1.613567   1.848783
H   -1.347356    0.309201   3.989648
C   -2.010231   -1.739105   4.120760
C   -2.539662   -1.624849   5.553750
S   -3.248115   -0.012943   6.029788
C   -4.681210    0.083700   4.920206
H   -1.575039   -2.745303   4.009422
H   -2.839991   -1.655758   3.402861
H   -1.723941   -1.785475   6.271070
H   -3.290652   -2.406905   5.735885
H   -5.336031   -0.789012   5.043267
H   -4.384939    0.183701   3.868598
H   -5.235829    0.983366   5.210728
N    1.127864    0.218226   4.599474
C    2.445145    0.240880   5.203180
H    0.822187    1.000518   4.016625
H    2.551441    1.111952   5.862997
H    3.239367    0.277128   4.442262
H    2.565573   -0.674545   5.791948
