 29
Energy: -26512.02513415.7 eV PBE+vdW (tier 2 basis)
C   -0.644281    1.800405   0.163383
C   -0.505417    0.659271   1.152589
O    0.591269    0.214216   1.490814
H   -0.088063    2.666585   0.542641
H   -1.683616    2.095641  -0.024454
H   -0.177683    1.502439  -0.783852
N   -1.683426    0.179575   1.658464
C   -1.734792   -1.019796   2.470540
C   -2.907121   -1.865851   1.953392
O   -3.847086   -1.336801   1.354773
H   -2.570459    0.423040   1.220643
H   -0.770570   -1.533288   2.337080
C   -1.944046   -0.717022   3.975175
C   -0.778740    0.050919   4.597089
S   -0.954500    0.353828   6.385644
C   -2.243842    1.632143   6.397900
H   -2.084513   -1.658167   4.526049
H   -2.881150   -0.149424   4.076850
H   -0.613332    1.010769   4.089501
H    0.155879   -0.518507   4.500282
H   -2.369094    1.932669   7.444625
H   -3.205106    1.256794   6.026442
H   -1.933319    2.508492   5.814376
N   -2.887645   -3.203687   2.206089
C   -1.876664   -3.981970   2.901492
H   -3.732204   -3.680565   1.904479
H   -2.031242   -3.999311   3.991589
H   -0.874084   -3.587576   2.700940
H   -1.905335   -5.013613   2.532510
