 29
Energy: -26511.99312715.7 eV PBE+vdW (tier 2 basis)
C   -0.374212    0.900260   0.089583
C   -0.308097    0.399324   1.520921
O    0.756141    0.141670   2.080968
H   -1.382629    1.186150  -0.234158
H    0.001601    0.111744  -0.575064
H    0.295152    1.762269  -0.014741
N   -1.513580    0.259165   2.152082
C   -1.626850   -0.338590   3.480435
C   -3.063359   -0.829616   3.736642
O   -3.272447   -1.954164   4.184698
H   -2.368158    0.417506   1.631340
H   -1.021740   -1.254413   3.492229
C   -1.086521    0.565320   4.631121
C   -1.106520    2.077934   4.416610
S   -2.715091    2.923981   4.210746
C   -3.482443    2.625509   5.828839
H   -0.030783    0.300092   4.782120
H   -1.607899    0.291739   5.560190
H   -0.557167    2.342062   3.503713
H   -0.585376    2.567254   5.251833
H   -4.436407    3.165104   5.826569
H   -2.853313    3.022332   6.635157
H   -3.679298    1.559536   5.998465
N   -4.058388    0.050760   3.421898
C   -5.446136   -0.266498   3.712220
H   -3.794167    1.043841   3.371271
H   -6.092193    0.455977   3.201305
H   -5.662823   -0.242082   4.792276
H   -5.676162   -1.275027   3.351092
