 29
Energy: -26511.96705015.7 eV PBE+vdW (tier 2 basis)
C    0.147959    0.445795   0.104643
C    0.047288    0.426306   1.617920
O    0.982407    0.767539   2.344114
H    0.992648   -0.184413  -0.199754
H    0.370024    1.469781  -0.220728
H   -0.760769    0.098551  -0.401861
N   -1.150715    0.007789   2.119564
C   -1.393355   -0.094458   3.545583
C   -2.371829   -1.259920   3.739399
O   -3.283226   -1.436400   2.926914
H   -1.909665   -0.303017   1.519361
H   -0.417985   -0.272540   4.018020
C   -1.980640    1.229013   4.102481
C   -2.123376    1.269577   5.622031
S   -2.756134    2.847634   6.280868
C   -1.340878    3.944124   5.980199
H   -2.956347    1.409700   3.629724
H   -1.300472    2.024145   3.768083
H   -1.167093    1.044380   6.119088
H   -2.857498    0.529734   5.971932
H   -1.608766    4.913170   6.417042
H   -1.145552    4.085761   4.910709
H   -0.437622    3.569751   6.478996
N   -2.231273   -2.071484   4.825049
C   -1.207306   -2.086882   5.856258
H   -2.963467   -2.774553   4.881433
H   -0.952156   -3.125893   6.099596
H   -1.535063   -1.583931   6.778321
H   -0.295393   -1.596050   5.503179
