 29
Energy: -26512.12869615.7 eV PBE+vdW (tier 2 basis)
C   -0.014520    0.396621  -0.709728
C   -0.551531    0.244987   0.701173
O   -0.688833    1.204961   1.458827
H   -0.660747    1.091944  -1.259572
H    0.048437   -0.548396  -1.263178
H    0.983839    0.848531  -0.658671
N   -0.868435   -1.031850   1.072260
C   -1.389002   -1.351971   2.394596
C   -0.783853   -2.711414   2.773582
O   -1.001437   -3.708011   2.079584
H   -0.756779   -1.806551   0.426281
H   -1.042907   -0.550502   3.064167
C   -2.929258   -1.379781   2.384795
C   -3.611359   -1.393231   3.752795
S   -3.315448   -2.830053   4.839828
C   -3.948683   -4.193007   3.825244
H   -3.257352   -2.234866   1.775381
H   -3.259795   -0.470776   1.859312
H   -4.697677   -1.284413   3.618148
H   -3.279938   -0.535461   4.357136
H   -3.308221   -4.378882   2.954843
H   -4.983417   -4.000764   3.512738
H   -3.936955   -5.080362   4.468968
N    0.049773   -2.707076   3.846036
C    0.551604   -3.938512   4.425018
H    0.042443   -1.877747   4.427889
H   -0.163899   -4.359283   5.150111
H    1.508612   -3.752672   4.925794
H    0.697338   -4.666466   3.620643
