 29
Energy: -26511.98346815.7 eV PBE+vdW (tier 2 basis)
C   -0.875023   -1.794274   0.537663
C   -0.428136   -0.943989   1.709886
O    0.678910   -1.052521   2.227890
H   -0.033767   -2.421350   0.232481
H   -1.203022   -1.181516  -0.313285
H   -1.718997   -2.439684   0.820264
N   -1.330883   -0.009401   2.178020
C   -2.709331    0.187970   1.747159
C   -2.850587    1.057246   0.479744
O   -3.900164    1.061912  -0.166634
H   -1.021315    0.457620   3.027003
H   -3.165765   -0.783486   1.502834
C   -3.523548    0.782928   2.913416
C   -5.044579    0.721809   2.750173
S   -5.696117   -0.990564   2.662929
C   -6.313495   -1.054749   0.952475
H   -3.222642    1.832400   3.076046
H   -3.242245    0.223771   3.819305
H   -5.370382    1.250223   1.846985
H   -5.516152    1.208022   3.614052
H   -6.577357   -2.101910   0.762567
H   -5.542587   -0.729760   0.244897
H   -7.211483   -0.435939   0.836521
N   -1.764766    1.810584   0.167133
C   -1.720797    2.694551  -0.980381
H   -0.936493    1.678342   0.738560
H   -1.538338    3.733690  -0.673461
H   -2.692417    2.636318  -1.482643
H   -0.934349    2.391089  -1.685358
