 29
Energy: -26512.09218315.7 eV PBE+vdW (tier 2 basis)
C   -1.695754   -0.770818  -0.749927
C   -1.435691   -0.380825   0.692914
O   -1.531791    0.784624   1.088078
H   -2.711249   -0.456542  -1.021932
H   -1.590488   -1.845863  -0.938500
H   -0.999955   -0.221820  -1.396592
N   -1.090946   -1.405988   1.518116
C   -0.851083   -1.213185   2.930364
C    0.040752   -2.368887   3.410414
O    0.096990   -3.438901   2.806609
H   -1.069210   -2.370186   1.197326
H   -0.321476   -0.253678   3.041575
C   -2.149032   -1.109621   3.773294
C   -2.968514   -2.389138   3.964629
S   -3.706392   -3.170083   2.487747
C   -4.760157   -1.830515   1.872353
H   -2.759860   -0.313848   3.325372
H   -1.876549   -0.743709   4.777418
H   -3.778386   -2.186826   4.681716
H   -2.353220   -3.191300   4.397685
H   -4.174337   -0.979823   1.502627
H   -5.464468   -1.489800   2.642888
H   -5.332672   -2.251333   1.037446
N    0.709395   -2.125595   4.572467
C    1.552790   -3.113910   5.218930
H    0.654772   -1.195458   4.970139
H    1.235500   -3.285295   6.256555
H    2.607557   -2.805025   5.215077
H    1.457473   -4.047650   4.655214
