 29
Energy: -26512.25744115.7 eV PBE+vdW (tier 2 basis)
C    0.979016   -4.992151   4.224899
C    0.145895   -3.773201   3.877923
O   -0.334457   -3.601846   2.753985
H    0.383628   -5.893815   4.034775
H    1.327064   -5.004324   5.264794
H    1.847254   -5.026821   3.555011
N   -0.047056   -2.883371   4.889239
C   -0.753235   -1.638849   4.685189
C   -0.378565   -0.725133   5.868519
O    0.172846   -1.174891   6.877154
H    0.399699   -2.972018   5.801251
H   -0.384846   -1.178683   3.752819
C   -2.293425   -1.832507   4.545324
C   -2.873258   -1.254830   3.255128
S   -2.825733    0.564124   3.081725
C   -4.058616    1.061911   4.317570
H   -2.813925   -1.429840   5.426827
H   -2.490290   -2.913322   4.540345
H   -3.916654   -1.573250   3.119486
H   -2.298606   -1.632122   2.397610
H   -5.038367    0.626411   4.085017
H   -4.134864    2.153915   4.261449
H   -3.758689    0.780257   5.335095
N   -0.720855    0.572725   5.697345
C   -0.516303    1.585574   6.713078
H   -1.177847    0.823726   4.813369
H   -1.470765    2.036542   7.021329
H    0.146732    2.382814   6.349226
H   -0.051778    1.106978   7.581520
