 29
Energy: -26511.93020715.7 eV PBE+vdW (tier 2 basis)
C   -0.999325   -0.381470  -0.235672
C   -0.740198    0.280837   1.104256
O   -0.093311    1.334635   1.171362
H   -1.574771   -1.313012  -0.175209
H   -0.033623   -0.589946  -0.712617
H   -1.533788    0.328462  -0.879116
N   -1.277264   -0.358844   2.179532
C   -1.200666   -0.061001   3.626223
C   -1.692882    1.321285   4.127454
O   -2.137977    1.378803   5.274284
H   -1.810033   -1.191271   1.959098
H   -1.949614   -0.731778   4.067469
C    0.142925   -0.477734   4.270522
C    1.412543    0.257900   3.835526
S    1.575302    1.898095   4.628732
C    2.676826    2.693478   3.429686
H    0.282972   -1.549150   4.056241
H    0.008729   -0.396572   5.359776
H    1.425426    0.412650   2.750043
H    2.288792   -0.348974   4.105430
H    2.204996    2.735315   2.439581
H    3.643110    2.176501   3.364395
H    2.850032    3.714496   3.789567
N   -1.624690    2.368756   3.275922
C   -1.899928    3.712344   3.747949
H   -1.015265    2.248043   2.459027
H   -2.080772    4.367149   2.888090
H   -1.056951    4.110097   4.336580
H   -2.786649    3.701565   4.390957
