 29
Energy: -26511.95936615.7 eV PBE+vdW (tier 2 basis)
C   -2.023225    0.057907  -0.964206
C   -1.639206   -0.242051   0.471088
O   -0.998662   -1.247332   0.780007
H   -1.114011    0.063280  -1.577536
H   -2.547455    1.012852  -1.091350
H   -2.662647   -0.753464  -1.334186
N   -2.037321    0.690957   1.391562
C   -1.840368    0.498905   2.822317
C   -3.180626    0.065152   3.445885
O   -4.133756    0.845064   3.480382
H   -2.696295    1.410048   1.110681
H   -1.085866   -0.292207   2.904378
C   -1.334020    1.778453   3.505829
C    0.050480    2.189841   3.007800
S    0.633278    3.811165   3.595984
C    0.855150    3.487276   5.368352
H   -1.312439    1.595844   4.590552
H   -2.058546    2.589751   3.345728
H    0.047367    2.290375   1.913218
H    0.804865    1.427041   3.255089
H    1.303676    4.393534   5.791623
H    1.541725    2.646334   5.532752
H   -0.097661    3.299999   5.878016
N   -3.266175   -1.203792   3.931401
C   -2.259851   -2.258961   3.898246
H   -4.173535   -1.419737   4.333611
H   -1.753614   -2.294371   2.925187
H   -2.764423   -3.219517   4.050068
H   -1.507539   -2.143219   4.693802
