 29
Energy: -26511.99096015.7 eV PBE+vdW (tier 2 basis)
C   -0.185943    0.841640   0.377166
C   -0.428005    0.687044   1.866530
O    0.215155    1.316065   2.707100
H    0.869843    0.629844   0.168538
H   -0.371572    1.886026   0.096455
H   -0.814611    0.188954  -0.240608
N   -1.421041   -0.185899   2.210610
C   -1.694272   -0.518493   3.592532
C   -2.211527   -1.964649   3.606182
O   -2.641792   -2.491926   2.576414
H   -1.844057   -0.813803   1.529746
H   -0.745351   -0.432712   4.144881
C   -2.698535    0.462263   4.251622
C   -4.094209    0.415367   3.636977
S   -5.159973    1.636980   4.472743
C   -6.706623    1.366822   3.565008
H   -2.271012    1.469575   4.151342
H   -2.760633    0.254376   5.329613
H   -4.543267   -0.582812   3.748249
H   -4.049977    0.650704   2.563914
H   -7.444254    2.058308   3.988320
H   -7.071010    0.339257   3.692188
H   -6.585755    1.589390   2.497021
N   -2.209015   -2.633342   4.791760
C   -1.716668   -2.199692   6.088521
H   -2.625560   -3.557419   4.726804
H   -2.497171   -1.715039   6.694540
H   -0.882022   -1.499256   5.973253
H   -1.342704   -3.071078   6.639010
