 29
Energy: -26511.98323715.7 eV PBE+vdW (tier 2 basis)
C   -0.052827    1.075302   0.078511
C   -0.401481    1.455652   1.504257
O    0.102243    2.455586   2.033393
H   -0.290307    1.920744  -0.578864
H   -0.569128    0.179837  -0.287680
H    1.030296    0.910488   0.018394
N   -1.295346    0.637509   2.123605
C   -1.795534    0.643714   3.513345
C   -2.582320    1.890612   3.988185
O   -3.529135    1.724588   4.759222
H   -1.652448   -0.122350   1.557830
H   -2.568194   -0.134785   3.514565
C   -0.746921    0.199107   4.567560
C    0.247822    1.260515   5.043818
S    1.461916    0.626809   6.247683
C    2.580633   -0.287546   5.148317
H   -0.211597   -0.665040   4.147009
H   -1.306862   -0.169289   5.438241
H   -0.276553    2.062383   5.581627
H    0.785350    1.730642   4.211353
H    3.389404   -0.672393   5.780406
H    3.011642    0.375184   4.386768
H    2.084254   -1.138892   4.665665
N   -2.158021    3.097477   3.550665
C   -2.786518    4.326332   3.997287
H   -1.277756    3.128174   3.022214
H   -2.587828    5.118564   3.266920
H   -2.410383    4.648189   4.981118
H   -3.867995    4.173394   4.086398
