 29
Energy: -26511.91856515.7 eV PBE+vdW (tier 2 basis)
C   -0.108590    0.125032  -0.083664
C    0.006618    0.081192   1.432280
O    1.093718    0.160015   1.998359
H    0.904373    0.183072  -0.490033
H   -0.671404    1.008924  -0.417336
H   -0.607416   -0.764079  -0.491472
N   -1.151916   -0.056223   2.155236
C   -2.526474   -0.061035   1.691554
C   -3.316683    0.956112   2.537707
O   -3.083851    1.094684   3.736007
H   -1.041564    0.040734   3.164308
H   -2.543004    0.238470   0.633884
C   -3.201934   -1.447617   1.842018
C   -2.554871   -2.532385   0.983858
S   -3.294727   -4.186293   1.172203
C   -2.662267   -4.662655   2.804183
H   -4.267525   -1.362211   1.581702
H   -3.158502   -1.722561   2.906068
H   -1.476623   -2.606094   1.185506
H   -2.672987   -2.304475  -0.086043
H   -3.012279   -5.686376   2.980484
H   -3.050787   -4.019864   3.603253
H   -1.564943   -4.657111   2.818426
N   -4.293993    1.631274   1.871169
C   -5.195346    2.562737   2.525825
H   -4.403759    1.461324   0.878809
H   -5.122567    3.563191   2.078517
H   -4.899287    2.621128   3.578274
H   -6.237207    2.218530   2.465753
