 29
Energy: -26512.26291215.7 eV PBE+vdW (tier 2 basis)
C   -0.165152   -0.758682   0.116399
C   -0.222930   -0.906710   1.626592
O    0.315934   -1.841277   2.226444
H    0.382288   -1.608802  -0.298889
H    0.347171    0.171057  -0.166829
H   -1.173574   -0.730187  -0.318677
N   -0.908287    0.073946   2.278468
C   -1.115687    0.045368   3.711224
C   -2.404351    0.827980   3.998605
O   -2.788727    1.737503   3.258007
H   -1.399816    0.816541   1.784759
H   -1.245036   -1.002845   4.016484
C    0.110723    0.620174   4.459021
C    0.096134    0.514136   5.987040
S   -0.415147   -1.095860   6.690233
C    0.720619   -2.244321   5.855171
H    0.227506    1.679814   4.182960
H    0.987936    0.091460   4.061732
H   -0.614978    1.223485   6.433012
H    1.090864    0.766791   6.380710
H    0.502205   -3.236001   6.268022
H    1.761864   -1.987265   6.088143
H    0.569728   -2.266112   4.768301
N   -3.057238    0.447867   5.121663
C   -4.255393    1.122272   5.588026
H   -2.652854   -0.312563   5.668973
H   -4.568259    0.668921   6.534041
H   -5.071454    1.027137   4.858707
H   -4.070141    2.193699   5.746055
