 29
Energy: -26512.04052815.7 eV PBE+vdW (tier 2 basis)
C   -0.171740   -2.235022   0.448136
C   -0.129726   -1.698826   1.866153
O    0.741586   -2.033927   2.668491
H    0.776034   -1.993931  -0.048973
H   -1.001049   -1.836357  -0.148485
H   -0.249880   -3.328592   0.488599
N   -1.112766   -0.799111   2.178767
C   -1.318479   -0.331621   3.535115
C   -2.829575   -0.375648   3.803810
O   -3.634904   -0.318188   2.871082
H   -1.925485   -0.690803   1.574187
H   -0.766292   -1.019108   4.193652
C   -0.799377    1.110576   3.758715
C    0.714352    1.233626   3.590424
S    1.371431    2.895634   3.939681
C    0.788192    3.816408   2.489534
H   -1.073841    1.449920   4.767924
H   -1.323215    1.770273   3.050809
H    1.032489    0.929819   2.583950
H    1.237145    0.572702   4.295470
H    1.204590    4.826572   2.578431
H   -0.305453    3.893070   2.456940
H    1.159068    3.363417   1.560905
N   -3.244874   -0.445887   5.098632
C   -2.441923   -0.507836   6.308163
H   -4.254048   -0.389746   5.199041
H   -3.015133   -1.018951   7.090077
H   -2.160022    0.489253   6.680735
H   -1.525976   -1.085360   6.139533
