 29
Energy: -26512.06685415.7 eV PBE+vdW (tier 2 basis)
C    2.055184    1.575820   0.456314
C    1.454034    1.621033   1.846619
O    1.841260    2.446481   2.684269
H    3.126974    1.358405   0.547749
H    1.961010    2.568189  -0.001056
H    1.597626    0.829857  -0.204563
N    0.476618    0.705578   2.094985
C   -0.211723    0.462308   3.373195
C   -1.204215    1.580786   3.789798
O   -2.384580    1.300611   4.004294
H    0.200706    0.111324   1.323444
H   -0.869728   -0.395625   3.186383
C    0.774227    0.085275   4.499995
C    0.062408   -0.271739   5.804331
S    1.179735   -0.803791   7.142014
C    1.976864    0.770478   7.569523
H    1.473075    0.915674   4.660807
H    1.371081   -0.773809   4.160679
H   -0.619655   -1.122114   5.660530
H   -0.551262    0.563472   6.171227
H    2.629272    0.561713   8.425351
H    1.231895    1.519393   7.868151
H    2.591509    1.160448   6.749286
N   -0.660871    2.813522   3.940708
C   -1.448761    3.967308   4.326115
H    0.323012    2.924465   3.669046
H   -0.992665    4.479133   5.184563
H   -2.450014    3.620889   4.603369
H   -1.539437    4.686710   3.498816
