 29
Energy: -26512.14352215.7 eV PBE+vdW (tier 2 basis)
C    0.133397    0.890010   0.507343
C   -0.839125   -0.071257   1.156544
O   -1.031382   -1.208341   0.708976
H    0.193212    1.863892   1.008135
H   -0.160750    1.040424  -0.538642
H    1.129574    0.430086   0.503558
N   -1.484152    0.388867   2.264918
C   -2.420342   -0.422526   3.044526
C   -3.845041   -0.382546   2.421988
O   -4.785162    0.196840   2.962149
H   -1.367145    1.359240   2.535687
H   -2.054699   -1.459096   2.968576
C   -2.430054    0.029034   4.504116
C   -1.128166   -0.306441   5.232277
S   -0.966615    0.410768   6.896958
C   -2.284284   -0.459259   7.789621
H   -3.285964   -0.451067   4.995083
H   -2.630801    1.109986   4.559450
H   -0.258465    0.094411   4.691225
H   -0.985311   -1.396529   5.296505
H   -3.281890   -0.182621   7.428428
H   -2.195837   -0.153991   8.838732
H   -2.150450   -1.547280   7.728292
N   -3.920123   -1.052407   1.241853
C   -5.123546   -1.081150   0.434608
H   -3.043280   -1.422586   0.865931
H   -5.012461   -0.478038  -0.479030
H   -5.943326   -0.667201   1.031147
H   -5.371813   -2.111221   0.146046
