 29
Energy: -26512.03782915.7 eV PBE+vdW (tier 2 basis)
C    0.451830    0.669136  -0.067998
C    0.090011    0.505763   1.396829
O    0.899333    0.718919   2.299764
H    1.299679    0.010965  -0.295145
H    0.784804    1.700722  -0.237256
H   -0.374288    0.443263  -0.752853
N   -1.203366    0.131177   1.639002
C   -1.659768   -0.241287   2.966923
C   -2.942977   -1.075942   2.748585
O   -3.170821   -1.601630   1.654859
H   -1.756255   -0.291887   0.893128
H   -0.913075   -0.917478   3.423576
C   -1.798276    0.971351   3.905761
C   -2.958049    1.922505   3.557257
S   -4.081079    2.024408   4.992004
C   -5.515834    2.843535   4.249944
H   -0.838925    1.500977   3.879079
H   -1.895237    0.606706   4.941242
H   -3.529070    1.551918   2.692523
H   -2.597319    2.928245   3.308493
H   -6.265983    2.951109   5.041823
H   -5.939331    2.242135   3.435215
H   -5.250467    3.841091   3.878081
N   -3.755869   -1.232603   3.821860
C   -5.001132   -1.974132   3.711527
H   -3.682073   -0.564886   4.586763
H   -5.389387   -2.164519   4.717516
H   -4.816840   -2.928813   3.207171
H   -5.759238   -1.425748   3.131328
