 29
Energy: -26512.06513715.7 eV PBE+vdW (tier 2 basis)
C    0.917035   -0.615026   0.778599
C    0.392676   -0.649607   2.202069
O    1.102874   -0.978745   3.152678
H    1.237010   -1.626919   0.499520
H    1.804071    0.029037   0.743592
H    0.182715   -0.256894   0.047054
N   -0.912596   -0.272344   2.349203
C   -1.637371   -0.425126   3.596314
C   -3.049682   -0.905238   3.233692
O   -3.510761   -0.708374   2.105518
H   -1.516513   -0.164979   1.535166
H   -1.101696   -1.174917   4.199116
C   -1.708359    0.893815   4.404536
C   -0.426964    1.184706   5.189042
S   -0.126160    0.048810   6.586474
C   -1.337437    0.674993   7.786041
H   -2.569083    0.872108   5.089742
H   -1.903737    1.712714   3.694896
H   -0.429863    2.213529   5.576606
H    0.457734    1.068299   4.550379
H   -1.229222    0.059666   8.686872
H   -2.369980    0.581512   7.424710
H   -1.131644    1.721149   8.047090
N   -3.786083   -1.514084   4.202660
C   -3.400965   -1.889742   5.552661
H   -4.722560   -1.757825   3.891702
H   -4.023785   -1.372843   6.298075
H   -2.355507   -1.627025   5.746967
H   -3.509992   -2.973520   5.700305
