 29
Energy: -26512.04025915.7 eV PBE+vdW (tier 2 basis)
C    0.106715   -0.863052   0.060352
C    0.000050   -0.772136   1.568180
O    0.899180   -1.162683   2.316958
H    0.632101   -1.785262  -0.207890
H    0.708118   -0.010918  -0.287005
H   -0.865084   -0.828249  -0.447622
N   -1.145465   -0.195632   2.030224
C   -1.397141    0.054323   3.432566
C   -2.907390   -0.116080   3.660207
O   -3.722004    0.195222   2.791930
H   -1.881525    0.095296   1.393423
H   -0.824872   -0.698781   3.996716
C   -0.968261    1.463694   3.913830
C    0.534811    1.751116   3.793603
S    0.962014    2.475117   2.166349
C    2.732946    2.087372   2.127648
H   -1.256582    1.552446   4.973124
H   -1.555163    2.222772   3.373334
H    1.110828    0.822912   3.909575
H    0.846202    2.456474   4.576436
H    3.121744    2.479222   1.180395
H    2.884853    1.000834   2.159453
H    3.269642    2.571210   2.954059
N   -3.255701   -0.584402   4.890046
C   -4.634628   -0.742717   5.314068
H   -2.513711   -0.865857   5.519592
H   -4.841465   -0.153176   6.217787
H   -4.871606   -1.796947   5.513594
H   -5.272324   -0.384930   4.499181
