 29
Energy: -26511.89889015.7 eV PBE+vdW (tier 2 basis)
C    1.719717   -2.563762   0.844345
C    0.397404   -1.822792   0.916943
O   -0.058300   -1.192726  -0.034057
H    2.519119   -1.834181   0.662626
H    1.696062   -3.245331  -0.014341
H    1.959326   -3.134722   1.750070
N   -0.257961   -1.906468   2.118183
C   -1.488258   -1.156397   2.377135
C   -1.523613   -0.815102   3.878266
O   -1.302448    0.322244   4.284654
H    0.187632   -2.379107   2.895810
H   -1.395321   -0.194023   1.855257
C   -2.719900   -1.892878   1.815590
C   -4.005998   -1.068408   1.747925
S   -4.793614   -0.649852   3.350608
C   -4.422957    1.120814   3.512651
H   -2.899542   -2.831110   2.366693
H   -2.459208   -2.190233   0.788308
H   -4.759393   -1.629651   1.179738
H   -3.835313   -0.128201   1.205339
H   -3.347046    1.304678   3.609560
H   -4.920754    1.445041   4.434537
H   -4.845923    1.683407   2.671267
N   -1.708472   -1.883874   4.715679
C   -1.915812   -1.676637   6.139462
H   -2.150993   -2.701087   4.308581
H   -1.224425   -0.902865   6.487556
H   -1.719185   -2.610083   6.678745
H   -2.943826   -1.341695   6.351869
