 29
Energy: -26511.78987215.7 eV PBE+vdW (tier 2 basis)
C   -0.164334    0.259805  -0.067231
C   -0.616566    0.714155   1.309151
O   -0.499335    1.873836   1.691562
H    0.922596    0.393526  -0.138500
H   -0.624875    0.908220  -0.821892
H   -0.408500   -0.785594  -0.294198
N   -1.170678   -0.264219   2.096708
C   -1.541898   -0.017316   3.490759
C   -1.425967   -1.338437   4.273485
O   -0.531209   -1.540382   5.085875
H   -1.170436   -1.220029   1.761055
H   -0.790447    0.653857   3.926119
C   -2.924696    0.656135   3.604726
C   -3.346765    0.958615   5.043555
S   -2.375945    2.347608   5.724765
C   -2.852742    2.216152   7.466688
H   -3.693538    0.023956   3.128892
H   -2.890447    1.583372   3.014989
H   -3.195792    0.078896   5.689155
H   -4.414496    1.218910   5.075596
H   -3.935277    2.343755   7.598988
H   -2.336762    3.026742   7.994142
H   -2.532838    1.257142   7.894799
N   -2.372488   -2.279977   3.955987
C   -2.433616   -3.572219   4.614622
H   -3.159505   -1.993129   3.385146
H   -2.627536   -4.368019   3.884256
H   -3.214780   -3.601435   5.389255
H   -1.465124   -3.746926   5.094547
