 29
Energy: -26512.16388815.7 eV PBE+vdW (tier 2 basis)
C   -0.014210    1.224693   1.208272
C   -0.175856   -0.053692   2.003839
O    0.599728   -0.354173   2.918422
H   -0.090820    2.075474   1.897057
H   -0.756756    1.346592   0.410208
H    0.991567    1.247189   0.771467
N   -1.229086   -0.844717   1.653618
C   -1.575215   -2.083599   2.352501
C   -0.727408   -3.278919   1.838684
O   -1.213905   -4.203186   1.187761
H   -1.764242   -0.605380   0.826151
H   -1.323435   -1.915984   3.412105
C   -3.068856   -2.364319   2.231764
C   -3.957057   -1.370812   2.985277
S   -3.710823   -1.293026   4.790796
C   -4.302405   -2.932427   5.292334
H   -3.250861   -3.389484   2.578947
H   -3.358914   -2.376688   1.167640
H   -5.017115   -1.583520   2.784672
H   -3.770221   -0.339105   2.653150
H   -5.339937   -3.093758   4.971801
H   -4.265519   -2.949044   6.387724
H   -3.663742   -3.738231   4.910868
N    0.580683   -3.184632   2.192482
C    1.579951   -4.140442   1.759979
H    0.864962   -2.327517   2.675224
H    2.150969   -4.521609   2.617447
H    2.283380   -3.691778   1.042693
H    1.064144   -4.974904   1.273115
