 29
Energy: -26511.99204315.7 eV PBE+vdW (tier 2 basis)
C   -0.746452   -0.342395  -0.812075
C   -0.758182   -0.223840   0.700463
O    0.056844   -0.845887   1.391906
H   -0.895467   -1.396255  -1.078391
H    0.245672   -0.051389  -1.178532
H   -1.507831    0.263100  -1.318410
N   -1.702957    0.615171   1.209673
C   -2.070877    0.908892   2.609077
C   -0.987205    1.458729   3.570568
O   -1.376953    2.101793   4.548475
H   -2.279199    1.085208   0.522432
H   -2.745462    1.771485   2.521575
C   -2.919804   -0.198424   3.272205
C   -2.259759   -1.536484   3.617828
S   -0.979116   -1.534418   4.917402
C   -1.892668   -0.853707   6.329576
H   -3.765943   -0.407941   2.597028
H   -3.356840    0.247141   4.177111
H   -1.744042   -1.966812   2.750287
H   -3.047746   -2.244476   3.916740
H   -2.102720    0.214335   6.193802
H   -1.235393   -0.973398   7.198921
H   -2.819453   -1.413711   6.512955
N    0.311101    1.244811   3.258832
C    1.348884    1.590861   4.212075
H    0.485205    0.458182   2.622454
H    2.318367    1.600880   3.701711
H    1.385063    0.866983   5.043094
H    1.147051    2.582283   4.631383
