 29
Energy: -26512.15003415.7 eV PBE+vdW (tier 2 basis)
C    2.327009   -0.312273   2.257145
C    1.485903   -0.116716   3.504595
O    1.928819   -0.313272   4.633486
H    3.163273    0.398095   2.285545
H    1.768380   -0.167412   1.324321
H    2.757513   -1.320946   2.270194
N    0.187722    0.273790   3.273955
C   -0.683071    0.717033   4.355839
C   -1.818416   -0.269615   4.701170
O   -2.777840    0.083685   5.386068
H   -0.085512    0.578797   2.336456
H   -0.042300    0.732845   5.253791
C   -1.221869    2.138981   4.119669
C   -2.326313    2.311754   3.072529
S   -1.932087    1.795562   1.348562
C   -2.902458    0.266682   1.193778
H   -0.364565    2.784195   3.879002
H   -1.633684    2.499266   5.073414
H   -2.594821    3.374220   3.008892
H   -3.230877    1.768346   3.373266
H   -3.970964    0.471720   1.330225
H   -2.576083   -0.502756   1.903674
H   -2.741040   -0.095596   0.171469
N   -1.655827   -1.529996   4.216722
C   -2.558492   -2.616251   4.537940
H   -0.801384   -1.713865   3.702087
H   -2.069750   -3.370489   5.171221
H   -2.927792   -3.105394   3.625889
H   -3.406472   -2.191390   5.086096
