 29
Energy: -26511.98043215.7 eV PBE+vdW (tier 2 basis)
C    0.028704    0.120870   0.047683
C   -0.000316    0.086388   1.562892
O    1.028788    0.002176   2.234245
H    0.470437   -0.815251  -0.316623
H    0.684979    0.938992  -0.272967
H   -0.958960    0.252174  -0.410762
N   -1.244763    0.174416   2.127438
C   -1.451954    0.055576   3.563784
C   -1.928242   -1.380211   3.871127
O   -3.040079   -1.758010   3.497232
H   -2.062570    0.083711   1.533719
H   -0.473691    0.258181   4.015103
C   -2.478436    1.081509   4.063322
C   -2.643536    1.037498   5.582600
S   -3.799776    2.265954   6.264590
C   -2.853001    3.796941   6.043682
H   -3.450824    0.888974   3.587985
H   -2.136502    2.074590   3.739089
H   -1.672992    1.147729   6.092528
H   -3.065999    0.071683   5.894588
H   -3.453318    4.595954   6.494245
H   -2.693243    4.038133   4.985650
H   -1.888415    3.745268   6.565617
N   -1.074236   -2.198825   4.542442
C    0.275457   -1.912239   5.015388
H   -1.455035   -3.125119   4.712321
H    0.778796   -2.864797   5.213930
H    0.273408   -1.329323   5.949522
H    0.855432   -1.375673   4.253824
