 29
Energy: -26512.17017415.7 eV PBE+vdW (tier 2 basis)
C    0.377476    0.189899   0.300425
C    0.053305   -0.632879   1.529026
O    0.442819   -1.800145   1.654688
H    1.468156    0.253395   0.199558
H   -0.037453    1.204780   0.326065
H   -0.003017   -0.331874  -0.586301
N   -0.684934   -0.008451   2.489310
C   -1.039799   -0.648775   3.756549
C   -2.305265   -1.534649   3.569799
O   -3.418656   -1.180832   3.957345
H   -1.045945    0.921598   2.309446
H   -0.193717   -1.306311   4.010210
C   -1.244115    0.402631   4.846510
C   -1.310035   -0.212450   6.245736
S   -1.643177    0.983961   7.576497
C   -3.410523    1.298464   7.311520
H   -2.179359    0.942409   4.637404
H   -0.416645    1.125432   4.807330
H   -0.344642   -0.665506   6.514377
H   -2.071543   -1.003158   6.292057
H   -3.990148    0.370169   7.386985
H   -3.605151    1.775632   6.343749
H   -3.723497    1.981722   8.109642
N   -2.040992   -2.706939   2.937708
C   -3.084403   -3.637874   2.554361
H   -1.102647   -2.805413   2.541482
H   -2.780235   -4.667236   2.783228
H   -3.316694   -3.570180   1.480541
H   -3.988164   -3.392418   3.121756
