 29
Energy: -26512.09064215.7 eV PBE+vdW (tier 2 basis)
C    0.061067    0.153101   0.368737
C   -0.439718   -0.341522   1.708942
O    0.157040   -1.219856   2.344279
H   -0.572073    0.927233  -0.081577
H    0.132969   -0.697983  -0.319583
H    1.074122    0.553538   0.499914
N   -1.581479    0.239314   2.170812
C   -2.168940   -0.065837   3.476507
C   -3.056601   -1.343878   3.428583
O   -4.272547   -1.318238   3.617757
H   -2.072372    0.892598   1.571963
H   -1.317541   -0.302380   4.133659
C   -2.901066    1.152226   4.055997
C   -4.029797    1.728144   3.194537
S   -4.890823    3.146337   3.941936
C   -3.621619    4.437510   3.830360
H   -2.145074    1.926057   4.255873
H   -3.325161    0.858928   5.025095
H   -4.808938    0.969781   3.050830
H   -3.683409    2.044247   2.196309
H   -4.087800    5.358367   4.199891
H   -3.308254    4.597892   2.789902
H   -2.746498    4.218853   4.454642
N   -2.339377   -2.469733   3.179659
C   -2.953020   -3.775149   3.040456
H   -1.336562   -2.351977   3.008484
H   -2.855064   -4.156996   2.013583
H   -4.016654   -3.678596   3.282585
H   -2.492814   -4.497982   3.727868
