 29
Energy: -26511.97762315.7 eV PBE+vdW (tier 2 basis)
C   -0.401070   -1.394080   0.523702
C   -1.374939   -0.870555   1.565459
O   -2.564888   -0.698082   1.325696
H    0.580143   -1.671273   0.929051
H   -0.258808   -0.619879  -0.241993
H   -0.847114   -2.264109   0.028433
N   -0.829131   -0.617556   2.803913
C   -1.549961    0.062362   3.882190
C   -2.677127   -0.784051   4.514829
O   -3.561029   -0.249474   5.181656
H    0.177631   -0.685677   2.896732
H   -0.800812    0.195197   4.682748
C   -2.047578    1.472222   3.507234
C   -2.028889    2.454695   4.682676
S   -0.398194    2.741944   5.446893
C    0.462018    3.631790   4.120045
H   -3.069959    1.413901   3.112535
H   -1.416099    1.852272   2.691465
H   -2.655231    2.072995   5.499170
H   -2.443170    3.425142   4.373711
H   -0.077995    4.548101   3.848108
H    0.607239    3.010505   3.227495
H    1.446013    3.907580   4.516712
N   -2.561679   -2.129426   4.356150
C   -3.556441   -3.056435   4.856954
H   -1.865930   -2.456169   3.696285
H   -3.074436   -3.918283   5.336687
H   -4.216415   -3.416682   4.053541
H   -4.166149   -2.525975   5.595923
