 29
Energy: -26512.01156015.7 eV PBE+vdW (tier 2 basis)
C   -0.885187    0.726744   0.076796
C   -0.875013    0.121283   1.466051
O   -0.360135   -0.975029   1.704630
H    0.139610    0.741126  -0.313086
H   -1.298916    1.742015   0.048007
H   -1.478812    0.080362  -0.582473
N   -1.467573    0.868464   2.437642
C   -1.580748    0.357781   3.790931
C   -2.630949   -0.772889   3.862514
O   -3.775618   -0.615969   3.431010
H   -1.967781    1.733689   2.222743
H   -0.597808   -0.051832   4.057919
C   -1.898317    1.481258   4.797466
C   -3.261727    2.178299   4.715659
S   -3.525765    3.227307   3.224487
C   -4.880465    2.340485   2.395898
H   -1.095137    2.230323   4.720300
H   -1.813605    1.045688   5.806708
H   -3.370665    2.839159   5.585580
H   -4.079940    1.449310   4.741267
H   -5.000653    2.812822   1.413702
H   -5.815648    2.447323   2.958248
H   -4.628270    1.280193   2.278222
N   -2.253497   -1.927923   4.476471
C   -0.897159   -2.363143   4.791228
H   -2.986876   -2.630471   4.477366
H   -0.935440   -3.420996   5.072273
H   -0.475807   -1.810852   5.643727
H   -0.236755   -2.256222   3.919480
