 29
Energy: -26511.94444315.7 eV PBE+vdW (tier 2 basis)
C    0.252506    1.155869   0.469395
C    0.289889    0.014646   1.465615
O    1.325868   -0.372143   1.996693
H    1.258056    1.577349   0.396943
H   -0.454415    1.941621   0.768733
H   -0.058135    0.800769  -0.523709
N   -0.917144   -0.584997   1.770137
C   -2.220455   -0.322497   1.171373
C   -2.905643    0.962258   1.691763
O   -3.775423    1.519730   1.024017
H   -0.820124   -1.407474   2.360743
H   -2.115787   -0.170679   0.086351
C   -3.119854   -1.554155   1.408098
C   -4.466249   -1.503242   0.691339
S   -5.367098   -3.054401   1.026063
C   -6.914827   -2.701119   0.153128
H   -3.282752   -1.676357   2.491435
H   -2.560544   -2.438641   1.064637
H   -4.320326   -1.394564  -0.393550
H   -5.065987   -0.651453   1.035279
H   -7.556072   -3.580388   0.283782
H   -6.741712   -2.546264  -0.919544
H   -7.421792   -1.825797   0.578763
N   -2.498610    1.376670   2.920208
C   -3.045295    2.546293   3.578932
H   -1.725232    0.873344   3.342543
H   -3.817533    2.965177   2.924800
H   -2.269665    3.306008   3.748970
H   -3.498786    2.281442   4.543987
