 29
Energy: -26512.09533315.7 eV PBE+vdW (tier 2 basis)
C   -3.460693   -1.821988   0.835998
C   -2.312678   -1.620361   1.803202
O   -1.133836   -1.698718   1.440935
H   -3.375254   -1.078915   0.033226
H   -4.450869   -1.732576   1.299395
H   -3.367335   -2.813021   0.375165
N   -2.661439   -1.341012   3.091545
C   -1.679655   -1.083950   4.145783
C   -1.163407   -2.417759   4.749412
O   -1.509406   -2.818444   5.859873
H   -3.637351   -1.407901   3.359349
H   -0.836234   -0.578073   3.652154
C   -2.270314   -0.179329   5.226012
C   -2.625292    1.227010   4.743938
S   -1.113888    2.172724   4.340698
C   -1.865376    3.670272   3.649653
H   -1.553165   -0.126269   6.056560
H   -3.165643   -0.659192   5.651721
H   -3.178102    1.761418   5.529363
H   -3.261512    1.189307   3.846264
H   -1.040341    4.337098   3.374107
H   -2.497792    4.178257   4.389286
H   -2.451419    3.443527   2.749482
N   -0.309744   -3.072614   3.919120
C    0.224562   -4.384534   4.224753
H   -0.194016   -2.680758   2.981394
H    1.311584   -4.404499   4.070689
H   -0.233128   -5.164997   3.598164
H    0.005637   -4.604599   5.274974
