 29
Energy: -26512.05109015.7 eV PBE+vdW (tier 2 basis)
C   -1.532831    1.624357   0.661355
C   -1.124508    0.730065   1.815024
O   -0.181954   -0.064049   1.706512
H   -1.829393    0.989204  -0.182935
H   -0.660538    2.206886   0.341080
H   -2.356517    2.309298   0.896025
N   -1.859287    0.868153   2.954367
C   -1.742996    0.078279   4.190518
C   -0.463094    0.364191   5.021191
O   -0.566830    0.718291   6.196961
H   -2.569937    1.588924   2.954693
H   -2.546429    0.445597   4.841347
C   -1.968434   -1.429699   3.944471
C   -1.990132   -2.230144   5.246447
S   -2.253041   -4.019211   5.028397
C   -3.994656   -4.060558   4.518744
H   -1.192612   -1.827406   3.278849
H   -2.927879   -1.533686   3.415827
H   -2.743856   -1.841116   5.948002
H   -1.021374   -2.163229   5.760746
H   -4.267126   -5.119803   4.444330
H   -4.152996   -3.592488   3.539375
H   -4.637413   -3.584605   5.271007
N    0.708731    0.141534   4.378803
C    1.995294    0.349911   5.012755
H    0.654583   -0.100905   3.382633
H    2.617927   -0.551682   4.933166
H    1.823046    0.576152   6.070299
H    2.536641    1.190010   4.553420
