 29
Energy: -26512.20710815.7 eV PBE+vdW (tier 2 basis)
C   -0.150566   -2.954026   2.103607
C   -0.013080   -1.686774   2.920189
O    0.855577   -0.838635   2.667606
H    0.749656   -3.566807   2.241800
H   -0.201803   -2.683332   1.042199
H   -1.032526   -3.548655   2.370074
N   -0.890203   -1.551954   3.949106
C   -1.008377   -0.320397   4.731395
C    0.057351   -0.272804   5.867751
O   -0.243224   -0.391982   7.055334
H   -1.654574   -2.224521   4.038598
H   -0.792734    0.512341   4.040924
C   -2.409964   -0.163565   5.322994
C   -3.572102   -0.351619   4.343004
S   -4.052211   -2.084956   3.978105
C   -4.761650   -2.585968   5.571374
H   -2.468411    0.851180   5.743339
H   -2.508944   -0.830585   6.190718
H   -3.345258    0.079120   3.356925
H   -4.470955    0.160084   4.713843
H   -4.023546   -2.541308   6.380842
H   -5.088720   -3.624932   5.450192
H   -5.631548   -1.965767   5.821366
N    1.316737   -0.082664   5.401195
C    2.478711   -0.102887   6.266883
H    1.433004   -0.122785   4.382393
H    3.148939    0.733350   6.028483
H    3.042754   -1.043016   6.168147
H    2.137196   -0.008367   7.303076
