 29
Energy: -26511.81140015.7 eV PBE+vdW (tier 2 basis)
C   -0.108475    1.285752   0.656744
C   -0.038902    0.456740   1.923857
O    0.855233    0.595308   2.754129
H   -0.721269    0.830801  -0.131600
H    0.906592    1.450437   0.281145
H   -0.537159    2.265330   0.910354
N   -1.053080   -0.455424   2.081504
C   -1.312453   -1.127769   3.353754
C   -1.288566   -0.089207   4.511576
O   -1.899153    0.968603   4.390708
H   -1.833911   -0.382021   1.441219
H   -2.374107   -1.417354   3.313281
C   -0.528709   -2.443194   3.535306
C    0.999856   -2.356684   3.482618
S    1.690198   -3.897645   4.177781
C    3.460002   -3.578418   3.941570
H   -0.868474   -3.144327   2.759079
H   -0.848821   -2.892471   4.490404
H    1.384764   -1.495564   4.043025
H    1.342587   -2.239052   2.445846
H    3.994058   -4.444229   4.349559
H    3.777405   -2.677565   4.481824
H    3.706574   -3.478840   2.876898
N   -0.670111   -0.467994   5.662631
C   -0.572742    0.428651   6.799932
H   -0.071122   -1.284052   5.648450
H   -0.521306   -0.154076   7.727108
H   -1.463011    1.065692   6.816998
H    0.312253    1.079952   6.732671
