 29
Energy: -26512.09560015.7 eV PBE+vdW (tier 2 basis)
C    0.017048   -0.406769   0.105892
C    0.086880   -0.148871   1.599454
O    1.154446   -0.129056   2.213884
H    0.458369   -1.389617  -0.101614
H    0.629837    0.341742  -0.411449
H   -1.002129   -0.377457  -0.297817
N   -1.113247    0.075457   2.210424
C   -1.237011    0.199911   3.646785
C   -2.692802   -0.179675   3.988128
O   -3.519540   -0.413770   3.106040
H   -1.998538   -0.112327   1.738859
H   -0.563199   -0.534539   4.120739
C   -0.798421    1.594447   4.154838
C   -1.569923    2.784689   3.586231
S   -3.263512    3.060641   4.214464
C   -2.916572    3.546899   5.926357
H    0.260367    1.698482   3.874081
H   -0.814358    1.609591   5.256073
H   -1.698952    2.665919   2.501123
H   -0.997456    3.710853   3.738964
H   -3.878263    3.834046   6.367498
H   -2.238906    4.409806   5.967540
H   -2.498181    2.721688   6.518247
N   -2.971782   -0.285350   5.314151
C   -4.336010   -0.417599   5.792714
H   -2.266205    0.027257   5.970198
H   -4.328265   -0.815864   6.813263
H   -4.877107   -1.109794   5.139477
H   -4.862526    0.550283   5.777932
