 29
Energy: -26512.10210515.7 eV PBE+vdW (tier 2 basis)
C   -1.995650    1.126269  -0.957031
C   -1.403811    0.668993   0.358900
O   -0.392517   -0.043747   0.405824
H   -1.234412    1.697734  -1.502772
H   -2.894239    1.745259  -0.846865
H   -2.238611    0.244361  -1.562750
N   -2.048718    1.087681   1.481589
C   -1.572493    0.820960   2.840343
C   -1.971538   -0.599918   3.341081
O   -2.685416   -0.782922   4.328397
H   -2.911167    1.608970   1.378883
H   -0.472629    0.830606   2.779740
C   -2.021147    1.920121   3.810847
C   -3.530357    2.189228   3.843637
S   -4.049842    3.326332   5.170823
C   -3.883600    2.242186   6.618282
H   -1.488964    2.851223   3.569254
H   -1.691490    1.609582   4.810330
H   -4.092464    1.251905   3.946862
H   -3.875164    2.696755   2.929152
H   -4.248450    2.820245   7.475270
H   -2.841142    1.958045   6.803390
H   -4.495970    1.339943   6.503655
N   -1.429263   -1.599255   2.605286
C   -1.694492   -2.996158   2.892378
H   -0.860513   -1.332574   1.795899
H   -0.969000   -3.612998   2.351426
H   -2.710023   -3.292073   2.587528
H   -1.599963   -3.186232   3.968995
