 29
Energy: -26512.08367215.7 eV PBE+vdW (tier 2 basis)
C    0.718486   -0.418642   0.347361
C    0.465570   -0.390040   1.842680
O    1.364921   -0.571291   2.663353
H    1.482360    0.330125   0.104101
H   -0.177433   -0.224935  -0.254651
H    1.127112   -1.400891   0.079168
N   -0.826051   -0.127376   2.209757
C   -1.275861   -0.226212   3.583583
C   -2.628160   -0.960118   3.565580
O   -3.357932   -0.928115   2.574108
H   -1.575788   -0.156746   1.521272
H   -0.517830   -0.810096   4.129864
C   -1.441515    1.153009   4.265479
C   -0.129024    1.924772   4.364183
S   -0.421644    3.500565   5.237742
C    1.247121    4.206682   5.157019
H   -1.856128    1.001432   5.274380
H   -2.183857    1.738155   3.701573
H    0.268895    2.140142   3.363134
H    0.626538    1.339041   4.906764
H    1.203229    5.176807   5.665323
H    1.562461    4.364910   4.117740
H    1.975438    3.568312   5.673177
N   -2.953717   -1.596412   4.722010
C   -4.221816   -2.273227   4.923842
H   -2.272805   -1.600486   5.472197
H   -4.779442   -1.829558   5.760155
H   -4.072666   -3.343455   5.121873
H   -4.806070   -2.160207   4.005003
