 29
Energy: -26512.13196415.7 eV PBE+vdW (tier 2 basis)
C   -0.213922    0.281446   0.931371
C   -1.233441    0.117116   2.041273
O   -2.444046    0.288358   1.827699
H    0.820324    0.347249   1.290002
H   -0.459966    1.184507   0.361537
H   -0.295017   -0.571901   0.244729
N   -0.726235   -0.254911   3.245217
C   -1.427369   -0.309960   4.539251
C   -2.488945   -1.427226   4.700495
O   -2.501829   -2.084002   5.743689
H    0.283837   -0.231965   3.324400
H   -0.656130   -0.607821   5.260675
C   -1.999432    1.056861   4.978762
C   -0.984632    1.984596   5.655096
S    0.536967    2.406040   4.738397
C   -0.142890    3.359027   3.354334
H   -2.800532    0.870392   5.710807
H   -2.478474    1.544449   4.119199
H   -0.606197    1.518710   6.576895
H   -1.476139    2.923648   5.950165
H    0.712905    3.697072   2.758623
H   -0.688986    4.239285   3.717063
H   -0.800995    2.755535   2.717972
N   -3.374962   -1.564512   3.687721
C   -4.448604   -2.536890   3.725060
H   -3.285777   -0.912255   2.897454
H   -5.430628   -2.045873   3.794451
H   -4.309040   -3.169390   4.608167
H   -4.435844   -3.164585   2.823498
