 29
Energy: -26512.03312415.7 eV PBE+vdW (tier 2 basis)
C    0.196251   -0.364075   1.303938
C   -0.313559    0.240028   2.596108
O    0.404034    0.407721   3.578285
H    1.270021   -0.535129   1.413739
H    0.020063    0.299505   0.445883
H   -0.308372   -1.318513   1.090657
N   -1.639512    0.630217   2.632497
C   -2.695952    0.321054   1.679080
C   -3.312327    1.564654   0.997295
O   -4.322378    1.464128   0.304308
H   -1.926035    0.933522   3.562114
H   -2.243868   -0.260285   0.862630
C   -3.801365   -0.544679   2.306778
C   -3.311606   -1.907967   2.790120
S   -2.777519   -2.955033   1.388940
C   -1.827116   -4.207852   2.289058
H   -4.604381   -0.649546   1.565232
H   -4.241349   -0.005112   3.162218
H   -4.115071   -2.423628   3.333857
H   -2.458144   -1.796356   3.475505
H   -1.450667   -4.914954   1.540950
H   -2.459937   -4.752480   3.001037
H   -0.974520   -3.758911   2.815293
N   -2.638919    2.727876   1.202995
C   -3.037245    3.982419   0.597200
H   -1.807899    2.680906   1.783326
H   -2.268788    4.353315  -0.095750
H   -3.223954    4.749179   1.361519
H   -3.961607    3.801500   0.037900
