 29
Energy: -26512.08690515.7 eV PBE+vdW (tier 2 basis)
C   -0.698506    0.631905  -0.465914
C   -0.329393    0.229318   0.947775
O    0.840720   -0.029739   1.255972
H   -0.452890   -0.199294  -1.139305
H   -0.078676    1.486317  -0.763061
H   -1.756202    0.891230  -0.595232
N   -1.362558    0.176157   1.834161
C   -1.320508   -0.292198   3.229266
C   -0.593259    0.642971   4.229649
O   -1.148729    0.942317   5.287763
H   -2.272254    0.455232   1.489524
H   -2.362974   -0.259318   3.570690
C   -0.812634   -1.743070   3.374235
C   -1.687142   -2.749941   2.628582
S   -1.142289   -4.481292   2.754879
C   -1.492189   -4.834828   4.499011
H   -0.810969   -1.963706   4.451204
H    0.224013   -1.821557   3.023770
H   -1.673133   -2.548610   1.548020
H   -2.737215   -2.683585   2.956511
H   -0.859281   -4.249254   5.176561
H   -1.268064   -5.897790   4.646103
H   -2.550951   -4.663160   4.733226
N    0.654060    1.030344   3.870724
C    1.479672    1.870500   4.714868
H    1.015079    0.677401   2.977037
H    0.887171    2.166220   5.587101
H    1.802437    2.771503   4.174937
H    2.373666    1.330923   5.059944
