 29
Energy: -26512.16195315.7 eV PBE+vdW (tier 2 basis)
C   -1.323465    1.511592   1.261847
C   -0.804606    0.576726   2.335054
O    0.343226    0.109267   2.292788
H   -1.395709    0.961861   0.314421
H   -0.595311    2.318493   1.115477
H   -2.304582    1.941917   1.497173
N   -1.682706    0.277539   3.326506
C   -1.310019   -0.470049   4.529226
C   -1.354157   -2.007605   4.280251
O   -2.182233   -2.736036   4.825059
H   -2.565664    0.788664   3.373221
H   -0.262994   -0.205162   4.756563
C   -2.209501   -0.097799   5.707171
C   -2.233296    1.389377   6.073211
S   -3.360578    2.403607   5.021602
C   -2.231536    3.696852   4.434599
H   -1.852394   -0.666782   6.577213
H   -3.227955   -0.470450   5.524936
H   -1.232046    1.836135   6.001610
H   -2.571826    1.511279   7.109497
H   -1.388064    3.267801   3.878461
H   -1.860699    4.307988   5.266022
H   -2.813719    4.337068   3.761243
N   -0.388204   -2.432146   3.426930
C   -0.287623   -3.808857   2.986271
H    0.177254   -1.703889   2.977281
H   -0.581491   -3.917723   1.931398
H   -0.960113   -4.415079   3.602393
H    0.740010   -4.178588   3.102574
