 29
Energy: -26512.02370015.7 eV PBE+vdW (tier 2 basis)
C    0.039643    0.092908  -0.078257
C    0.084102    0.211417   1.433544
O    1.131927    0.421233   2.046778
H    0.708112   -0.720359  -0.386894
H    0.429260    1.019919  -0.517050
H   -0.964943   -0.096719  -0.475308
N   -1.117719    0.081281   2.066200
C   -1.228134    0.076937   3.509979
C   -2.497051   -0.717465   3.850313
O   -3.362923   -0.923056   2.995081
H   -1.961436   -0.207136   1.574199
H   -0.332664   -0.422591   3.912644
C   -1.260099    1.510669   4.104439
C   -2.483318    2.326027   3.691691
S   -2.491073    4.033223   4.329687
C   -1.190138    4.789179   3.313315
H   -0.335425    1.998241   3.767941
H   -1.205450    1.463107   5.200643
H   -3.408567    1.884862   4.089300
H   -2.590912    2.356760   2.598032
H   -1.158116    5.848173   3.594616
H   -1.432892    4.714802   2.245462
H   -0.204898    4.347371   3.503982
N   -2.651200   -1.158854   5.128765
C   -1.737769   -1.049549   6.253750
H   -3.544034   -1.617270   5.284741
H   -1.911949   -0.141811   6.851257
H   -0.697084   -1.044028   5.910878
H   -1.866399   -1.922146   6.905001
