 29
Energy: -26512.04681915.7 eV PBE+vdW (tier 2 basis)
C    0.730322   -0.946239   0.424875
C    0.235365   -0.777061   1.848312
O    0.820754   -1.281920   2.806456
H    1.775013   -0.616366   0.374247
H    0.142427   -0.392527  -0.317407
H    0.711203   -2.013782   0.171364
N   -0.892611   -0.013401   1.987385
C   -1.560000    0.167855   3.273854
C   -2.839295   -0.695813   3.234818
O   -3.812857   -0.325004   2.569666
H   -1.407563    0.259450   1.156782
H   -0.845716   -0.198016   4.020721
C   -1.878569    1.645953   3.529974
C   -2.066899    2.004533   5.005642
S   -3.324340    1.067030   5.937503
C   -4.852852    1.575164   5.100938
H   -2.766714    1.925249   2.944117
H   -1.037594    2.243247   3.144866
H   -2.286974    3.077625   5.105571
H   -1.139277    1.814050   5.565534
H   -5.675026    1.147485   5.686557
H   -4.899435    1.183193   4.077617
H   -4.951208    2.668428   5.105060
N   -2.801982   -1.912374   3.838422
C   -1.818060   -2.401261   4.794989
H   -3.682471   -2.413827   3.768960
H   -1.994129   -3.471271   4.950991
H   -1.903830   -1.888176   5.766214
H   -0.799076   -2.282805   4.406865
