 29
Energy: -26512.08270015.7 eV PBE+vdW (tier 2 basis)
C   -2.201582   -1.997175   0.211103
C   -2.127580   -1.319422   1.564418
O   -3.142561   -1.156895   2.254600
H   -1.228548   -2.126857  -0.277712
H   -2.849229   -1.398888  -0.442376
H   -2.677050   -2.977833   0.333195
N   -0.886492   -0.914158   1.952513
C   -0.537080   -0.149829   3.161083
C   -0.644353   -0.955895   4.483308
O    0.338731   -1.054900   5.219182
H   -0.117697   -1.141369   1.334568
H    0.539401    0.044984   3.076551
C   -1.275220    1.204904   3.223036
C   -0.841387    2.054058   4.417354
S   -1.624386    3.696495   4.487041
C   -3.321588    3.250704   4.946876
H   -2.357131    1.025132   3.254836
H   -1.069092    1.750818   2.290867
H    0.237264    2.264261   4.379535
H   -1.026023    1.535913   5.369374
H   -3.339707    2.697906   5.895178
H   -3.824475    2.668495   4.165237
H   -3.861907    4.195260   5.079683
N   -1.871729   -1.461498   4.757890
C   -2.142746   -2.237960   5.951231
H   -2.589608   -1.359964   4.030880
H   -1.259656   -2.192079   6.597269
H   -2.349017   -3.290616   5.707425
H   -3.007554   -1.829591   6.491856
