 29
Energy: -26512.09168715.7 eV PBE+vdW (tier 2 basis)
C   -3.139080    0.438211   0.754720
C   -1.962433    0.218162   1.684147
O   -0.800893    0.423948   1.307880
H   -4.116505    0.277468   1.225269
H   -3.040862   -0.244704  -0.098976
H   -3.092052    1.460707   0.361242
N   -2.274123   -0.215794   2.936520
C   -1.337771   -0.612058   4.002189
C   -0.583034    0.560250   4.680733
O   -0.582568    0.653349   5.908356
H   -3.258042   -0.302065   3.157176
H   -1.971242   -1.005044   4.807580
C   -0.353688   -1.719730   3.569479
C   -1.056596   -3.009165   3.146247
S    0.058627   -4.303989   2.516859
C    0.484212   -3.618236   0.892030
H    0.308497   -1.923546   4.422218
H    0.276311   -1.343856   2.754181
H   -1.822741   -2.814461   2.380949
H   -1.566798   -3.473959   4.002837
H   -0.410264   -3.499043   0.266759
H    1.152697   -4.345730   0.417133
H    1.010143   -2.659499   0.971972
N    0.075446    1.393972   3.838517
C    0.857324    2.518584   4.311993
H    0.015018    1.191452   2.835064
H    0.506522    3.458008   3.862408
H    1.922623    2.391633   4.070633
H    0.746272    2.577133   5.399885
