 29
Energy: -26512.08367315.7 eV PBE+vdW (tier 2 basis)
C    0.050728    0.494307   0.103481
C   -0.021118    0.470951   1.618484
O    0.918462    0.833618   2.328153
H    0.895284   -0.127683  -0.218056
H    0.257315    1.520800  -0.223905
H   -0.863882    0.139110  -0.386719
N   -1.197748    0.020942   2.142458
C   -1.414911   -0.091562   3.570571
C   -2.432895   -1.221766   3.774580
O   -3.340394   -1.413779   2.964331
H   -1.962479   -0.303438   1.556322
H   -0.446139   -0.339668   4.032920
C   -1.918200    1.248068   4.168903
C   -1.970295    1.272646   5.695065
S   -2.416575    2.887331   6.414314
C   -0.926299    3.857050   6.047529
H   -2.909230    1.477573   3.752585
H   -1.223278    2.017739   3.807223
H   -1.008005    0.953842   6.128526
H   -2.742648    0.592219   6.080239
H   -1.083068    4.840215   6.506287
H   -0.775327    3.994502   4.970366
H   -0.035466    3.396689   6.493740
N   -2.269716   -1.952124   4.910593
C   -3.177529   -3.013322   5.306337
H   -1.466296   -1.750837   5.493880
H   -3.612861   -2.812400   6.294771
H   -2.665887   -3.985296   5.332823
H   -3.979882   -3.055594   4.562725
