 29
Energy: -26512.06580615.7 eV PBE+vdW (tier 2 basis)
C   -2.359198   -1.636007  -0.043244
C   -2.324877   -1.159676   1.395218
O   -3.257805   -1.400668   2.171378
H   -2.507006   -2.722719  -0.051243
H   -1.457420   -1.391216  -0.617311
H   -3.228266   -1.184526  -0.538344
N   -1.211000   -0.463185   1.757508
C   -0.948466    0.185766   3.051918
C   -0.674872   -0.796166   4.222853
O    0.375610   -0.705312   4.860668
H   -0.482199   -0.372953   1.060909
H    0.015615    0.694520   2.926625
C   -2.015699    1.246118   3.401294
C   -1.668700    2.017597   4.674497
S   -2.887506    3.284632   5.144674
C   -2.620004    4.530035   3.853964
H   -2.999688    0.774190   3.511860
H   -2.084714    1.933441   2.544745
H   -0.674587    2.485334   4.605599
H   -1.636210    1.343042   5.541395
H   -3.263316    5.380078   4.109789
H   -2.905538    4.167100   2.858874
H   -1.576178    4.870728   3.843830
N   -1.673266   -1.671073   4.493391
C   -1.583690   -2.648505   5.559759
H   -2.473675   -1.676865   3.850432
H   -0.667458   -2.453200   6.126899
H   -1.543443   -3.672873   5.161278
H   -2.448445   -2.569637   6.232784
