 29
Energy: -26512.05824015.7 eV PBE+vdW (tier 2 basis)
C    0.322956    0.646705   0.283164
C    0.020833   -0.173051   1.519442
O    0.200751   -1.397218   1.550590
H    1.393734    0.559782   0.059022
H    0.068152    1.708636   0.385478
H   -0.226261    0.224601  -0.567345
N   -0.454547    0.517967   2.591576
C   -0.709607   -0.092451   3.897382
C   -2.105785   -0.780390   3.954130
O   -3.011071   -0.396862   4.694489
H   -0.645349    1.507704   2.488468
H    0.037423   -0.895059   3.999562
C   -0.488648    0.914501   5.031906
C   -1.340651    2.184607   4.972366
S   -0.863109    3.278702   6.352857
C   -2.088022    4.598050   6.134302
H    0.578596    1.184728   5.041018
H   -0.698643    0.398134   5.978419
H   -2.403050    1.926450   5.056860
H   -1.185623    2.744108   4.034045
H   -1.906688    5.329112   6.930700
H   -3.110027    4.210667   6.234086
H   -1.970531    5.098131   5.163832
N   -2.195936   -1.851239   3.125727
C   -3.416534   -2.617880   2.973739
H   -1.389021   -2.042800   2.524353
H   -3.175647   -3.680676   2.847549
H   -4.005883   -2.286098   2.104615
H   -4.027602   -2.487285   3.873474
