 29
Energy: -26512.00306015.7 eV PBE+vdW (tier 2 basis)
C   -2.746201   -1.432422   0.387152
C   -1.753351   -1.004781   1.450996
O   -0.553936   -0.888861   1.221110
H   -2.365117   -2.329831  -0.113846
H   -2.811579   -0.639358  -0.369296
H   -3.752680   -1.633904   0.774894
N   -2.292447   -0.771184   2.697685
C   -1.516095   -0.174094   3.778300
C   -1.552794   -1.029964   5.063839
O   -1.436577   -0.528290   6.180055
H   -3.303475   -0.767577   2.785478
H   -0.475471   -0.201104   3.410595
C   -1.917511    1.293482   4.029070
C   -0.837655    2.115966   4.736691
S   -1.241823    3.879425   4.924343
C   -1.076078    4.466408   3.215693
H   -2.848577    1.338735   4.612759
H   -2.125434    1.734059   3.043181
H    0.126283    2.029210   4.211087
H   -0.692138    1.747072   5.758667
H   -1.237226    5.550430   3.244835
H   -1.825049    4.023674   2.547149
H   -0.068290    4.270322   2.826749
N   -1.683861   -2.369379   4.852423
C   -1.636654   -3.341368   5.926197
H   -1.764105   -2.684091   3.892366
H   -0.747589   -3.983355   5.846574
H   -2.533411   -3.976127   5.925395
H   -1.590159   -2.789094   6.870859
