 29
Energy: -26512.18746215.7 eV PBE+vdW (tier 2 basis)
C    0.094937    0.329742  -0.342874
C    0.191266    0.347755   1.170141
O    1.276506    0.361544   1.759659
H    0.610143   -0.563578  -0.717606
H    0.624529    1.203563  -0.742141
H   -0.936012    0.333310  -0.716508
N   -0.994541    0.359230   1.837254
C   -1.053738    0.258160   3.278176
C   -2.440761   -0.306838   3.633760
O   -3.346705   -0.367779   2.797827
H   -1.890283    0.223688   1.369007
H   -0.296789   -0.474628   3.598302
C   -0.756768    1.602054   4.007113
C    0.522770    1.574644   4.842041
S    0.477376    0.358965   6.222761
C    1.750458   -0.831767   5.703343
H   -1.610389    1.890503   4.637567
H   -0.657009    2.385770   3.242386
H    0.707956    2.558990   5.290653
H    1.379412    1.318827   4.206029
H    1.743516   -1.637023   6.447246
H    2.739761   -0.359910   5.698422
H    1.536164   -1.249712   4.712972
N   -2.552198   -0.707622   4.922013
C   -3.786543   -1.211439   5.490076
H   -1.726385   -0.593393   5.518676
H   -3.653191   -2.228547   5.883863
H   -4.540317   -1.234270   4.696180
H   -4.143476   -0.563400   6.303254
