 29
Energy: -26511.85748715.7 eV PBE+vdW (tier 2 basis)
C    0.027921    0.426583  -0.011356
C    0.040632    0.520416   1.506033
O    1.048233    0.846596   2.124466
H   -0.958177    0.208924  -0.440288
H    0.731387   -0.357452  -0.319335
H    0.395431    1.374025  -0.423237
N   -1.164220    0.234963   2.108532
C   -1.361717    0.058917   3.553741
C   -2.841502   -0.211736   3.870059
O   -3.160867   -0.912826   4.824013
H   -1.849558   -0.225764   1.518767
H   -0.827766   -0.840233   3.898808
C   -0.848030    1.244406   4.410370
C   -1.417912    2.612899   4.036469
S   -0.586141    4.008140   4.864691
C    0.980707    4.053993   3.947193
H    0.242690    1.259024   4.320776
H   -1.091593    1.010985   5.455698
H   -2.471144    2.707643   4.336626
H   -1.368746    2.785422   2.950703
H    1.568363    4.867672   4.388044
H    0.809375    4.271511   2.885268
H    1.542486    3.117977   4.041878
N   -3.750782    0.389569   3.040559
C   -5.178992    0.328825   3.297378
H   -3.404522    1.086572   2.389627
H   -5.731921    0.260212   2.352694
H   -5.533466    1.207877   3.856866
H   -5.375590   -0.562896   3.901185
