 29
Energy: -26512.08933415.7 eV PBE+vdW (tier 2 basis)
C    0.100764   -0.377348   0.451426
C   -0.311075    0.581503   1.550633
O    0.015468    1.776390   1.513682
H    1.196389   -0.389390   0.391415
H   -0.273149    0.002939  -0.507154
H   -0.260253   -1.402532   0.596102
N   -1.060610    0.044909   2.550102
C   -1.452440    0.686272   3.813843
C   -2.534615    1.790676   3.708719
O   -3.488644    1.774820   4.487315
H   -1.231032   -0.952779   2.508759
H   -1.955152   -0.104791   4.381979
C   -0.251360    1.184553   4.648049
C    0.861180    0.153879   4.827972
S    0.232860   -1.408610   5.542281
C    1.775226   -2.361274   5.566578
H   -0.649911    1.492557   5.625277
H    0.185830    2.076176   4.178204
H    1.633276    0.561059   5.496023
H    1.337026   -0.072071   3.862258
H    1.531016   -3.347403   5.977702
H    2.525218   -1.885210   6.211124
H    2.182058   -2.489621   4.555067
N   -2.317445    2.742034   2.768568
C   -3.219203    3.859405   2.574311
H   -1.455544    2.666006   2.215649
H   -3.530252    3.930637   1.523017
H   -2.747542    4.810043   2.864248
H   -4.102039    3.699841   3.202468
