 29
Energy: -26511.97200115.7 eV PBE+vdW (tier 2 basis)
C    1.337970   -0.017068   0.870532
C    0.741781   -0.667601   2.103990
O    1.402630   -1.371438   2.860138
H    0.593649    0.440652   0.206896
H    1.907950   -0.768612   0.312400
H    2.046202    0.757670   1.192684
N   -0.600256   -0.423656   2.305820
C   -1.279995   -0.801768   3.539343
C   -2.474089   -1.751269   3.289473
O   -3.412503   -1.831315   4.079715
H   -1.053476    0.260340   1.708619
H   -0.527885   -1.388119   4.094959
C   -1.671226    0.436872   4.369659
C   -1.861521    0.146853   5.857676
S   -2.181577    1.714783   6.734578
C   -2.477532    1.075266   8.403621
H   -2.590241    0.885496   3.962237
H   -0.863524    1.174730   4.250746
H   -0.952744   -0.316232   6.272481
H   -2.707537   -0.534170   6.006673
H   -1.593659    0.554836   8.794811
H   -3.344589    0.402634   8.423494
H   -2.686877    1.942050   9.041170
N   -2.377448   -2.504371   2.159257
C   -3.345311   -3.525385   1.812327
H   -1.555207   -2.372342   1.581620
H   -2.901349   -4.530297   1.857574
H   -3.748701   -3.361195   0.803760
H   -4.162935   -3.467344   2.538748
