 29
Energy: -26512.22191715.7 eV PBE+vdW (tier 2 basis)
C   -0.317693   -4.372335   4.086963
C    0.102878   -2.918262   4.066482
O    1.212445   -2.565637   3.639605
H   -1.364153   -4.517539   4.380730
H    0.329284   -4.920894   4.783769
H   -0.157924   -4.797702   3.088947
N   -0.806175   -2.036173   4.558006
C   -0.633071   -0.585805   4.462680
C    0.254196   -0.049751   5.626612
O   -0.206782    0.626044   6.546196
H   -1.743513   -2.370035   4.791140
H   -0.093010   -0.395229   3.520039
C   -1.978684    0.141090   4.454501
C   -3.020428   -0.395062   3.467534
S   -3.961042   -1.873984   4.006868
C   -4.972423   -1.172246   5.337971
H   -1.772896    1.193128   4.208140
H   -2.377165    0.167492   5.478343
H   -2.559419   -0.699815   2.516739
H   -3.755933    0.385287   3.227673
H   -5.584222   -1.994386   5.726578
H   -5.635056   -0.387959   4.950909
H   -4.357821   -0.774807   6.154347
N    1.557698   -0.403677   5.501373
C    2.546509   -0.102968   6.517215
H    1.775515   -1.071030   4.752894
H    3.463006    0.288340   6.056438
H    2.804976   -0.994437   7.109101
H    2.128903    0.653354   7.190208
