 29
Energy: -26512.04730515.7 eV PBE+vdW (tier 2 basis)
C    0.023938    0.132474   0.008000
C   -0.024766    0.255290   1.518010
O    1.006774    0.421642   2.181877
H    0.652058   -0.729155  -0.251463
H    0.510176    1.025351  -0.403622
H   -0.959266    0.009810  -0.462208
N   -1.263776    0.172038   2.075448
C   -1.599350    0.153906   3.508283
C   -1.447440    1.517432   4.232142
O   -2.381101    1.959027   4.901744
H   -2.044125    0.081006   1.437431
H   -2.678238   -0.035599   3.553557
C   -0.887886   -0.964026   4.292585
C   -1.075611   -2.376107   3.735774
S   -2.766771   -3.071218   3.783978
C   -3.460767   -2.566048   2.182789
H   -1.271034   -0.920010   5.321941
H    0.190946   -0.755624   4.336792
H   -0.482619   -3.075673   4.340536
H   -0.699894   -2.459985   2.705833
H   -4.352891   -3.184370   2.028143
H   -2.752965   -2.769191   1.368788
H   -3.768331   -1.512558   2.163611
N   -0.238973    2.117664   4.096003
C    0.076425    3.381961   4.729926
H    0.463568    1.634779   3.525867
H    0.881823    3.265985   5.469697
H   -0.823334    3.740717   5.240920
H    0.390318    4.127359   3.985841
