 29
Energy: -26512.02536215.7 eV PBE+vdW (tier 2 basis)
C    1.523887    0.031794   0.745127
C    0.728500   -1.089911   1.396139
O    1.283074   -2.029963   1.960782
H    1.168808    1.028504   1.042185
H    2.570169   -0.081266   1.040596
H    1.462816   -0.031265  -0.350966
N   -0.636290   -1.014539   1.317563
C   -1.455399    0.015611   0.718014
C   -2.848582   -0.103383   1.382803
O   -3.200620   -1.142219   1.941258
H   -1.166990   -1.745718   1.794589
H   -1.047117    1.010054   0.962627
C   -1.568243   -0.101458  -0.836078
C   -1.250280    1.178904  -1.611159
S   -2.365348    2.607564  -1.373641
C   -3.884139    1.995889  -2.155173
H   -2.559800   -0.485207  -1.117877
H   -0.853585   -0.872589  -1.158618
H   -1.205257    0.969793  -2.689754
H   -0.264902    1.570373  -1.319865
H   -4.609905    2.815772  -2.106856
H   -4.295974    1.126771  -1.627124
H   -3.704624    1.743956  -3.207632
N   -3.619695    1.004468   1.269514
C   -4.992132    1.057488   1.734158
H   -3.245158    1.783694   0.719934
H   -5.142486    1.909195   2.410823
H   -5.203330    0.129370   2.275171
H   -5.697389    1.147034   0.894268
