 29
Energy: -26511.91054615.7 eV PBE+vdW (tier 2 basis)
C    0.316565   -0.628657   0.625798
C   -0.091095    0.504570   1.553448
O    0.557755    1.544658   1.629319
H    1.177776   -0.291930   0.043218
H   -0.493825   -0.909196  -0.062177
H    0.600342   -1.528351   1.188882
N   -1.221354    0.324148   2.309400
C   -2.131483   -0.800123   2.331920
C   -3.501858   -0.253750   2.791499
O   -3.599034    0.813114   3.394268
H   -1.528122    1.128073   2.858454
H   -2.244537   -1.209891   1.314942
C   -1.669703   -1.959438   3.256760
C   -1.536298   -1.557464   4.722315
S   -0.944450   -2.989150   5.681532
C   -0.791766   -2.224623   7.317227
H   -0.701198   -2.326879   2.887983
H   -2.376198   -2.799164   3.161700
H   -2.501356   -1.222879   5.129964
H   -0.817761   -0.732012   4.825564
H   -0.435261   -3.007059   7.997032
H   -1.760516   -1.856506   7.678511
H   -0.061818   -1.405209   7.306467
N   -4.561779   -1.059106   2.510768
C   -5.917605   -0.755142   2.932562
H   -4.394090   -1.914003   1.993815
H   -6.591301   -0.676137   2.068724
H   -5.893259    0.207334   3.453396
H   -6.302539   -1.523517   3.617266
