 29
Energy: -26512.18997815.7 eV PBE+vdW (tier 2 basis)
C    0.580726    0.748070   0.538106
C    0.060804    0.653492   1.960896
O    0.489274    1.369809   2.866197
H    1.661977    0.562635   0.546843
H    0.427449    1.771394   0.173667
H    0.101272    0.045313  -0.154178
N   -0.918318   -0.274883   2.164023
C   -1.469741   -0.552221   3.473866
C   -1.941176   -2.016955   3.454433
O   -2.267582   -2.567855   2.399415
H   -1.216290   -0.916932   1.432472
H   -0.666753   -0.420572   4.214807
C   -2.614997    0.440064   3.806123
C   -3.350232    0.219377   5.127964
S   -2.203962    0.179038   6.555746
C   -3.387077   -0.220790   7.868890
H   -3.354638    0.391563   2.992624
H   -2.171976    1.445344   3.784619
H   -3.910773   -0.727309   5.113666
H   -4.069768    1.034814   5.286740
H   -4.141329    0.569596   7.971494
H   -2.815702   -0.287446   8.801678
H   -3.881353   -1.183377   7.683667
N   -1.966077   -2.620124   4.668986
C   -2.466812   -3.966117   4.867536
H   -1.738725   -2.042607   5.482586
H   -3.436689   -3.965848   5.387858
H   -1.753781   -4.561033   5.453063
H   -2.597750   -4.427440   3.883211
