 29
Energy: -26512.11169915.7 eV PBE+vdW (tier 2 basis)
C   -0.007318    0.172793  -0.174069
C   -0.137127   -0.055063   1.320585
O    0.839817   -0.261018   2.041260
H    0.649801    1.034573  -0.344672
H   -0.965933    0.347812  -0.677337
H    0.479663   -0.702530  -0.621671
N   -1.410430    0.000860   1.811330
C   -1.724632   -0.324807   3.186408
C   -3.200935   -0.765372   3.201814
O   -3.916242   -0.646929   2.202128
H   -2.221386    0.001123   1.193067
H   -1.099657   -1.180761   3.493110
C   -1.390014    0.834857   4.156197
C   -2.078995    2.169188   3.874144
S   -3.837805    2.267012   4.396453
C   -4.699219    2.491540   2.813313
H   -0.301311    0.980544   4.088868
H   -1.591410    0.518900   5.191926
H   -2.031265    2.409712   2.803815
H   -1.547883    2.968326   4.407044
H   -5.759643    2.615650   3.064365
H   -4.586183    1.609879   2.171845
H   -4.353743    3.399396   2.303776
N   -3.630958   -1.335076   4.356240
C   -5.042000   -1.575447   4.600642
H   -3.022567   -1.262762   5.163492
H   -5.153838   -2.334048   5.383046
H   -5.504636   -1.938298   3.677437
H   -5.557070   -0.651431   4.909417
