 29
Energy: -26512.02718515.7 eV PBE+vdW (tier 2 basis)
C   -0.279595    0.407187   0.091747
C   -0.638670    0.065300   1.525532
O    0.205092   -0.023703   2.410304
H    0.529187   -0.254911  -0.238852
H    0.108169    1.433806   0.063521
H   -1.120694    0.327560  -0.608372
N   -1.980953   -0.153135   1.757602
C   -2.527734   -0.294840   3.101236
C   -3.175369   -1.672996   3.371629
O   -3.883667   -1.852345   4.358840
H   -2.630749    0.080277   1.013316
H   -1.651736   -0.246697   3.769896
C   -3.503041    0.838839   3.447340
C   -2.805284    2.188997   3.583324
S   -4.046943    3.498531   3.839330
C   -2.953721    4.937898   3.965894
H   -4.007903    0.566439   4.382751
H   -4.287676    0.893252   2.673419
H   -2.223137    2.429274   2.680440
H   -2.111496    2.173566   4.437107
H   -2.271324    4.846825   4.820792
H   -3.598875    5.810304   4.121457
H   -2.376335    5.085840   3.043809
N   -2.871627   -2.643647   2.467923
C   -3.298267   -4.019552   2.626151
H   -2.234145   -2.394115   1.720305
H   -4.002599   -4.053779   3.464269
H   -2.449096   -4.680979   2.851462
H   -3.799812   -4.382196   1.718829
