 29
Energy: -26512.07637315.7 eV PBE+vdW (tier 2 basis)
C   -1.084920   -1.154374  -0.076921
C   -0.891464   -0.412959   1.234062
O   -0.337290    0.679572   1.299040
H   -1.446292   -0.444953  -0.830164
H   -1.781945   -1.998586  -0.000416
H   -0.113716   -1.531344  -0.424684
N   -1.354712   -1.082323   2.347332
C   -1.490480   -0.400087   3.630457
C   -0.355492   -0.678853   4.637967
O   -0.378510   -0.161672   5.753614
H   -2.029250   -1.831370   2.173818
H   -1.421029    0.680233   3.420851
C   -2.843520   -0.707610   4.296379
C   -4.053070   -0.470231   3.385534
S   -4.453472   -1.982124   2.420870
C   -5.167100   -1.251112   0.924261
H   -2.910559   -0.067665   5.184842
H   -2.852700   -1.743275   4.674257
H   -3.851679    0.343030   2.673153
H   -4.937916   -0.193797   3.972400
H   -5.448405   -2.083125   0.268370
H   -4.434196   -0.618455   0.406566
H   -6.066033   -0.667875   1.157970
N    0.620506   -1.512851   4.197832
C    1.794927   -1.831037   4.982839
H    0.537897   -1.842511   3.242055
H    2.706216   -1.421089   4.524113
H    1.912290   -2.917589   5.096072
H    1.663915   -1.379968   5.972529
