 29
Energy: -26512.03255615.7 eV PBE+vdW (tier 2 basis)
C   -3.112876   -1.826746  -0.644339
C   -2.327342   -1.657015   0.642437
O   -1.376572   -0.889169   0.735270
H   -3.653597   -0.893389  -0.849504
H   -3.833491   -2.654018  -0.619163
H   -2.410573   -1.984285  -1.471023
N   -2.753690   -2.437892   1.697041
C   -2.254370   -2.257634   3.054828
C   -1.497596   -3.485837   3.611578
O   -1.238954   -3.576706   4.808788
H   -3.626791   -2.943433   1.584904
H   -1.497605   -1.458947   2.973591
C   -3.363873   -1.818127   4.022405
C   -3.877551   -0.410073   3.727757
S   -5.218272    0.160499   4.819845
C   -6.607736   -0.832010   4.209661
H   -2.960843   -1.871925   5.040895
H   -4.187606   -2.550145   3.976637
H   -4.213064   -0.305042   2.684574
H   -3.073065    0.324789   3.874414
H   -6.463428   -1.904635   4.389699
H   -6.785335   -0.650624   3.141045
H   -7.490433   -0.504029   4.770943
N   -1.127921   -4.409180   2.682667
C   -0.312148   -5.561767   3.008755
H   -1.345998   -4.201773   1.714660
H   -0.772962   -6.486872   2.637084
H   -0.231939   -5.613084   4.099919
H    0.698631   -5.472933   2.584631
