 29
Energy: -26512.14213815.7 eV PBE+vdW (tier 2 basis)
C   -0.416911    0.040284   0.063441
C   -0.384461   -0.235178   1.554991
O    0.613961   -0.670675   2.120938
H    0.367880    0.769447  -0.173640
H   -1.381501    0.423898  -0.291110
H   -0.175132   -0.884071  -0.475955
N   -1.566093    0.016056   2.216241
C   -1.644279    0.001754   3.670675
C   -2.527811   -1.130169   4.242821
O   -2.843332   -1.142009   5.432244
H   -2.296512    0.539861   1.728357
H   -0.622092   -0.231487   4.011850
C   -2.056609    1.359046   4.265733
C   -3.481908    1.821914   3.949131
S   -3.650892    2.447949   2.233126
C   -5.454449    2.575820   2.124421
H   -1.324843    2.119905   3.956767
H   -1.980986    1.260520   5.356699
H   -3.770102    2.634173   4.630413
H   -4.193374    0.995979   4.093146
H   -5.932055    1.596206   2.250937
H   -5.686954    2.961620   1.125330
H   -5.840493    3.278424   2.873725
N   -2.889748   -2.088744   3.350680
C   -3.619940   -3.280192   3.731117
H   -2.540601   -1.983170   2.404158
H   -3.911380   -3.169198   4.781307
H   -2.998275   -4.181519   3.629811
H   -4.523109   -3.402443   3.117646
