 29
Energy: -26512.09532015.7 eV PBE+vdW (tier 2 basis)
C    0.107681    0.170301   0.020168
C    0.117410    0.403666   1.521441
O    1.089882    0.864093   2.120808
H    1.082351    0.453940  -0.385230
H   -0.673462    0.771138  -0.465632
H   -0.088643   -0.884790  -0.215911
N   -1.044705    0.077415   2.160435
C   -1.174727    0.127049   3.600790
C   -2.307705   -0.845787   3.973146
O   -3.046881   -1.342454   3.120487
H   -1.793502   -0.430232   1.689899
H   -0.227975   -0.220300   4.047929
C   -1.433291    1.561817   4.128494
C   -2.761865    2.154433   3.666368
S   -3.052182    3.868076   4.213926
C   -1.868939    4.768811   3.172200
H   -0.589668    2.174239   3.783939
H   -1.391258    1.565640   5.228167
H   -3.611549    1.591254   4.079047
H   -2.853068    2.111842   2.571494
H   -2.006990    5.831837   3.401278
H   -2.079760    4.606566   2.107403
H   -0.830369    4.495645   3.393049
N   -2.453459   -1.096034   5.298194
C   -3.507574   -1.958521   5.806857
H   -1.806935   -0.673566   5.952280
H   -3.428615   -2.005985   6.897445
H   -3.418397   -2.972843   5.395551
H   -4.498122   -1.569678   5.535470
