 29
Energy: -26512.12810515.7 eV PBE+vdW (tier 2 basis)
C   -0.111809    0.049025   0.927873
C   -1.166232   -0.114622   2.002853
O   -2.364642    0.116018   1.778783
H    0.285463    1.073646   0.974072
H   -0.573070   -0.099266  -0.052839
H    0.730470   -0.643618   1.048075
N   -0.694039   -0.506757   3.215390
C   -1.406165   -0.471249   4.503362
C   -2.496374   -1.557953   4.690542
O   -2.528656   -2.199334   5.742365
H    0.314123   -0.567239   3.292200
H   -0.653044   -0.750993   5.250848
C   -1.965347    0.918905   4.876299
C   -0.933991    1.931545   5.383437
S    0.373822    2.488954   4.236546
C   -0.609976    3.387066   3.005032
H   -2.688814    0.765133   5.692609
H   -2.539139    1.324013   4.032210
H   -0.375040    1.512721   6.233590
H   -1.453872    2.826533   5.756912
H    0.103089    3.810009   2.287696
H   -1.164541    4.210244   3.474194
H   -1.305776    2.731513   2.467897
N   -3.384435   -1.684485   3.676942
C   -4.482391   -2.628939   3.720872
H   -3.269263   -1.054716   2.873019
H   -4.394882   -3.212722   4.643370
H   -4.448927   -3.309454   2.858585
H   -5.452544   -2.110980   3.719268
