 29
Energy: -26512.13055415.7 eV PBE+vdW (tier 2 basis)
C   -1.050534   -0.121195  -0.010645
C   -0.519458   -0.140821   1.409107
O    0.662759    0.148523   1.652838
H   -1.135118    0.921918  -0.343706
H   -2.027302   -0.606946  -0.122586
H   -0.321749   -0.614773  -0.663590
N   -1.429416   -0.460707   2.365467
C   -1.177711   -0.738668   3.789570
C   -0.748139    0.467134   4.662046
O   -1.258857    0.609913   5.775184
H   -2.320799   -0.805951   2.028789
H   -2.162086   -0.993813   4.202121
C   -0.231945   -1.940159   4.015373
C   -0.914089   -3.310471   3.946435
S   -1.828670   -3.738447   2.425311
C   -0.480115   -3.807064   1.215913
H    0.199570   -1.847915   5.024188
H    0.611414   -1.875625   3.314853
H   -1.677838   -3.389647   4.734085
H   -0.176491   -4.104601   4.135541
H    0.012727   -2.835957   1.087941
H   -0.931807   -4.103149   0.262055
H    0.263630   -4.561600   1.502500
N    0.213208    1.270273   4.156920
C    0.732640    2.396865   4.907830
H    0.622258    1.005700   3.251521
H    1.241846    3.080041   4.219304
H    1.444959    2.079796   5.685280
H   -0.088885    2.926345   5.405355
