 29
Energy: -26512.10836215.7 eV PBE+vdW (tier 2 basis)
C   -3.248392   -2.188165  -0.735939
C   -2.454750   -2.060817   0.547027
O   -1.251863   -1.774839   0.545819
H   -3.202902   -1.231823  -1.271880
H   -4.299834   -2.458796  -0.580350
H   -2.773127   -2.943163  -1.374060
N   -3.148545   -2.270103   1.701824
C   -2.537626   -2.158638   3.027632
C   -1.838062   -3.492147   3.411214
O   -2.316236   -4.277589   4.226886
H   -4.102481   -2.609860   1.648044
H   -1.761546   -1.383191   2.933600
C   -3.570573   -1.745933   4.075390
C   -4.118152   -0.336949   3.847643
S   -5.329165    0.225165   5.088611
C   -6.756246   -0.819274   4.679995
H   -3.101550   -1.806239   5.065821
H   -4.380054   -2.491372   4.091843
H   -4.565780   -0.227887   2.848273
H   -3.307518    0.403770   3.911530
H   -7.571110   -0.495786   5.337982
H   -6.559574   -1.881694   4.868135
H   -7.068779   -0.671811   3.637543
N   -0.668510   -3.681220   2.743633
C    0.105873   -4.901481   2.857597
H   -0.447252   -3.006349   2.008151
H    0.016409   -5.524992   1.955151
H   -0.275855   -5.467723   3.713622
H    1.166797   -4.670901   3.020751
