36
Energy: -21201.8538158 eV PBE+vdW (tier 2 basis)
C    -0.709690  -1.006201  -0.350665
C    -0.561679  -0.893375  1.144113
O    0.256971  -1.608696  1.763618
H    -1.126322  -1.994283  -0.588564
H    0.281554  -0.950555  -0.816096
H    -1.358778  -0.239877  -0.788302
N    -1.345258  0.019443  1.765643
C    -1.487506  0.240005  3.214749
C    -0.339228  1.017303  3.903612
O    -0.556958  1.489911  5.017152
H    -1.944656  0.577190  1.167604
H    -2.315614  0.953753  3.305803
C    -1.931705  -1.074695  3.938960
C    -1.442296  -1.367700  5.365723
C    0.073096  -1.605765  5.528817
N    0.655875  -2.338089  4.403546
C    0.913933  -3.637477  4.311300
N    1.048690  -4.178753  3.083019
N    1.045383  -4.424944  5.393724
H    -1.658122  -1.919461  3.294591
H    -3.028719  -1.072234  3.963927
H    -1.979929  -2.269445  5.694551
H    -1.721725  -0.556513  6.050179
H    0.265640  -2.134167  6.471064
H    0.607796  -0.652459  5.602445
H    0.592473  -1.863144  3.484655
H    1.578096  -5.030670  2.950570
H    0.909010  -3.570885  2.276276
H    1.085614  -5.430807  5.304393
H    1.043408  -4.034581  6.325501
N    0.836742  1.141860  3.240795
C    1.955945  1.905872  3.771179
H    0.936357  0.702777  2.334021
H    2.823198  1.257698  3.956886
H    1.636936  2.358191  4.715259
H    2.249391  2.699858  3.072904
