36
Energy: -21202.0192292 eV PBE+vdW (tier 2 basis)
C    -0.881544  -0.132859  0.618793
C    -0.794634  -0.020537  2.122732
O    0.223515  -0.306401  2.755485
H    -0.076796  0.464259  0.172458
H    -1.841650  0.192615  0.202308
H    -0.705418  -1.177111  0.331437
N    -1.919752  0.444944  2.756765
C    -2.031777  0.545534  4.211647
C    -0.757171  1.186965  4.817262
O    -0.155796  0.718864  5.801554
H    -2.755591  0.604251  2.205304
H    -2.811133  1.303325  4.393163
C    -2.558752  -0.738085  4.901643
C    -1.989030  -2.119280  4.505986
C    -0.960904  -2.723558  5.472334
N    0.242844  -1.913630  5.589646
C    1.408087  -2.111087  4.990009
N    2.325782  -1.120553  5.039433
N    1.725903  -3.267267  4.375079
H    -3.634758  -0.755758  4.681179
H    -2.490914  -0.583908  5.989360
H    -1.565008  -2.092135  3.493790
H    -2.825305  -2.831498  4.466235
H    -0.713012  -3.745662  5.156666
H    -1.396539  -2.815294  6.478174
H    0.056295  -0.916661  5.846299
H    3.101934  -1.143577  4.390096
H    1.971837  -0.193356  5.264280
H    2.681188  -3.442257  4.093132
H    1.135504  -4.079884  4.485338
N    -0.419690  2.373667  4.282867
C    0.740806  3.135840  4.717055
H    -0.912677  2.678106  3.450748
H    1.662678  2.773046  4.238587
H    0.847017  3.048417  5.802977
H    0.597457  4.188524  4.454178
