36
Energy: -21202.132681 eV PBE+vdW (tier 2 basis)
C    0.576093  1.438826  0.811660
C    0.096903  1.364875  2.234270
O    0.631050  2.054704  3.138651
H    0.010398  0.791597  0.133453
H    0.507050  2.476251  0.461054
H    1.635192  1.152423  0.779713
N    -0.919299  0.532711  2.502823
C    -1.419810  0.276210  3.839527
C    -2.139021  -1.091253  3.740403
O    -2.516693  -1.503637  2.644628
H    -1.336600  -0.073342  1.790532
H    -0.556522  0.203018  4.520829
C    -2.395395  1.379368  4.356486
C    -2.225311  1.726277  5.852682
C    -1.547699  3.073694  6.121578
N    -0.253576  3.158733  5.447030
C    0.592192  4.185218  5.530255
N    0.453445  5.131417  6.477213
N    1.590422  4.265737  4.637088
H    -3.425421  1.055708  4.160583
H    -2.250183  2.277652  3.740028
H    -1.654602  0.937818  6.367932
H    -3.203579  1.760362  6.348517
H    -1.413517  3.184494  7.209632
H    -2.202598  3.893671  5.779469
H    -0.065278  2.538545  4.628405
H    1.071123  5.930397  6.516051
H    -0.243009  5.043088  7.203555
H    2.357375  4.912713  4.755046
H    1.618789  3.579527  3.878151
N    -2.350786  -1.730725  4.913174
C    -3.069047  -2.995236  5.009074
H    -1.934736  -1.350207  5.755096
H    -3.493225  -3.217678  4.025773
H    -3.879006  -2.921153  5.745106
H    -2.393120  -3.810801  5.297532
