36
Energy: -21201.1348685 eV PBE+vdW (tier 2 basis)
C    -0.606305  -0.995341  0.180692
C    -0.450725  -0.485229  1.600578
O    0.617908  -0.576837  2.191560
H    -1.414265  -0.542539  -0.401657
H    -0.801204  -2.075916  0.227487
H    0.350846  -0.858016  -0.332304
N    -1.561573  0.005328  2.278550
C    -2.798817  0.605067  1.776132
C    -3.570208  -0.284732  0.767436
O    -4.067780  0.191471  -0.253659
H    -1.300891  0.277157  3.224830
H    -3.462810  0.657840  2.654431
C    -2.662060  2.058203  1.278218
C    -1.744877  2.270123  0.071882
C    -1.744672  3.730417  -0.369873
N    -0.881992  3.896318  -1.550809
C    -0.458875  5.057632  -2.048357
N    0.461125  5.080976  -3.029246
N    -0.934782  6.214972  -1.566913
H    -2.305468  2.665244  2.125206
H    -3.674307  2.408521  1.029833
H    -2.105764  1.646746  -0.759769
H    -0.713316  1.971389  0.312551
H    -1.360787  4.376822  0.434773
H    -2.772319  4.046154  -0.615085
H    -0.652034  3.051342  -2.065043
H    0.629464  5.917750  -3.572502
H    0.966410  4.245348  -3.293837
H    -0.495237  7.098081  -1.791717
H    -1.729638  6.231866  -0.941486
N    -3.687808  -1.580065  1.143885
C    -4.379154  -2.578894  0.347058
H    -3.186443  -1.873387  1.976013
H    -5.079373  -3.147927  0.970599
H    -3.671368  -3.277924  -0.121243
H    -4.936235  -2.059604  -0.438695
