36
Energy: -21201.3759255 eV PBE+vdW (tier 2 basis)
C    -1.192348  2.149113  -0.341339
C    -0.553827  1.445139  0.839080
O    0.523933  1.775845  1.310361
H    -2.118688  2.664270  -0.047768
H    -1.442068  1.449421  -1.151931
H    -0.482984  2.890625  -0.716773
N    -1.248903  0.377626  1.388432
C    -2.606428  -0.023729  1.102710
C    -3.771610  0.879531  1.577966
O    -4.838299  0.832855  0.927573
H    -0.782755  -0.023816  2.198032
H    -2.737787  0.005299  0.011726
C    -2.869087  -1.465662  1.595261
C    -2.413438  -2.589965  0.650164
C    -2.904588  -2.476025  -0.804944
N    -4.286087  -1.964976  -0.863318
C    -4.769887  -1.191534  -1.851868
N    -4.401754  -1.433544  -3.121544
N    -5.587174  -0.189337  -1.529172
H    -3.942147  -1.568893  1.816944
H    -2.378514  -1.607304  2.570038
H    -2.749248  -3.544973  1.077746
H    -1.316796  -2.639699  0.612479
H    -2.836124  -3.462841  -1.284095
H    -2.263634  -1.788451  -1.376849
H    -4.743150  -1.811219  0.030804
H    -4.040534  -2.340551  -3.389648
H    -4.628686  -0.782445  -3.862167
H    -6.143318  0.280549  -2.233247
H    -5.453324  0.249775  -0.592972
N    -3.668671  1.675147  2.655633
C    -2.599519  1.805721  3.647206
H    -4.518011  2.208707  2.826267
H    -3.004345  2.367396  4.494580
H    -1.730816  2.348350  3.256299
H    -2.277719  0.828070  4.024476
