36
Energy: -21201.5130184 eV PBE+vdW (tier 2 basis)
C    0.382619  -0.491292  1.168274
C    -0.087065  -0.977854  2.520313
O    0.666230  -1.619677  3.277135
H    -0.154239  -0.990401  0.348789
H    0.222011  0.588821  1.052477
H    1.450349  -0.705003  1.072639
N    -1.359494  -0.697392  2.897685
C    -2.495272  -0.305867  2.079878
C    -3.527026  0.281887  3.068632
O    -3.522102  -0.100764  4.240882
H    -1.614437  -0.875095  3.872871
H    -2.191616  0.446617  1.340177
C    -3.103147  -1.533552  1.336634
C    -3.634120  -2.619624  2.292346
C    -3.431212  -4.073959  1.841803
N    -2.053059  -4.439975  1.461369
C    -0.923702  -4.176784  2.138488
N    0.253397  -4.238200  1.488164
N    -0.909352  -3.873470  3.439297
H    -2.310066  -1.941020  0.692075
H    -3.898816  -1.196236  0.658104
H    -4.714985  -2.496498  2.445566
H    -3.202275  -2.471482  3.289802
H    -4.031490  -4.281917  0.947219
H    -3.798341  -4.757329  2.623013
H    -1.941189  -4.917981  0.574552
H    1.111192  -4.086552  2.007115
H    0.298468  -4.157030  0.481008
H    -0.218896  -3.155705  3.739986
H    -1.764411  -3.951669  3.974442
N    -4.441927  1.154152  2.585204
C    -4.475547  1.785223  1.270932
H    -5.098371  1.483381  3.287837
H    -4.592366  1.051829  0.462020
H    -3.579591  2.392986  1.080311
H    -5.342758  2.451123  1.235296
