36
Energy: -21201.9128072 eV PBE+vdW (tier 2 basis)
C    -1.124826  3.467138  0.361179
C    -0.788373  2.395595  1.360670
O    0.388847  2.015440  1.544619
H    -0.582842  4.384781  0.622379
H    -2.196177  3.688860  0.304987
H    -0.772714  3.151624  -0.629263
N    -1.808922  1.845046  2.053566
C    -1.594234  0.772353  3.024309
C    -2.861839  -0.123999  3.069510
O    -3.605289  -0.118998  4.044302
H    -2.748184  2.205220  1.919163
H    -0.764336  0.172115  2.621373
C    -1.230724  1.281338  4.432451
C    -0.263042  0.339832  5.177636
C    1.200118  0.794837  5.176174
N    1.679967  1.078721  3.820825
C    2.928651  1.412615  3.498588
N    3.938604  1.262421  4.374034
N    3.165588  1.913240  2.275399
H    -2.168145  1.373267  4.995087
H    -0.803328  2.291115  4.351177
H    -0.332989  -0.677792  4.764009
H    -0.562431  0.251057  6.229576
H    1.814320  -0.000399  5.627505
H    1.308507  1.699151  5.799220
H    0.990864  1.302161  3.079409
H    4.880019  1.550676  4.146251
H    3.785060  0.832698  5.275449
H    4.105143  2.032315  1.923810
H    2.371824  2.090811  1.657153
N    -3.097601  -0.899539  1.974940
C    -2.340846  -0.990538  0.735295
H    -3.960870  -1.432133  2.041300
H    -1.260827  -0.950623  0.922828
H    -2.600355  -0.192397  0.023661
H    -2.555621  -1.955014  0.263428
