36
Energy: -21201.8783563 eV PBE+vdW (tier 2 basis)
C    -0.675969  0.196020  -0.307202
C    -0.372099  -0.126866  1.134726
O    0.624885  -0.798771  1.437474
H    -0.639825  -0.730654  -0.891821
H    0.115027  0.854060  -0.689947
H    -1.645899  0.682434  -0.460333
N    -1.265235  0.343659  2.046364
C    -1.204346  0.225016  3.499678
C    -0.172810  1.216545  4.086502
O    0.814251  1.598975  3.450873
H    -2.017739  0.913890  1.679820
H    -2.185580  0.588664  3.831367
C    -1.099789  -1.264488  4.002778
C    -0.023562  -1.662482  5.037954
C    1.282616  -2.247250  4.477238
N    2.013561  -1.284000  3.665621
C    3.163491  -0.690832  3.958039
N    3.426303  0.497981  3.395472
N    4.055363  -1.248251  4.809038
H    -1.000298  -1.900178  3.114456
H    -2.079485  -1.510604  4.430094
H    -0.454762  -2.441099  5.683699
H    0.224037  -0.823309  5.704127
H    1.066014  -3.130387  3.857986
H    1.908028  -2.582351  5.314273
H    1.495979  -0.947961  2.816634
H    4.362459  0.878161  3.369679
H    2.628012  1.078327  3.121737
H    4.858832  -0.721136  5.123367
H    4.079527  -2.250694  4.940622
N    -0.425169  1.671222  5.340531
C    -1.607583  1.443728  6.164662
H    0.250904  2.356857  5.665659
H    -1.442285  1.916101  7.137617
H    -1.784687  0.375560  6.344799
H    -2.511909  1.888880  5.724737
