36
Energy: -21202.086717 eV PBE+vdW (tier 2 basis)
C    -2.966241  1.975874  -0.862386
C    -2.320429  0.903759  -0.017368
O    -1.963388  -0.183250  -0.454758
H    -3.754080  1.521162  -1.473456
H    -3.389597  2.802633  -0.279547
H    -2.213789  2.380079  -1.552765
N    -2.152715  1.208298  1.327002
C    -1.350042  0.323967  2.157665
C    -2.140079  -0.905333  2.649339
O    -1.535053  -1.938589  3.017270
H    -2.286500  2.167744  1.630199
H    -0.565723  -0.097086  1.510303
C    -0.713821  1.135628  3.308230
C    0.202179  0.400745  4.301943
C    1.448184  -0.277563  3.717880
N    1.073093  -1.502317  3.012525
C    1.839295  -2.190252  2.183065
N    1.272918  -3.125488  1.392288
N    3.163352  -1.962939  2.084061
H    -1.519958  1.611895  3.888673
H    -0.142162  1.951669  2.838021
H    -0.365463  -0.340034  4.883911
H    0.551893  1.145580  5.029725
H    2.137359  -0.515689  4.544449
H    1.972563  0.408320  3.030300
H    0.042278  -1.763017  3.050726
H    1.823904  -3.868362  0.983401
H    0.267436  -3.253461  1.426307
H    3.638560  -1.363900  2.744456
H    3.718020  -2.394470  1.357393
N    -3.470008  -0.793422  2.681603
C    -4.368553  -1.863138  3.087990
H    -3.855469  0.053786  2.273407
H    -5.169631  -1.456062  3.715165
H    -3.798347  -2.601524  3.658710
H    -4.812989  -2.355245  2.212273
