36
Energy: -21201.7361856 eV PBE+vdW (tier 2 basis)
C    -0.226568  -0.837234  1.802961
C    -1.219336  -0.462542  2.873716
O    -1.116892  -0.934452  4.025252
H    -0.433019  -1.856710  1.448618
H    -0.219896  -0.161087  0.941679
H    0.768725  -0.854141  2.260846
N    -2.216626  0.402757  2.584133
C    -2.786997  0.741967  1.291075
C    -3.777201  1.894377  1.577426
O    -4.295362  1.993304  2.691749
H    -2.791264  0.734781  3.364786
H    -1.998102  1.089697  0.606802
C    -3.519497  -0.458659  0.632074
C    -4.835017  -0.905165  1.290225
C    -4.784502  -1.501566  2.700072
N    -4.120095  -2.820242  2.726872
C    -3.582472  -3.409334  3.815169
N    -3.662504  -4.752129  3.919508
N    -2.979735  -2.694803  4.763606
H    -2.811191  -1.299020  0.574877
H    -3.743413  -0.187038  -0.410056
H    -5.320927  -1.632833  0.619129
H    -5.531115  -0.055793  1.342387
H    -5.816587  -1.626134  3.064122
H    -4.279654  -0.837832  3.404359
H    -4.409632  -3.460711  1.992578
H    -3.056746  -5.260959  4.550952
H    -4.365610  -5.280870  3.419357
H    -2.709024  -3.174576  5.615030
H    -2.392474  -1.851469  4.521371
N    -4.056028  2.698135  0.528337
C    -5.001480  3.804499  0.600974
H    -3.525635  2.574911  -0.327038
H    -4.483859  4.767757  0.505421
H    -5.496046  3.762972  1.575725
H    -5.753124  3.720411  -0.193582
