36
Energy: -21201.9381257 eV PBE+vdW (tier 2 basis)
C    0.060938  -1.081411  0.369385
C    -0.033431  -0.107076  1.516149
O    0.567940  0.976787  1.505420
H    -0.267206  -0.576637  -0.548050
H    -0.532998  -1.991484  0.510368
H    1.112398  -1.358275  0.223283
N    -0.824245  -0.472907  2.562537
C    -1.081688  0.379028  3.722652
C    -1.382025  1.840297  3.291151
O    -0.765691  2.803179  3.764378
H    -1.285817  -1.374087  2.520926
H    -2.034206  0.014345  4.137998
C    -0.037351  0.253163  4.870964
C    1.415004  -0.137630  4.518736
C    2.458668  0.984424  4.518747
N    2.118474  2.039952  3.568073
C    2.356871  3.334148  3.750783
N    1.550408  4.227095  3.156252
N    3.384217  3.742356  4.523339
H    -0.425330  -0.516190  5.550084
H    -0.059275  1.198452  5.430285
H    1.451750  -0.673018  3.560012
H    1.766263  -0.866463  5.261777
H    3.443169  0.548868  4.282005
H    2.526632  1.431278  5.522311
H    1.466554  1.781575  2.805748
H    1.797418  5.207468  3.127435
H    0.563709  3.954877  3.075776
H    3.457728  4.704444  4.825017
H    4.162010  3.126863  4.720797
N    -2.415189  2.032599  2.437110
C    -3.322131  1.071237  1.827662
H    -2.559614  3.011910  2.208399
H    -3.586222  0.270644  2.529278
H    -2.905008  0.621839  0.915355
H    -4.248691  1.591425  1.563070
