36
Energy: -21201.1619491 eV PBE+vdW (tier 2 basis)
C    -0.569004  -0.859539  2.084496
C    -0.972142  0.478825  2.646114
O    -0.434349  0.997399  3.620607
H    0.265876  -1.243806  2.675273
H    -0.267240  -0.779425  1.030871
H    -1.398542  -1.580101  2.121959
N    -2.058472  1.136532  2.060188
C    -2.748823  0.735001  0.830567
C    -1.999321  0.956563  -0.509519
O    -2.030764  0.050135  -1.336454
H    -2.037019  2.132074  2.275840
H    -2.844280  -0.357670  0.863297
C    -4.180091  1.300893  0.773591
C    -5.040804  0.871572  1.978881
C    -5.117418  1.941252  3.084644
N    -5.433042  1.411564  4.414965
C    -4.514960  0.980897  5.292939
N    -3.237021  0.860486  4.933786
N    -4.893671  0.672474  6.547440
H    -4.627468  0.931455  -0.157662
H    -4.164102  2.399223  0.681556
H    -4.634610  -0.060392  2.400757
H    -6.059845  0.631579  1.647942
H    -5.884763  2.688898  2.847058
H    -4.174309  2.495840  3.174412
H    -6.408516  1.271631  4.654510
H    -2.495700  0.780410  5.619487
H    -2.941667  0.929780  3.954693
H    -4.267248  0.185489  7.174986
H    -5.783186  0.978225  6.919609
N    -1.349286  2.130101  -0.752241
C    -1.228154  3.328573  0.063525
H    -0.891141  2.136433  -1.659495
H    -0.492944  3.219772  0.875239
H    -0.892545  4.149001  -0.579118
H    -2.195205  3.637569  0.484770
