36
Energy: -21201.797594 eV PBE+vdW (tier 2 basis)
C    1.186927  0.349200  1.885073
C    0.267354  0.606824  3.055201
O    0.712626  1.021329  4.133090
H    2.110216  -0.114334  2.247880
H    0.745987  -0.280481  1.103724
H    1.450843  1.319138  1.440860
N    -1.046326  0.325435  2.831619
C    -2.214724  0.715903  3.619949
C    -2.368923  2.266955  3.644268
O    -1.451707  3.022665  3.342838
H    -1.257674  0.035192  1.884139
H    -3.064164  0.342573  3.027789
C    -2.374663  0.015655  4.996104
C    -1.385370  0.300428  6.135797
C    -1.306819  1.770580  6.560587
N    -0.317682  2.007793  7.616396
C    0.920685  2.486303  7.424347
N    1.634082  2.876097  8.504297
N    1.442217  2.591154  6.206777
H    -2.360188  -1.066277  4.802774
H    -3.395730  0.235899  5.346810
H    -1.701527  -0.305291  6.999982
H    -0.383888  -0.040980  5.852372
H    -2.277046  2.124492  6.937846
H    -1.036588  2.415505  5.717234
H    -0.554700  1.721910  8.560169
H    1.180893  3.096910  9.380719
H    2.629025  3.041708  8.436467
H    2.288629  3.129831  6.074462
H    1.085848  2.053578  5.390480
N    -3.601776  2.694306  4.035004
C    -3.965219  4.102819  4.087960
H    -4.335778  2.009351  4.174784
H    -4.679027  4.360041  3.293850
H    -3.053157  4.689508  3.942462
H    -4.409625  4.351966  5.059996
