36
Energy: -21201.421142 eV PBE+vdW (tier 2 basis)
C    -1.238290  -0.977484  -0.070580
C    -1.086172  -0.384659  1.311077
O    -0.300214  0.544844  1.538537
H    -1.529798  -0.180223  -0.765437
H    -1.970073  -1.791343  -0.130103
H    -0.260926  -1.351768  -0.399971
N    -1.871261  -0.931537  2.285260
C    -1.866829  -0.588373  3.710613
C    -2.448215  0.800678  4.094351
O    -3.201220  0.873657  5.069604
H    -2.538894  -1.637275  1.999214
H    -2.571128  -1.286535  4.180232
C    -0.474861  -0.802872  4.350068
C    -0.485830  -0.533742  5.856421
C    0.892900  -0.719089  6.481678
N    0.824105  -0.411710  7.919875
C    1.866322  -0.258150  8.734725
N    1.687403  0.189099  9.990543
N    3.106314  -0.538626  8.307861
H    0.251996  -0.148113  3.849553
H    -0.167699  -1.840958  4.149449
H    -1.206899  -1.204130  6.352504
H    -0.831865  0.492465  6.049831
H    1.617569  -0.037206  6.009704
H    1.244433  -1.755015  6.341952
H    -0.105822  -0.329861  8.319985
H    2.417854  0.110019  10.686033
H    0.789868  0.539948  10.298818
H    3.920679  -0.262114  8.840515
H    3.260664  -0.976901  7.409456
N    -2.026682  1.850343  3.356164
C    -2.484538  3.208010  3.592683
H    -1.338060  1.657455  2.619533
H    -1.658197  3.853595  3.922446
H    -3.251084  3.183502  4.373669
H    -2.914954  3.634471  2.677313
