36
Energy: -21201.4914659 eV PBE+vdW (tier 2 basis)
C    -1.739450  -2.114142  0.271174
C    -1.476462  -1.529303  1.644432
O    -0.532918  -1.892430  2.329202
H    -1.564302  -3.194253  0.330956
H    -0.996006  -1.712406  -0.430854
H    -2.739817  -1.930495  -0.134948
N    -2.357647  -0.576860  2.161244
C    -3.427054  0.179364  1.519817
C    -4.747805  -0.600417  1.335775
O    -5.711922  -0.053622  0.760336
H    -2.043924  -0.250604  3.071341
H    -3.701907  0.949742  2.257645
C    -3.021166  0.902867  0.205128
C    -2.684910  2.392696  0.335928
C    -3.878384  3.353314  0.372405
N    -4.537690  3.504375  1.684711
C    -5.847468  3.320346  1.937079
N    -6.553788  2.423197  1.254192
N    -6.423928  4.058208  2.909097
H    -3.823463  0.778862  -0.534922
H    -2.143628  0.392711  -0.205182
H    -2.023709  2.574889  1.198859
H    -2.095049  2.684254  -0.545398
H    -4.646647  3.045058  -0.347346
H    -3.542883  4.357481  0.074844
H    -4.032516  4.055476  2.371920
H    -7.562117  2.425071  1.357973
H    -6.122172  1.516611  0.922872
H    -7.315454  3.789267  3.305380
H    -6.035603  4.947787  3.195929
N    -4.798836  -1.834521  1.846840
C    -5.967422  -2.698433  1.788277
H    -3.958294  -2.160007  2.317509
H    -6.743287  -2.192748  1.206588
H    -6.346217  -2.905725  2.797404
H    -5.712559  -3.648655  1.303082
