36
Energy: -21201.5905077 eV PBE+vdW (tier 2 basis)
C    -0.063052  0.755632  0.196512
C    -0.356648  0.681775  1.677061
O    0.443751  1.023030  2.543503
H    0.391234  1.727294  -0.027708
H    -0.945547  0.610200  -0.437873
H    0.679095  -0.014573  -0.052558
N    -1.602633  0.212588  2.025545
C    -1.938004  -0.044984  3.421845
C    -1.630909  1.163279  4.334693
O    -1.143385  1.005176  5.471256
H    -2.228393  -0.126958  1.304670
H    -3.036698  -0.152207  3.452236
C    -1.281418  -1.385599  3.848504
C    -1.346499  -1.863774  5.306527
C    -2.716559  -1.738967  5.983111
N    -2.654360  -1.963291  7.431724
C    -2.274353  -1.035229  8.324347
N    -1.878338  0.173542  7.937054
N    -2.318100  -1.348228  9.637800
H    -0.221021  -1.322067  3.572925
H    -1.728395  -2.147045  3.191308
H    -0.607774  -1.307314  5.892680
H    -1.035708  -2.919539  5.329780
H    -3.435941  -2.463861  5.580090
H    -3.154969  -0.743686  5.832293
H    -2.709841  -2.920172  7.761990
H    -1.744024  0.895601  8.633658
H    -1.620211  0.418307  6.952948
H    -1.912904  -0.735353  10.332034
H    -2.851112  -2.140180  9.970937
N    -2.021337  2.399453  3.954512
C    -2.638089  2.879052  2.725824
H    -1.739208  3.106821  4.627678
H    -3.411441  2.189608  2.371629
H    -1.902673  3.033174  1.924157
H    -3.120300  3.838201  2.943825
