36
Energy: -21201.9866106 eV PBE+vdW (tier 2 basis)
C    0.994750  2.810820  1.756294
C    0.302193  1.996065  2.815709
O    0.929613  1.501960  3.780282
H    1.782126  2.198009  1.299403
H    0.317578  3.167429  0.972762
H    1.485219  3.672486  2.226757
N    -1.019522  1.802496  2.676337
C    -1.795042  0.990899  3.593964
C    -3.063796  0.588170  2.814029
O    -3.505512  1.333073  1.940629
H    -1.551594  2.171954  1.886461
H    -1.191145  0.105947  3.849680
C    -2.171695  1.760318  4.894243
C    -2.190737  0.878720  6.146377
C    -0.801201  0.574791  6.719585
N    -0.244664  1.730384  7.438373
C    0.988632  2.251771  7.329517
N    1.740038  2.065929  6.250325
N    1.454568  2.995972  8.357062
H    -3.148176  2.242453  4.751752
H    -1.448914  2.577666  5.030387
H    -2.690584  -0.079614  5.939426
H    -2.806116  1.350882  6.928187
H    -0.097830  0.292365  5.927792
H    -0.857525  -0.266583  7.426368
H    -0.806381  2.086199  8.205717
H    2.717841  2.326431  6.285938
H    1.356084  1.806832  5.309362
H    2.253966  3.603739  8.236938
H    1.068605  2.910090  9.287896
N    -3.649930  -0.571276  3.198241
C    -4.878234  -1.070443  2.593573
H    -3.142526  -1.180949  3.828514
H    -4.671529  -1.874679  1.874438
H    -5.356881  -0.241680  2.063775
H    -5.554680  -1.446625  3.369904
