36
Energy: -21201.7914684 eV PBE+vdW (tier 2 basis)
C    -0.920212  -0.317676  0.816872
C    -0.318862  -1.039705  2.001329
O    0.639504  -1.798208  1.915079
H    -0.136335  0.271790  0.325987
H    -1.264553  -1.063892  0.090005
H    -1.757492  0.341844  1.075177
N    -0.910825  -0.789189  3.223741
C    -0.458543  -1.511238  4.410012
C    -1.645442  -1.639195  5.375624
O    -1.933000  -0.771209  6.227681
H    -1.746560  -0.217940  3.271042
H    -0.192942  -2.518968  4.054693
C    0.832117  -0.944256  5.072399
C    1.201386  0.523671  4.815579
C    0.190338  1.582296  5.281064
N    -0.336477  1.328513  6.619075
C    0.117449  1.810814  7.761539
N    -0.549750  1.541203  8.906358
N    1.219641  2.584549  7.835636
H    1.668489  -1.543909  4.693142
H    0.782329  -1.139740  6.153759
H    1.376551  0.682738  3.742111
H    2.170020  0.700222  5.308433
H    -0.682129  1.593687  4.615270
H    0.620970  2.592345  5.226226
H    -1.024127  0.532533  6.623475
H    -1.384796  0.969657  8.866611
H    -0.077919  1.601971  9.799358
H    1.370790  3.184170  8.636571
H    1.755891  2.788184  7.003356
N    -2.380160  -2.754053  5.218099
C    -3.584321  -3.058980  5.976709
H    -2.080366  -3.414641  4.508701
H    -4.438452  -3.191647  5.300853
H    -3.785550  -2.224469  6.653611
H    -3.447639  -3.976452  6.563046
