36
Energy: -21201.8930391 eV PBE+vdW (tier 2 basis)
C    0.688466  0.323884  1.359978
C    -0.166585  0.598532  2.572182
O    -0.145366  1.701120  3.138913
H    1.742024  0.470431  1.629298
H    0.562469  -0.682528  0.945319
H    0.450412  1.063523  0.585252
N    -0.972098  -0.420360  2.984623
C    -1.858550  -0.396256  4.149488
C    -2.699196  0.910929  4.247370
O    -2.903122  1.467215  5.326250
H    -0.894286  -1.298201  2.482978
H    -2.616565  -1.165364  3.933301
C    -1.223644  -0.811113  5.501922
C    0.261413  -0.559609  5.799226
C    0.764919  0.875700  6.012179
N    -0.087049  1.672109  6.894643
C    -0.663158  2.839216  6.589070
N    -0.561165  3.368946  5.369550
N    -1.290122  3.538172  7.562289
H    -1.367926  -1.895234  5.603485
H    -1.851200  -0.346222  6.275405
H    0.896209  -1.001416  5.015745
H    0.488485  -1.140221  6.707065
H    0.852455  1.402737  5.060567
H    1.774373  0.834130  6.448036
H    -0.324711  1.270854  7.795441
H    -0.948629  4.289823  5.211581
H    -0.428851  2.766893  4.542906
H    -2.055549  4.149993  7.307872
H    -1.305717  3.183813  8.509893
N    -3.279562  1.296904  3.087301
C    -4.137820  2.465090  2.984402
H    -3.017651  0.815473  2.234911
H    -4.914466  2.286413  2.232789
H    -3.570620  3.364090  2.700198
H    -4.611618  2.638535  3.955569
