36
Energy: -21201.2906549 eV PBE+vdW (tier 2 basis)
C    0.010811  -0.208482  1.406206
C    0.226238  1.174655  1.982941
O    1.223355  1.485662  2.618190
H    0.926122  -0.784143  1.564624
H    -0.214311  -0.180120  0.331216
H    -0.818306  -0.727390  1.907876
N    -0.752673  2.132989  1.735803
C    -2.122897  1.913498  1.298235
C    -2.612080  3.065429  0.381002
O    -3.791236  3.432228  0.378784
H    -0.546533  3.003148  2.223132
H    -2.113122  1.028661  0.642585
C    -3.113109  1.587570  2.436743
C    -3.185437  2.564973  3.619561
C    -3.828936  3.905865  3.272823
N    -4.088272  4.695182  4.487779
C    -4.810975  5.815202  4.500987
N    -5.076128  6.445823  5.659390
N    -5.283610  6.318398  3.351556
H    -2.825461  0.607513  2.841405
H    -4.111254  1.466640  1.993855
H    -2.180591  2.725481  4.044003
H    -3.784675  2.084765  4.408550
H    -4.780215  3.729431  2.751355
H    -3.188244  4.489010  2.595746
H    -3.624837  4.413741  5.345831
H    -5.480826  7.372657  5.673282
H    -4.812938  6.042878  6.548910
H    -5.974348  7.057452  3.347781
H    -5.067393  5.875500  2.466067
N    -1.653443  3.584815  -0.420375
C    -1.914888  4.587550  -1.438533
H    -0.713227  3.215818  -0.312530
H    -1.359866  5.513009  -1.234230
H    -2.988217  4.801206  -1.437009
H    -1.626749  4.215802  -2.430213
