36
Energy: -21201.0138099 eV PBE+vdW (tier 2 basis)
C    0.412167  -1.747962  1.039103
C    0.184740  -0.480879  1.836315
O    1.100198  0.109489  2.395803
H    0.591217  -1.476542  -0.011454
H    -0.418033  -2.462760  1.065119
H    1.320781  -2.223727  1.418665
N    -1.093871  0.050644  1.900016
C    -2.372378  -0.480486  1.441209
C    -2.665663  -1.917904  1.955424
O    -2.940951  -2.829069  1.168207
H    -1.111877  0.917124  2.429761
H    -3.133424  0.173565  1.899171
C    -2.536945  -0.408376  -0.087808
C    -3.986457  -0.573829  -0.557163
C    -4.054391  -0.782080  -2.066704
N    -5.443479  -1.033773  -2.483364
C    -5.888202  -1.039740  -3.739523
N    -7.205052  -1.146126  -3.993565
N    -5.030556  -0.920108  -4.763003
H    -1.920249  -1.197302  -0.540099
H    -2.134378  0.559540  -0.418751
H    -4.586618  0.306781  -0.278118
H    -4.415075  -1.458939  -0.063670
H    -3.424769  -1.644428  -2.342013
H    -3.686354  0.108369  -2.599753
H    -6.084671  -1.333316  -1.754889
H    -7.544125  -1.385582  -4.916294
H    -7.888156  -1.084691  -3.249849
H    -5.356096  -0.737482  -5.703369
H    -4.031903  -0.987228  -4.616396
N    -2.618915  -2.126791  3.295353
C    -2.339921  -1.185829  4.372581
H    -2.783913  -3.096410  3.550128
H    -2.711316  -1.617414  5.307934
H    -2.867766  -0.235598  4.219812
H    -1.266711  -0.979807  4.482986
