36
Energy: -21201.8148498 eV PBE+vdW (tier 2 basis)
C    -0.880268  -1.528295  1.718199
C    -0.626753  -0.348963  2.626997
O    0.469063  -0.097611  3.116139
H    -0.512132  -2.438644  2.205615
H    -1.933781  -1.660044  1.444633
H    -0.295133  -1.393308  0.799269
N    -1.716130  0.479822  2.859306
C    -1.572498  1.535725  3.859929
C    -2.918479  2.127248  4.271309
O    -3.087638  2.565576  5.428287
H    -2.631535  0.052842  2.751429
H    -1.136219  1.092980  4.768548
C    -0.624236  2.681612  3.365956
C    0.539705  3.021308  4.304732
C    0.169566  3.805740  5.572105
N    -0.669884  3.062848  6.512197
C    -0.248732  2.349058  7.544166
N    -1.162768  1.781655  8.362773
N    1.056408  2.180667  7.827389
H    -1.214229  3.587687  3.155117
H    -0.205437  2.357340  2.407110
H    1.256296  3.642658  3.747478
H    1.068796  2.090593  4.560735
H    -0.392941  4.711992  5.305373
H    1.072763  4.156968  6.091189
H    -1.664982  2.908264  6.206260
H    -0.910408  0.992002  8.942638
H    -2.147441  1.908128  8.160035
H    1.352452  1.866268  8.741905
H    1.770347  2.519399  7.197674
N    -3.876332  2.197971  3.329156
C    -5.177516  2.817829  3.550716
H    -3.623796  1.937116  2.380708
H    -5.181450  3.863390  3.213386
H    -5.399256  2.793546  4.621150
H    -5.946550  2.261244  3.004617
