36
Energy: -21201.7006232 eV PBE+vdW (tier 2 basis)
C    -2.510258  0.017917  -0.145418
C    -1.621595  0.112708  1.074363
O    -0.411395  0.314971  1.010992
H    -2.367183  0.917206  -0.756558
H    -3.575945  -0.094007  0.086672
H    -2.187409  -0.838340  -0.751011
N    -2.248894  -0.028947  2.288988
C    -1.502225  -0.024867  3.542476
C    -0.556610  1.199098  3.636220
O    0.648195  1.087996  3.926706
H    -3.241626  -0.227803  2.317006
H    -2.247972  0.099372  4.346064
C    -0.751815  -1.350945  3.752646
C    -0.170894  -1.538884  5.156791
C    0.847893  -2.679888  5.262953
N    1.871380  -2.757027  4.198801
C    2.843231  -1.872085  3.911797
N    3.974001  -2.337597  3.337872
N    2.714097  -0.576180  4.178139
H    0.037068  -1.401739  2.990192
H    -1.455421  -2.165218  3.525345
H    -0.971540  -1.769406  5.876345
H    0.287436  -0.608683  5.510992
H    0.333589  -3.647618  5.212133
H    1.354489  -2.632887  6.238105
H    1.957681  -3.655121  3.738366
H    4.589898  -1.717778  2.827742
H    4.234257  -3.313074  3.399495
H    3.533522  0.011443  4.072669
H    1.793222  -0.066597  4.131339
N    -1.090499  2.428653  3.486423
C    -2.462556  2.824409  3.207580
H    -0.395370  3.168066  3.541431
H    -3.176302  2.199431  3.756861
H    -2.699622  2.777056  2.135818
H    -2.597402  3.855957  3.549826
