36
Energy: -21201.8939042 eV PBE+vdW (tier 2 basis)
C    0.335917  -0.266878  0.589147
C    0.169267  -0.392084  2.081469
O    1.098673  -0.812344  2.790186
H    0.426781  -1.266771  0.144498
H    -0.471772  0.277958  0.089596
H    1.285966  0.248032  0.402365
N    -1.008336  0.002911  2.652658
C    -2.345033  -0.050919  2.064309
C    -3.329406  0.460886  3.131344
O    -3.217271  0.120734  4.321687
H    -1.017870  -0.061018  3.668684
H    -2.385372  0.614300  1.188504
C    -2.745717  -1.475077  1.593989
C    -2.876689  -2.598874  2.638633
C    -1.647523  -2.947808  3.492704
N    -1.603953  -2.135464  4.720849
C    -0.568755  -2.029560  5.562505
N    -0.814352  -1.672971  6.838235
N    0.681598  -2.277953  5.147886
H    -2.015258  -1.780620  0.830326
H    -3.707457  -1.392096  1.065410
H    -3.138490  -3.507133  2.078632
H    -3.735271  -2.415424  3.302814
H    -0.722977  -2.833638  2.912498
H    -1.707851  -4.003144  3.795864
H    -2.390265  -1.483856  4.858666
H    -1.756003  -1.705883  7.208273
H    -0.091184  -1.262201  7.414982
H    0.941018  -1.903417  4.212261
H    1.421837  -2.331250  5.838362
N    -4.326329  1.240153  2.675561
C    -5.397314  1.759339  3.516037
H    -4.309550  1.513579  1.699110
H    -5.324312  2.850631  3.606519
H    -5.300558  1.311858  4.508902
H    -6.374007  1.498752  3.090757
