36
Energy: -21201.0488102 eV PBE+vdW (tier 2 basis)
C    0.716297  -0.137963  0.151272
C    -0.080584  0.856325  0.967681
O    0.173567  2.059137  0.982238
H    0.922956  0.290828  -0.835080
H    0.219110  -1.107974  0.029964
H    1.683054  -0.300740  0.647347
N    -1.119084  0.320923  1.698315
C    -1.767352  1.070376  2.779401
C    -2.168720  0.145719  3.947206
O    -1.816070  0.431084  5.085587
H    -1.138971  -0.690620  1.774001
H    -1.009326  1.732532  3.220665
C    -2.959130  1.957989  2.345126
C    -2.517219  3.225006  1.609204
C    -3.665481  4.196303  1.353097
N    -3.140349  5.370130  0.636043
C    -3.759314  6.538672  0.482245
N    -3.098952  7.595423  -0.024315
N    -5.045003  6.678240  0.838757
H    -3.499753  2.239835  3.263335
H    -3.659173  1.380009  1.724456
H    -2.042953  2.956891  0.654461
H    -1.741481  3.733851  2.200469
H    -4.106808  4.533670  2.304221
H    -4.455456  3.717297  0.750599
H    -2.221145  5.261508  0.216583
H    -3.592507  8.412563  -0.359241
H    -2.097036  7.568566  -0.163370
H    -5.473022  7.591795  0.913405
H    -5.598229  5.877245  1.112909
N    -2.883978  -0.997241  3.688123
C    -3.716884  -1.337120  2.540846
H    -3.076437  -1.510650  4.545737
H    -4.752318  -0.981192  2.661276
H    -3.740105  -2.426801  2.419434
H    -3.313834  -0.908901  1.617759
