36
Energy: -21201.9018641 eV PBE+vdW (tier 2 basis)
C    1.332895  0.229058  -0.335769
C    0.884995  1.185161  0.745122
O    1.577379  2.102108  1.170315
H    2.058747  -0.473660  0.096156
H    1.853277  0.793792  -1.116825
H    0.514376  -0.347099  -0.783588
N    -0.392445  0.980255  1.243189
C    -0.850255  1.701439  2.429662
C    -1.041715  3.212200  2.138332
O    -1.043153  4.066536  3.049630
H    -0.889443  0.137406  0.977167
H    -1.869087  1.324097  2.619607
C    0.027053  1.438061  3.685270
C    -0.716843  1.020585  4.964680
C    -1.701108  2.056264  5.532846
N    -1.127596  3.395874  5.592709
C    -0.521205  3.967467  6.615743
N    -0.090666  5.244341  6.497096
N    -0.324543  3.337550  7.793434
H    0.659042  2.313653  3.876114
H    0.721221  0.627602  3.433686
H    0.042733  0.787489  5.726827
H    -1.276104  0.086572  4.797534
H    -2.078251  1.747543  6.518128
H    -2.588805  2.140533  4.889702
H    -1.037006  3.813665  4.624203
H    0.641369  5.591141  7.103709
H    -0.203664  5.715651  5.607264
H    -0.149363  3.873851  8.633564
H    -0.647625  2.388259  7.920151
N    -1.295745  3.540954  0.867416
C    -1.494139  4.912008  0.423710
H    -1.189755  2.805697  0.176324
H    -0.533243  5.428326  0.289182
H    -2.082676  5.456436  1.169142
H    -2.033654  4.904188  -0.528432
