36
Energy: -21201.9906316 eV PBE+vdW (tier 2 basis)
C    1.420986  1.061867  0.936580
C    1.000434  0.142468  2.058395
O    1.731223  -0.730465  2.523589
H    2.387666  1.512009  1.191611
H    0.698366  1.857356  0.720601
H    1.572019  0.464051  0.028336
N    -0.264301  0.344101  2.568603
C    -0.824438  -0.587723  3.548142
C    0.113603  -0.673201  4.775976
O    0.421952  -1.748273  5.319715
H    -0.895417  0.972593  2.083837
H    -1.753955  -0.122742  3.915931
C    -1.193398  -1.937794  2.897490
C    -2.097628  -2.893173  3.701874
C    -1.412180  -4.022368  4.485534
N    -0.586686  -4.901374  3.648890
C    0.748514  -4.850905  3.517754
N    1.348447  -5.786148  2.741817
N    1.468667  -3.910476  4.113901
H    -0.274070  -2.436162  2.563967
H    -1.727836  -1.668977  1.975956
H    -2.814597  -3.353524  3.005534
H    -2.713081  -2.331143  4.421730
H    -2.177355  -4.655671  4.954412
H    -0.786262  -3.622937  5.288265
H    -1.074826  -5.545924  3.036682
H    0.888615  -6.667979  2.555964
H    2.351629  -5.768849  2.615200
H    1.036631  -3.053613  4.537927
H    2.476993  -3.924930  4.029761
N    0.494960  0.510104  5.283380
C    1.395278  0.628904  6.421108
H    0.277945  1.342817  4.746649
H    1.274939  1.620008  6.869350
H    2.443174  0.495027  6.117138
H    1.146731  -0.135842  7.163632
