36
Energy: -21201.5817552 eV PBE+vdW (tier 2 basis)
C    0.040208  -0.240124  1.552950
C    -0.742550  -0.261536  2.850300
O    -0.193714  -0.299511  3.941851
H    1.070490  0.033374  1.795152
H    -0.358400  0.458829  0.808321
H    0.049481  -1.241602  1.099408
N    -2.129358  -0.279524  2.794807
C    -3.043762  -0.190773  1.662133
C    -2.713387  -1.236613  0.572023
O    -2.467559  -0.916003  -0.612211
H    -2.543572  -0.283752  3.723006
H    -4.026700  -0.489202  2.065179
C    -3.190319  1.240281  1.108743
C    -4.432810  1.466581  0.214725
C    -4.118512  2.169061  -1.107797
N    -3.209861  1.321308  -1.877521
C    -2.691250  1.597252  -3.061508
N    -1.763983  0.764353  -3.583025
N    -3.052542  2.693523  -3.753986
H    -2.270688  1.509490  0.570671
H    -3.231739  1.906506  1.978986
H    -5.178409  2.069019  0.748270
H    -4.928883  0.511355  -0.017012
H    -3.652674  3.151364  -0.917577
H    -5.052513  2.336063  -1.668600
H    -2.896678  0.441527  -1.391891
H    -1.539366  0.794442  -4.568849
H    -1.551920  -0.096521  -3.091259
H    -2.558946  2.970995  -4.591650
H    -3.721213  3.347915  -3.371701
N    -2.696257  -2.532793  0.930053
C    -2.955965  -3.134233  2.234131
H    -2.448693  -3.159232  0.168445
H    -3.186188  -4.192971  2.079529
H    -3.824371  -2.671169  2.717706
H    -2.090979  -3.050617  2.904194
