36
Energy: -21201.0893084 eV PBE+vdW (tier 2 basis)
C    -0.481196  -0.676648  -0.642151
C    0.220052  -0.366686  0.668719
O    1.437250  -0.432108  0.792466
H    0.283320  -0.928317  -1.381408
H    -1.176423  -1.523329  -0.553078
H    -1.054443  0.188147  -1.005424
N    -0.566906  0.020530  1.731600
C    -2.009628  0.029387  1.834813
C    -2.375848  1.032281  2.945541
O    -1.663703  1.127377  3.947492
H    -0.067000  0.303831  2.573802
H    -2.447375  0.339496  0.877330
C    -2.601540  -1.367456  2.197546
C    -1.955311  -1.968617  3.447522
C    -2.439682  -3.383172  3.746747
N    -1.746513  -3.885946  4.944399
C    -1.654925  -5.160044  5.322584
N    -0.821223  -5.512781  6.316772
N    -2.384455  -6.104752  4.710987
H    -2.438113  -2.034420  1.337158
H    -3.691722  -1.276605  2.326437
H    -2.150196  -1.319679  4.315574
H    -0.864332  -1.991068  3.304842
H    -2.209886  -4.054184  2.904433
H    -3.529213  -3.395889  3.916497
H    -1.315462  -3.185769  5.541077
H    -0.894694  -6.414092  6.770599
H    -0.126045  -4.868566  6.671473
H    -2.188337  -7.088216  4.845088
H    -3.126240  -5.857521  4.069518
N    -3.525721  1.739713  2.802627
C    -4.394674  1.817729  1.634867
H    -3.704783  2.379137  3.571852
H    -4.806346  0.836699  1.361457
H    -3.882321  2.247189  0.762073
H    -5.238872  2.469353  1.880494
