36
Energy: -21202.1068366 eV PBE+vdW (tier 2 basis)
C    -0.465065  1.806150  -0.352516
C    -0.374135  1.607324  1.135076
O    0.601121  2.056757  1.785053
H    -0.408118  2.878270  -0.577544
H    -1.380019  1.392113  -0.788754
H    0.403951  1.328808  -0.823825
N    -1.379923  0.936475  1.724281
C    -1.373342  0.446991  3.095770
C    -1.951657  -0.986836  3.010477
O    -2.722762  -1.268708  2.093492
H    -2.087937  0.468452  1.151348
H    -0.333889  0.431874  3.451052
C    -2.281176  1.274951  4.040080
C    -1.954280  2.762461  4.236450
C    -0.707799  3.100036  5.066271
N    0.509283  2.951859  4.272887
C    1.677075  3.531188  4.510877
N    2.601318  3.542915  3.529167
N    1.959185  4.111550  5.693452
H    -2.304227  0.777307  5.021931
H    -3.303887  1.201388  3.642056
H    -2.810721  3.212452  4.757572
H    -1.894495  3.279420  3.266376
H    -0.665615  2.453722  5.960305
H    -0.786542  4.142457  5.414232
H    0.438897  2.499261  3.322100
H    3.580393  3.685912  3.737720
H    2.358003  3.118120  2.636544
H    2.757872  4.723536  5.794597
H    1.291003  4.090524  6.451250
N    -1.615126  -1.865772  3.984943
C    -0.651041  -1.688605  5.061099
H    -2.067252  -2.770898  3.890921
H    -0.534567  -2.645936  5.577714
H    -0.984094  -0.949195  5.804128
H    0.337570  -1.395324  4.681420
