36
Energy: -21201.0709331 eV PBE+vdW (tier 2 basis)
C    0.654580  -0.444130  0.281126
C    0.277103  0.081474  1.648499
O    1.002422  0.828808  2.300357
H    -0.157024  -0.978658  -0.227033
H    1.511953  -1.121342  0.390123
H    0.980622  0.394911  -0.344210
N    -0.953836  -0.322128  2.124610
C    -1.308948  -0.073300  3.519647
C    -2.466967  -0.943441  4.031204
O    -2.385233  -1.439666  5.154398
H    -1.395106  -1.108696  1.660795
H    -0.453515  -0.366252  4.146878
C    -1.582384  1.425515  3.804975
C    -1.477651  1.720852  5.302459
C    -1.590536  3.210941  5.606373
N    -1.474326  3.429636  7.057417
C    -1.166395  4.579629  7.654272
N    -0.898300  4.609540  8.972206
N    -1.112772  5.719340  6.949273
H    -2.567549  1.723254  3.415263
H    -0.817183  1.995728  3.262388
H    -0.505204  1.356654  5.668319
H    -2.253296  1.168200  5.857022
H    -2.553914  3.610280  5.248378
H    -0.777297  3.757805  5.105155
H    -1.673835  2.629402  7.650534
H    -0.890790  5.480339  9.487187
H    -0.766365  3.756191  9.499552
H    -0.678730  6.550546  7.329243
H    -1.424128  5.751401  5.987493
N    -3.571011  -1.146374  3.247706
C    -4.056428  -0.401559  2.091675
H    -4.249948  -1.744254  3.714395
H    -4.878966  0.274126  2.371262
H    -4.425652  -1.092823  1.322747
H    -3.255011  0.197865  1.652107
