36
Energy: -21201.7855902 eV PBE+vdW (tier 2 basis)
C    -0.227978  -1.827586  1.212563
C    -0.201478  -0.921552  2.422978
O    0.701014  -0.935858  3.253522
H    -1.069825  -1.638233  0.535656
H    0.712558  -1.710018  0.661386
H    -0.273972  -2.869010  1.555543
N    -1.265299  -0.053315  2.545136
C    -1.403277  0.764198  3.734573
C    -2.883623  1.051581  3.943649
O    -3.648416  1.241328  2.970939
H    -2.066287  -0.118420  1.926209
H    -0.998286  0.183312  4.575449
C    -0.555172  2.069738  3.663411
C    -0.833319  2.960378  2.445103
C    -1.939668  4.002117  2.670328
N    -2.400937  4.630512  1.427934
C    -3.373963  4.152068  0.638681
N    -3.713370  4.853474  -0.464504
N    -4.001790  3.012528  0.919026
H    0.488843  1.733317  3.639285
H    -0.673226  2.634759  4.601655
H    -1.091515  2.321469  1.586950
H    0.088959  3.486484  2.160658
H    -1.582879  4.810961  3.321426
H    -2.816329  3.570414  3.167694
H    -1.826610  5.372707  1.043260
H    -4.369795  4.480356  -1.136666
H    -3.428985  5.816711  -0.581423
H    -4.851170  2.780616  0.419330
H    -3.736134  2.371644  1.695843
N    -3.343460  1.128049  5.204715
C    -2.621364  0.842336  6.443415
H    -4.337589  1.331204  5.271471
H    -1.772310  1.522201  6.586066
H    -2.261392  -0.194206  6.472439
H    -3.312525  0.986684  7.278855
