36
Energy: -21202.1328066 eV PBE+vdW (tier 2 basis)
C    1.457395  1.083117  1.213484
C    0.651232  1.159536  2.479608
O    0.954102  1.961913  3.397987
H    1.069209  0.348280  0.500586
H    1.476547  2.071716  0.737839
H    2.492743  0.822559  1.468267
N    -0.401533  0.337330  2.594282
C    -1.207698  0.223926  3.794444
C    -1.880743  -1.166445  3.693490
O    -1.993486  -1.710939  2.596156
H    -0.638216  -0.355985  1.878872
H    -0.532792  0.257365  4.665128
C    -2.280390  1.349838  3.925847
C    -2.484203  1.866958  5.367256
C    -1.872491  3.244026  5.644051
N    -0.450144  3.269734  5.308120
C    0.371320  4.299334  5.510956
N    0.022874  5.327721  6.306029
N    1.563762  4.296089  4.895715
H    -3.230278  0.976280  3.522946
H    -1.988597  2.177325  3.263766
H    -2.076154  1.148459  6.095221
H    -3.554989  1.946436  5.593577
H    -2.011223  3.476993  6.711938
H    -2.408942  4.012672  5.061175
H    -0.078716  2.580733  4.616722
H    0.631639  6.124555  6.431762
H    -0.839642  5.310799  6.831498
H    2.286633  4.960415  5.133825
H    1.764296  3.546759  4.228305
N    -2.356579  -1.675122  4.852851
C    -3.072432  -2.942367  4.928382
H    -2.144856  -1.191298  5.717562
H    -2.473077  -3.703308  5.445200
H    -3.268939  -3.280332  3.906903
H    -4.024629  -2.813075  5.457251
