36
Energy: -21201.9918932 eV PBE+vdW (tier 2 basis)
C    -0.929330  -1.855163  0.920749
C    -1.131368  -0.585800  1.710160
O    -1.452361  0.480607  1.169888
H    -0.741439  -2.740224  1.539148
H    -1.812937  -2.028816  0.295544
H    -0.077630  -1.709820  0.243141
N    -0.942052  -0.677490  3.060856
C    -0.899715  0.441830  4.008422
C    -2.234162  1.173642  4.252183
O    -2.481757  1.588377  5.414533
H    -0.723985  -1.591251  3.439730
H    -0.687595  -0.035210  4.973985
C    0.252754  1.459156  3.706182
C    1.260805  1.677113  4.852250
C    0.938159  2.765793  5.882761
N    -0.296129  2.502749  6.614823
C    -0.619451  2.971539  7.811028
N    0.206044  3.755353  8.530252
N    -1.818877  2.627207  8.329811
H    -0.164582  2.418442  3.368138
H    0.802674  1.063590  2.844463
H    2.222576  1.970493  4.407999
H    1.448180  0.725568  5.373969
H    0.870535  3.745490  5.379103
H    1.779382  2.816184  6.591278
H    -1.107846  2.066181  6.097029
H    0.027818  3.935760  9.509280
H    1.114071  4.014259  8.170502
H    -2.214864  3.161326  9.092243
H    -2.473241  2.140945  7.722278
N    -3.042487  1.382313  3.219126
C    -4.298509  2.109043  3.336874
H    -2.660029  1.135785  2.290327
H    -4.893080  1.709932  4.166546
H    -4.856723  1.990989  2.403844
H    -4.125851  3.179108  3.518553
