36
Energy: -21201.5870968 eV PBE+vdW (tier 2 basis)
C    -0.669512  1.980733  2.086343
C    -0.217950  0.860302  1.186348
O    0.907460  0.857519  0.650255
H    -1.273450  1.630288  2.931610
H    -1.274642  2.703000  1.518668
H    0.216471  2.501387  2.460534
N    -1.075482  -0.169855  0.945755
C    -2.542318  -0.110819  0.979440
C    -3.075587  -1.557701  1.105090
O    -3.492316  -2.159529  0.117931
H    -0.668607  -0.915117  0.381620
H    -2.835404  0.457381  1.872844
C    -3.122075  0.608677  -0.256403
C    -2.651778  0.098197  -1.640455
C    -1.890974  1.120251  -2.488833
N    -0.578713  1.432368  -1.910015
C    0.162683  2.517516  -2.152935
N    1.222952  2.767781  -1.374848
N    -0.173796  3.363251  -3.143436
H    -2.879877  1.678167  -0.153109
H    -4.215470  0.539715  -0.192324
H    -3.523161  -0.218285  -2.225501
H    -2.049659  -0.816511  -1.549029
H    -2.469590  2.054889  -2.562157
H    -1.763286  0.719303  -3.507465
H    -0.166519  0.772976  -1.250420
H    1.937855  3.423512  -1.660473
H    1.372195  2.182384  -0.538855
H    0.312846  4.241228  -3.264977
H    -0.835046  3.091698  -3.858339
N    -3.025925  -2.118468  2.341638
C    -2.576254  -1.513772  3.588203
H    -3.370940  -3.073839  2.368952
H    -3.212257  -0.669000  3.891753
H    -1.531933  -1.178032  3.526718
H    -2.635970  -2.269244  4.377298
