36
Energy: -21202.1072158 eV PBE+vdW (tier 2 basis)
C    -1.204326  4.063825  0.907915
C    -0.788022  2.809006  1.623993
O    0.390050  2.383444  1.542355
H    -2.249883  4.336194  1.085507
H    -1.049578  3.920750  -0.169436
H    -0.555309  4.890629  1.221938
N    -1.728793  2.178879  2.349697
C    -1.592975  0.849012  2.927243
C    -2.939447  0.144966  2.629399
O    -3.955154  0.826640  2.493150
H    -2.707169  2.474443  2.287335
H    -0.761347  0.338067  2.423076
C    -1.393340  0.872601  4.463800
C    -0.152753  1.586148  5.020604
C    1.202482  0.896219  4.812044
N    1.700461  1.111747  3.456214
C    2.961775  1.023047  3.059722
N    3.910268  0.440493  3.818627
N    3.297753  1.542919  1.861871
H    -1.408632  -0.165402  4.830643
H    -2.283947  1.355507  4.892045
H    -0.295781  1.676844  6.106361
H    -0.095428  2.618774  4.643442
H    1.109614  -0.183898  5.020763
H    1.925211  1.312138  5.532239
H    1.055812  1.553752  2.746985
H    4.891721  0.559708  3.606037
H    3.675010  0.022792  4.708227
H    4.139551  1.249879  1.384460
H    2.569765  1.998626  1.315368
N    -2.949121  -1.208704  2.575366
C    -1.813142  -2.117733  2.624459
H    -3.872671  -1.603732  2.422037
H    -2.176219  -3.130564  2.426265
H    -1.326992  -2.127107  3.610977
H    -1.063444  -1.878911  1.857271
