36
Energy: -21201.5790459 eV PBE+vdW (tier 2 basis)
C    -0.293516  -0.784708  0.009771
C    -0.188314  0.396077  0.935656
O    0.866901  1.064298  0.989204
H    -1.205616  -0.777164  -0.598954
H    -0.308913  -1.713887  0.595509
H    0.586722  -0.789926  -0.637660
N    -1.220406  0.732627  1.767008
C    -2.681747  0.574361  1.644216
C    -3.125067  -0.776902  1.030404
O    -3.654832  -0.832207  -0.076061
H    -0.954604  1.495315  2.388251
H    -3.058062  0.580034  2.679856
C    -3.334006  1.776479  0.933555
C    -2.900263  2.077281  -0.519224
C    -2.167562  3.409890  -0.712312
N    -0.815588  3.365606  -0.145249
C    -0.234972  4.236584  0.685181
N    0.805896  3.820481  1.417260
N    -0.709027  5.490670  0.812832
H    -3.151663  2.661031  1.565776
H    -4.418561  1.610273  0.961568
H    -2.288292  1.264335  -0.933638
H    -3.787511  2.098764  -1.163944
H    -2.724150  4.221128  -0.222219
H    -2.101889  3.651133  -1.783504
H    -0.286029  2.505951  -0.281942
H    1.467058  4.480883  1.805766
H    1.027993  2.805647  1.408214
H    -0.341133  6.108176  1.524397
H    -1.287283  5.902037  0.092303
N    -2.897718  -1.852954  1.824973
C    -3.237842  -3.212826  1.433625
H    -2.469334  -1.703718  2.731910
H    -2.339062  -3.841016  1.371472
H    -3.715304  -3.169314  0.450188
H    -3.936122  -3.660346  2.151995
