36
Energy: -21201.3211589 eV PBE+vdW (tier 2 basis)
C    0.469748  0.680318  1.441553
C    -0.234958  1.113292  2.691181
O    0.312162  1.902263  3.492160
H    -0.187991  0.258906  0.678639
H    1.155862  -0.131448  1.724625
H    1.070639  1.511262  1.057833
N    -1.466189  0.616230  3.017516
C    -2.603592  0.227253  2.180084
C    -2.495904  -1.235877  1.682654
O    -1.415170  -1.709859  1.352025
H    -1.711270  0.853693  3.974733
H    -3.463754  0.303835  2.858714
C    -2.862634  1.177919  0.974430
C    -2.454260  2.646848  1.173929
C    -3.035263  3.335604  2.414346
N    -2.503940  4.686646  2.609644
C    -1.599462  5.072375  3.527184
N    -0.865956  4.204455  4.220574
N    -1.467822  6.397002  3.758862
H    -3.932314  1.112901  0.725999
H    -2.328141  0.803606  0.091319
H    -2.762990  3.205497  0.277209
H    -1.359825  2.733177  1.209129
H    -2.819761  2.773655  3.329864
H    -4.129626  3.417371  2.340940
H    -2.837002  5.408824  1.979689
H    -0.339800  4.564205  5.009329
H    -0.542859  3.255047  3.886143
H    -0.652866  6.761686  4.234129
H    -2.192515  7.053862  3.500691
N    -3.659452  -1.936258  1.591321
C    -4.999320  -1.540023  2.000646
H    -3.532265  -2.876120  1.226598
H    -5.680857  -2.369721  1.789454
H    -5.367285  -0.667486  1.441763
H    -5.061301  -1.331520  3.078836
