36
Energy: -21201.9004961 eV PBE+vdW (tier 2 basis)
C    -0.171983  -0.585805  0.516494
C    -0.180264  -0.342784  2.004345
O    0.797151  -0.648842  2.723864
H    0.718883  -0.120226  0.076153
H    -1.067320  -0.212504  0.007834
H    -0.088063  -1.666436  0.341675
N    -1.285360  0.220099  2.518551
C    -1.538369  0.434643  3.934621
C    -3.010806  0.902091  3.990871
O    -3.543249  1.358444  2.974556
H    -2.072322  0.510078  1.930442
H    -1.418895  -0.523872  4.461909
C    -0.599965  1.468700  4.614302
C    -0.367049  2.761779  3.814511
C    0.924573  2.793342  2.989748
N    2.131838  2.810128  3.827630
C    3.133667  1.916995  3.852230
N    4.288539  2.281733  4.454979
N    3.020940  0.705301  3.319299
H    0.354145  0.971630  4.833612
H    -1.034374  1.716879  5.591091
H    -0.356689  3.622502  4.500133
H    -1.204574  2.950281  3.126730
H    0.942675  3.699077  2.366206
H    0.998157  1.939086  2.310845
H    2.247507  3.620327  4.428003
H    4.994975  1.593855  4.679003
H    4.530115  3.255473  4.582125
H    3.854611  0.140419  3.213332
H    2.109892  0.240181  3.081155
N    -3.670389  0.816090  5.170169
C    -3.226001  0.261368  6.439889
H    -4.615656  1.187713  5.124289
H    -2.797107  1.027555  7.102973
H    -2.480498  -0.526251  6.285831
H    -4.083053  -0.192538  6.949657
