36
Energy: -21201.6433515 eV PBE+vdW (tier 2 basis)
C    -0.559630  -0.301413  0.007039
C    -0.768821  0.969336  0.784565
O    0.093147  1.870300  0.814884
H    -0.208667  -1.080737  0.699126
H    -1.467700  -0.687291  -0.469347
H    0.217629  -0.139167  -0.744844
N    -1.918029  1.132195  1.508457
C    -3.246352  0.577144  1.195831
C    -3.304044  -0.974971  1.278335
O    -3.886532  -1.628406  0.419773
H    -1.904325  1.988135  2.059786
H    -3.902714  0.940682  2.002539
C    -3.798432  1.087802  -0.145603
C    -3.958641  2.624367  -0.226622
C    -3.190062  3.302156  -1.365207
N    -1.742093  3.241516  -1.141685
C    -0.783438  3.273347  -2.074191
N    -1.080191  3.597067  -3.345241
N    0.467921  2.951893  -1.726774
H    -4.761402  0.592500  -0.312162
H    -3.149879  0.726011  -0.957024
H    -3.674077  3.112998  0.719757
H    -5.016704  2.880095  -0.367949
H    -3.511715  4.352333  -1.452351
H    -3.418048  2.796960  -2.316354
H    -1.403780  3.135949  -0.186011
H    -0.392191  3.500820  -4.080088
H    -1.958178  4.039056  -3.581408
H    1.251772  3.182853  -2.322557
H    0.634286  2.543536  -0.791905
N    -2.695778  -1.504162  2.369673
C    -2.691430  -2.930311  2.658327
H    -2.234549  -0.873095  3.015639
H    -1.664629  -3.308793  2.745612
H    -3.195187  -3.441345  1.832221
H    -3.230028  -3.143485  3.590908
