36
Energy: -21200.8875577 eV PBE+vdW (tier 2 basis)
C    0.082859  -0.286767  0.112539
C    -0.225468  -1.026038  1.395658
O    0.651133  -1.419310  2.155062
H    0.023725  -0.979455  -0.739216
H    -0.598065  0.545058  -0.099762
H    1.108833  0.084415  0.180015
N    -1.549157  -1.304204  1.706034
C    -2.788755  -0.951179  1.023233
C    -2.785024  -1.277355  -0.496970
O    -3.039104  -0.404636  -1.327099
H    -1.622347  -1.849287  2.560077
H    -3.553165  -1.611916  1.468461
C    -3.198230  0.519019  1.250260
C    -4.671162  0.835637  0.953874
C    -5.657293  0.406586  2.045428
N    -5.519955  1.154183  3.309315
C    -6.097339  2.325649  3.584100
N    -6.035449  2.830321  4.829298
N    -6.762324  3.003831  2.638325
H    -2.577752  1.152115  0.605282
H    -2.937780  0.781849  2.287422
H    -4.967465  0.356236  0.010621
H    -4.769098  1.918128  0.772197
H    -5.528261  -0.651921  2.307036
H    -6.699066  0.506962  1.709187
H    -4.861303  0.799546  3.994036
H    -5.730594  2.265107  5.611244
H    -6.246966  3.802778  5.012690
H    -7.378278  3.769603  2.879542
H    -6.668694  2.765791  1.659386
N    -2.517540  -2.558931  -0.862651
C    -2.207985  -3.715305  -0.033088
H    -2.512127  -2.687950  -1.870514
H    -2.869022  -3.769357  0.841762
H    -1.166213  -3.717753  0.315722
H    -2.379567  -4.619095  -0.627132
