36
Energy: -21201.6297092 eV PBE+vdW (tier 2 basis)
C    -1.014628  -1.178299  2.127999
C    -2.291281  -1.570815  2.843736
O    -2.282197  -2.338891  3.793012
H    -0.315272  -2.015132  2.221576
H    -0.562786  -0.318412  2.641588
H    -1.140246  -0.922593  1.069338
N    -3.522477  -1.082953  2.395608
C    -3.894608  -0.028767  1.452555
C    -3.982080  -0.511178  -0.013151
O    -4.499214  0.219544  -0.890819
H    -4.269831  -1.425105  2.994497
H    -4.940359  0.209210  1.705542
C    -3.067065  1.272002  1.661084
C    -3.417256  2.552335  0.883743
C    -4.851395  3.082768  1.001632
N    -5.728814  2.337759  0.099430
C    -6.962705  2.670906  -0.234810
N    -7.582978  1.998723  -1.229222
N    -7.621507  3.671606  0.382085
H    -2.011496  1.060593  1.455778
H    -3.131441  1.481067  2.739495
H    -3.170252  2.445429  -0.181917
H    -2.749846  3.336355  1.267270
H    -4.862669  4.149048  0.724404
H    -5.207068  3.003025  2.044145
H    -5.282352  1.488458  -0.359133
H    -8.589738  2.023598  -1.323041
H    -7.093567  1.240841  -1.690394
H    -8.469383  4.056726  -0.012795
H    -7.177332  4.198370  1.121688
N    -3.516497  -1.734480  -0.278664
C    -3.545631  -2.351792  -1.595986
H    -3.218755  -2.284598  0.522474
H    -2.584743  -2.838982  -1.796860
H    -3.723636  -1.574427  -2.344261
H    -4.345102  -3.102191  -1.660540
