36
Energy: -21201.1899643 eV PBE+vdW (tier 2 basis)
C    -1.910084  2.466053  0.223135
C    -1.296509  1.167086  0.676064
O    -0.170945  0.793396  0.309869
H    -1.307555  2.888816  -0.584741
H    -1.924693  3.176912  1.061985
H    -2.954221  2.354668  -0.099857
N    -2.020393  0.392271  1.544498
C    -3.474910  0.323595  1.657722
C    -4.184003  1.497389  2.378150
O    -5.231892  1.911033  1.886782
H    -1.489507  -0.399350  1.896783
H    -3.911052  0.387937  0.650113
C    -3.913949  -1.018310  2.284496
C    -3.290522  -2.304874  1.715010
C    -3.691714  -2.762073  0.303637
N    -3.434685  -1.830119  -0.810112
C    -2.266435  -1.269361  -1.150154
N    -2.267535  -0.221098  -1.991179
N    -1.085342  -1.707391  -0.691960
H    -5.009623  -1.060323  2.206322
H    -3.691579  -1.000794  3.361882
H    -3.594686  -3.132996  2.372585
H    -2.194078  -2.280072  1.810311
H    -4.773274  -2.942341  0.273464
H    -3.217521  -3.732212  0.086645
H    -4.232759  -1.593136  -1.389225
H    -1.391324  0.132895  -2.356260
H    -3.109169  0.306421  -2.183103
H    -0.386241  -0.984436  -0.448947
H    -1.050919  -2.571269  -0.166117
N    -3.657288  2.019257  3.517574
C    -2.460993  1.646909  4.262223
H    -4.219802  2.779692  3.889838
H    -2.529360  2.094222  5.259151
H    -1.538890  2.007520  3.786086
H    -2.383158  0.561167  4.399371
