36
Energy: -21201.9344758 eV PBE+vdW (tier 2 basis)
C    1.288994  -3.698382  -0.655492
C    -0.100308  -3.227955  -0.300037
O    -1.110747  -3.695384  -0.877656
H    1.338849  -4.792133  -0.577795
H    2.074766  -3.255396  -0.034234
H    1.482335  -3.440550  -1.705167
N    -0.180378  -2.314033  0.684300
C    -1.338429  -1.526760  1.096318
C    -0.780891  -0.594575  2.206157
O    0.311569  -0.837152  2.724508
H    0.659235  -2.032690  1.201447
H    -1.660862  -0.911646  0.239007
C    -2.589851  -2.302819  1.573144
C    -2.479733  -3.217732  2.803684
C    -1.612098  -4.477261  2.666440
N    -1.860072  -5.130834  1.376709
C    -1.463659  -6.349374  1.002368
N    -1.272461  -7.336143  1.894380
N    -1.249617  -6.564355  -0.305299
H    -3.003198  -2.845236  0.711898
H    -3.353541  -1.547068  1.807313
H    -3.502619  -3.526004  3.062659
H    -2.098273  -2.653182  3.666805
H    -1.856438  -5.158953  3.492707
H    -0.543101  -4.226303  2.748021
H    -1.922192  -4.483232  0.574901
H    -0.908295  -8.235201  1.609580
H    -1.584786  -7.238654  2.850764
H    -1.229640  -7.495698  -0.699015
H    -1.225165  -5.749024  -0.926949
N    -1.573023  0.442029  2.553295
C    -1.211613  1.411029  3.579849
H    -2.420154  0.605328  2.020588
H    -2.015978  1.503148  4.319901
H    -1.016469  2.396340  3.136830
H    -0.302158  1.057854  4.074070
