36
Energy: -21201.3586212 eV PBE+vdW (tier 2 basis)
C    0.462243  -1.362303  0.495039
C    -0.002714  -1.127537  1.915252
O    0.479353  -1.712576  2.883951
H    0.222224  -2.396343  0.215172
H    0.007830  -0.685103  -0.237942
H    1.553050  -1.262117  0.454176
N    -1.023190  -0.219945  2.069081
C    -1.581857  0.061280  3.386008
C    -2.978884  0.693655  3.205970
O    -3.141733  1.907815  3.333536
H    -1.368659  0.295725  1.267504
H    -1.657854  -0.906561  3.907246
C    -0.670225  0.975691  4.216829
C    -1.058134  1.012544  5.695269
C    -0.143656  1.881454  6.559324
N    1.248524  1.401708  6.623749
C    2.290506  1.875338  5.938939
N    2.120698  2.725798  4.916876
N    3.540456  1.522050  6.292603
H    -0.734088  1.988486  3.783739
H    0.347565  0.577668  4.096902
H    -1.073610  -0.010922  6.103795
H    -2.076224  1.413431  5.806438
H    -0.509184  1.911600  7.594302
H    -0.125411  2.921735  6.206550
H    1.423329  0.591648  7.210488
H    2.899274  3.255668  4.547448
H    1.228589  2.790637  4.440295
H    4.307229  1.593899  5.636047
H    3.724456  1.062272  7.175047
N    -3.991932  -0.147596  2.872313
C    -3.951980  -1.600639  2.763789
H    -4.889359  0.316506  2.763973
H    -3.930036  -2.092077  3.747839
H    -3.085172  -1.932966  2.180270
H    -4.853314  -1.933193  2.239238
