36
Energy: -21202.0180977 eV PBE+vdW (tier 2 basis)
C    0.452837  1.777337  0.483359
C    -0.149766  0.814621  1.479396
O    -0.178485  -0.403739  1.296279
H    1.493226  1.485219  0.294295
H    0.428461  2.824783  0.804991
H    -0.085786  1.685073  -0.468129
N    -0.651481  1.374025  2.628151
C    -1.331472  0.596768  3.663923
C    -0.543095  -0.698591  3.985863
O    -1.073787  -1.821613  4.067695
H    -0.667269  2.384724  2.707699
H    -1.234154  1.191564  4.586614
C    -2.858790  0.445819  3.449750
C    -3.412707  0.070518  2.056583
C    -3.828073  -1.395652  1.872707
N    -2.711514  -2.318120  2.017412
C    -2.007707  -2.887430  1.049512
N    -0.866788  -3.529844  1.384251
N    -2.404069  -2.887857  -0.238215
H    -3.278849  1.426273  3.712381
H    -3.236748  -0.244212  4.219484
H    -2.704844  0.350641  1.265600
H    -4.317957  0.668513  1.880216
H    -4.314716  -1.523907  0.896660
H    -4.582598  -1.671300  2.624048
H    -2.192336  -2.211636  2.919467
H    -0.193278  -3.732361  0.656099
H    -0.468933  -3.290783  2.289835
H    -1.942401  -3.489168  -0.907548
H    -3.331802  -2.572091  -0.484323
N    0.747382  -0.502800  4.308438
C    1.652159  -1.590242  4.647701
H    1.136411  0.423734  4.173183
H    2.486787  -1.192601  5.233399
H    2.051974  -2.077487  3.745969
H    1.117169  -2.335178  5.245252
