36
Energy: -21201.5647715 eV PBE+vdW (tier 2 basis)
C    -1.392783  -0.486880  -1.595397
C    -0.701010  -0.966503  -0.345324
O    0.204440  -1.818625  -0.377499
H    -0.679227  -0.537761  -2.423900
H    -1.791053  0.529625  -1.508185
H    -2.229604  -1.159325  -1.840056
N    -1.124591  -0.457140  0.853178
C    -2.528644  -0.117226  1.125266
C    -2.885411  1.386640  1.086286
O    -4.067708  1.709604  1.134845
H    -0.573311  -0.789502  1.643186
H    -3.144434  -0.563922  0.331006
C    -2.985359  -0.697611  2.477598
C    -2.722514  -2.189803  2.756968
C    -3.172166  -3.218442  1.707487
N    -2.117856  -3.442998  0.710109
C    -2.210608  -4.170240  -0.407617
N    -3.306609  -4.909825  -0.648439
N    -1.206641  -4.125034  -1.292699
H    -4.060284  -0.485152  2.545543
H    -2.515910  -0.120605  3.289918
H    -3.243654  -2.430147  3.693228
H    -1.658631  -2.374857  2.982006
H    -4.091285  -2.883955  1.200135
H    -3.395436  -4.168322  2.219019
H    -1.203613  -3.024296  0.875878
H    -3.428850  -5.389957  -1.530096
H    -3.983188  -5.094122  0.080132
H    -1.138432  -4.796281  -2.045936
H    -0.466718  -3.418223  -1.174991
N    -1.839077  2.243566  1.004903
C    -2.005190  3.688786  0.985573
H    -0.906199  1.847693  0.964953
H    -1.537844  4.149058  1.865840
H    -3.078580  3.902505  0.998302
H    -1.561845  4.120157  0.079049
