36
Energy: -21201.1908728 eV PBE+vdW (tier 2 basis)
C    0.579166  1.141581  0.630413
C    0.039443  -0.018163  1.447710
O    0.620631  -1.094057  1.525724
H    0.731625  2.035934  1.250762
H    -0.095251  1.417445  -0.192549
H    1.539404  0.836869  0.206872
N    -1.135151  0.188087  2.139908
C    -2.076615  1.284550  2.024283
C    -2.902982  1.303787  3.323548
O    -3.396723  0.261672  3.760435
H    -1.440431  -0.595041  2.715974
H    -1.525473  2.230238  1.917755
C    -3.027384  1.151461  0.797077
C    -3.696525  -0.222214  0.708047
C    -4.609277  -0.357870  -0.505828
N    -5.195989  -1.708098  -0.517873
C    -5.779721  -2.302274  -1.557275
N    -6.092414  -3.609037  -1.502606
N    -6.051853  -1.608417  -2.672368
H    -2.434746  1.334587  -0.112619
H    -3.782625  1.951841  0.849106
H    -4.270836  -0.408771  1.628739
H    -2.916839  -0.996855  0.653040
H    -4.038226  -0.218198  -1.437100
H    -5.414229  0.395184  -0.473262
H    -5.171548  -2.215222  0.362133
H    -6.731778  -4.025288  -2.167168
H    -5.744182  -4.200442  -0.758967
H    -6.308551  -2.075945  -3.532087
H    -5.968514  -0.600695  -2.692871
N    -3.064074  2.521175  3.897117
C    -3.817695  2.725503  5.125240
H    -2.560886  3.307574  3.503227
H    -4.605386  3.475278  4.977822
H    -3.158452  3.053735  5.939432
H    -4.273018  1.769735  5.401513
