36
Energy: -21201.0770934 eV PBE+vdW (tier 2 basis)
C    -0.541267  -0.541122  0.048379
C    -0.343297  -0.575590  1.550749
O    0.411795  -1.383030  2.089739
H    -1.251891  0.219023  -0.297342
H    0.431009  -0.364484  -0.428549
H    -0.887371  -1.528355  -0.281288
N    -1.052970  0.371767  2.248430
C    -1.153978  0.556744  3.694968
C    -0.353472  1.733965  4.313973
O    -0.894556  2.357018  5.234723
H    -1.624991  1.001530  1.698077
H    -2.189531  0.880832  3.875056
C    -0.941353  -0.736277  4.514002
C    -1.444235  -0.585442  5.953130
C    -1.150094  -1.834441  6.777505
N    -1.599937  -1.628639  8.163940
C    -1.379487  -2.458674  9.181540
N    -0.826371  -3.660765  8.963718
N    -1.699825  -2.097686  10.437156
H    0.117313  -1.023103  4.502529
H    -1.481215  -1.550820  4.010081
H    -2.530007  -0.394650  5.952806
H    -0.972282  0.287735  6.427778
H    -0.067688  -2.038708  6.782380
H    -1.668311  -2.708477  6.348537
H    -2.126036  -0.779804  8.347810
H    -0.505110  -4.239021  9.728909
H    -0.658931  -3.992725  8.022978
H    -1.729469  -2.774945  11.188004
H    -2.007601  -1.157688  10.649611
N    0.897057  2.049995  3.893105
C    1.764552  1.428547  2.900487
H    1.258855  2.867406  4.377195
H    2.801721  1.674218  3.153571
H    1.664802  0.337912  2.901822
H    1.563034  1.799529  1.884720
