36
Energy: -21201.7619025 eV PBE+vdW (tier 2 basis)
C    0.448036  0.874490  -0.020936
C    0.447798  0.634754  1.463523
O    1.460090  0.201188  2.054190
H    1.275413  1.548095  -0.275491
H    -0.489679  1.301114  -0.393638
H    0.632848  -0.078752  -0.533068
N    -0.691592  0.909077  2.138993
C    -0.848623  0.547951  3.550757
C    -2.308371  0.204454  3.910454
O    -2.541175  -0.861618  4.470368
H    -1.513751  1.157493  1.600281
H    -0.337601  -0.415338  3.677746
C    -0.225284  1.567782  4.547270
C    0.278555  0.883210  5.836876
C    1.785949  0.604905  5.870740
N    2.237038  -0.095618  4.668723
C    3.401138  -0.721345  4.513047
N    4.210895  -0.978140  5.556068
N    3.766582  -1.090860  3.273858
H    0.591330  2.105884  4.043049
H    -0.964744  2.334653  4.807619
H    -0.275973  -0.052582  5.998491
H    0.061318  1.518176  6.705380
H    1.999432  -0.005500  6.761232
H    2.342702  1.551962  5.974271
H    1.749029  0.094672  3.769780
H    5.095433  -1.450452  5.430645
H    3.926018  -0.762103  6.500779
H    4.555191  -1.701205  3.112518
H    3.165380  -0.836853  2.489902
N    -3.307697  1.081002  3.584753
C    -3.246636  2.496907  3.241150
H    -4.217720  0.731500  3.878663
H    -3.968584  2.721273  2.445467
H    -2.251707  2.777985  2.883176
H    -3.480333  3.132434  4.108565
