36
Energy: -21201.8154532 eV PBE+vdW (tier 2 basis)
C    0.808267  -1.338239  2.369343
C    0.042882  -0.098514  1.979030
O    0.624139  0.889483  1.471936
H    0.168341  -2.163593  2.699854
H    1.493297  -1.075995  3.186855
H    1.427357  -1.666165  1.525360
N    -1.286550  -0.130472  2.189559
C    -2.230940  0.977813  2.093360
C    -3.585489  0.353483  2.504871
O    -3.735841  -0.870194  2.440489
H    -1.746820  -0.996872  2.482951
H    -1.933798  1.746133  2.825365
C    -2.340655  1.698273  0.725052
C    -2.642289  0.861171  -0.527480
C    -1.465866  0.031087  -1.074259
N    -0.203582  0.770722  -1.091353
C    0.362294  1.389481  -2.113582
N    1.592394  1.924215  -1.953220
N    -0.234313  1.499875  -3.317608
H    -1.421631  2.280028  0.578138
H    -3.141091  2.443260  0.826446
H    -2.974935  1.559494  -1.310464
H    -3.482507  0.173277  -0.351357
H    -1.693588  -0.349292  -2.080079
H    -1.297573  -0.855489  -0.451723
H    0.232159  0.897776  -0.146346
H    1.920716  2.651108  -2.575753
H    2.043112  1.857275  -1.047457
H    0.315163  1.704242  -4.142393
H    -1.152942  1.105668  -3.467743
N    -4.582259  1.177712  2.905265
C    -4.566471  2.616854  3.123588
H    -5.445113  0.681570  3.112872
H    -4.898847  3.177345  2.237201
H    -3.565566  2.962535  3.404412
H    -5.240909  2.857006  3.952909
