36
Energy: -21202.0241586 eV PBE+vdW (tier 2 basis)
C    -1.531104  1.425158  0.303799
C    -1.122059  0.925641  1.669124
O    -0.039830  0.393434  1.898176
H    -2.437120  2.042416  0.311415
H    -1.700172  0.559649  -0.350752
H    -0.703140  1.999588  -0.126846
N    -2.037680  1.119418  2.686672
C    -1.829002  0.502454  3.995613
C    -0.485699  0.989488  4.599007
O    0.275269  0.250954  5.256123
H    -2.974990  1.425041  2.448549
H    -2.615285  0.910485  4.651975
C    -1.975006  -1.032818  3.953800
C    -2.213030  -1.712387  5.323492
C    -1.264814  -2.884954  5.588965
N    0.103108  -2.372206  5.586700
C    1.212765  -3.080594  5.485120
N    2.372218  -2.447480  5.203320
N    1.220216  -4.419048  5.639238
H    -1.088138  -1.445199  3.454704
H    -2.822977  -1.248428  3.291219
H    -3.242051  -2.087088  5.391007
H    -2.101208  -0.989909  6.145846
H    -1.379544  -3.655019  4.807281
H    -1.504337  -3.346641  6.560541
H    0.181707  -1.322933  5.484879
H    3.260859  -2.864167  5.448005
H    2.352718  -1.442872  5.063100
H    2.021845  -4.971638  5.367023
H    0.379746  -4.912989  5.905041
N    -0.237024  2.299220  4.457542
C    0.980933  2.929899  4.942651
H    -0.840481  2.818583  3.829018
H    1.204233  2.572428  5.953322
H    0.832466  4.013628  4.969803
H    1.835609  2.699886  4.290530
