36
Energy: -21201.6892239 eV PBE+vdW (tier 2 basis)
C    -2.216847  0.709772  1.421270
C    -1.032082  0.009384  2.047847
O    0.017953  -0.138994  1.411241
H    -2.331258  0.362521  0.388898
H    -3.160117  0.563321  1.960032
H    -1.998985  1.786151  1.387484
N    -1.240644  -0.441460  3.316962
C    -0.295692  -0.964889  4.308284
C    0.691788  0.138386  4.768485
O    1.065150  1.037382  4.018043
H    -2.152922  -0.214442  3.694408
H    -0.935686  -1.193528  5.172461
C    0.369787  -2.327725  3.971789
C    1.345185  -2.463990  2.793251
C    2.616615  -1.618312  2.921378
N    3.482494  -1.696451  1.741800
C    3.524398  -0.781751  0.761564
N    2.602684  0.170153  0.667158
N    4.538454  -0.839349  -0.130569
H    -0.451120  -3.040279  3.808352
H    0.873163  -2.664366  4.891930
H    1.626389  -3.527097  2.727886
H    0.837132  -2.207305  1.857675
H    3.215268  -1.938964  3.786302
H    2.375943  -0.559994  3.072265
H    4.046415  -2.529817  1.615400
H    1.658879  0.085254  1.096510
H    2.760255  0.954984  0.048111
H    4.499415  -0.314687  -0.993783
H    5.399900  -1.322273  0.086107
N    1.149103  0.043515  6.050133
C    0.671567  -0.807179  7.134300
H    1.775149  0.805250  6.296734
H    0.832839  -1.873799  6.929251
H    -0.393266  -0.643401  7.356150
H    1.238932  -0.559919  8.036753
