36
Energy: -21201.985342 eV PBE+vdW (tier 2 basis)
C    -0.523044  -0.200352  -0.013002
C    -0.277364  0.047437  1.455325
O    0.853507  0.257141  1.909096
H    -0.115599  0.642304  -0.585148
H    -1.580199  -0.331224  -0.270828
H    0.030670  -1.097140  -0.318390
N    -1.380207  0.038875  2.261522
C    -1.303819  0.225335  3.713003
C    -0.569687  1.554309  4.029800
O    0.481276  1.626166  4.685386
H    -2.281073  -0.167435  1.846690
H    -2.340874  0.371651  4.053528
C    -0.753959  -1.055187  4.382244
C    -0.413712  -0.998944  5.889474
C    1.060295  -1.349048  6.169413
N    1.918412  -0.530874  5.310424
C    2.955346  -0.961552  4.601402
N    3.237324  -0.363864  3.433561
N    3.711633  -1.991897  5.037712
H    0.130637  -1.362868  3.811291
H    -1.509091  -1.831532  4.200888
H    -1.035079  -1.707826  6.451421
H    -0.628247  -0.007219  6.308175
H    1.247416  -2.411401  5.951217
H    1.291029  -1.178558  7.231408
H    1.464488  0.362896  4.998137
H    4.136776  -0.486911  2.988062
H    2.477607  0.071172  2.898705
H    4.397906  -2.424835  4.434500
H    3.733605  -2.230655  6.020355
N    -1.159153  2.689707  3.592604
C    -2.395139  2.872301  2.846582
H    -0.617901  3.522233  3.811096
H    -2.736805  3.902110  2.992042
H    -3.187870  2.209960  3.216371
H    -2.259628  2.698863  1.769945
