36
Energy: -21201.2960552 eV PBE+vdW (tier 2 basis)
C    -0.563561  -1.235890  1.002829
C    -0.550476  -0.951053  2.482446
O    0.259335  -1.523325  3.235637
H    -1.442736  -1.846099  0.754236
H    -0.616482  -0.332534  0.383669
H    0.336596  -1.805058  0.757493
N    -1.480430  -0.103714  3.033534
C    -2.173500  1.078553  2.489054
C    -2.697965  0.896091  1.043475
O    -2.255081  1.565953  0.113620
H    -1.413263  -0.107446  4.050505
H    -3.064116  1.207353  3.124350
C    -1.326399  2.361048  2.650571
C    0.043537  2.335981  1.955246
C    1.169883  3.038993  2.747099
N    2.443143  2.298802  2.691200
C    2.573307  1.043740  3.149796
N    3.520063  0.234592  2.650038
N    1.776741  0.576550  4.121488
H    -1.190313  2.509641  3.735353
H    -1.926541  3.212108  2.302763
H    0.353301  1.292885  1.811784
H    -0.039319  2.755985  0.947302
H    0.884711  3.189072  3.800400
H    1.381120  4.041613  2.360023
H    3.192408  2.675392  2.121097
H    3.984270  0.435093  1.773883
H    3.751340  -0.628235  3.127592
H    1.170888  1.247752  4.578098
H    1.369342  -0.376525  4.021162
N    -3.682301  -0.028617  0.919758
C    -4.309541  -0.353479  -0.352303
H    -3.982162  -0.529689  1.748911
H    -4.105449  -1.394068  -0.639076
H    -3.895139  0.316166  -1.111767
H    -5.395299  -0.206148  -0.297052
