36
Energy: -21201.7065307 eV PBE+vdW (tier 2 basis)
C    -0.799186  1.187462  0.212403
C    -0.878522  0.054003  1.205800
O    -0.451905  0.183108  2.364609
H    -0.947024  0.874389  -0.827434
H    0.171876  1.685087  0.307205
H    -1.579240  1.918363  0.467111
N    -1.412861  -1.101375  0.736200
C    -1.858427  -2.262863  1.502073
C    -3.271711  -1.981461  2.083705
O    -3.660843  -0.831078  2.262570
H    -1.780997  -1.052138  -0.207370
H    -1.935181  -3.069942  0.760111
C    -0.864488  -2.740551  2.594438
C    -1.102761  -2.169465  4.006716
C    0.211934  -1.784430  4.691335
N    0.020129  -1.023247  5.930186
C    -0.129582  0.307937  6.004826
N    -0.215487  0.874957  7.229617
N    -0.189189  1.068088  4.916041
H    0.146148  -2.492150  2.242942
H    -0.905109  -3.836800  2.628163
H    -1.646552  -2.896387  4.628399
H    -1.735181  -1.276014  3.942332
H    0.819180  -1.174574  4.010344
H    0.808829  -2.668674  4.951454
H    -0.169267  -1.547403  6.777131
H    0.115601  0.390341  8.052938
H    -0.447869  1.853472  7.331296
H    -0.131158  2.073673  5.013931
H    -0.314022  0.700953  3.950721
N    -4.036667  -3.062539  2.400895
C    -3.727641  -4.478562  2.274389
H    -4.930144  -2.809371  2.813776
H    -4.666263  -5.041593  2.243510
H    -3.130358  -4.858204  3.117658
H    -3.192077  -4.690875  1.340871
