36
Energy: -21201.9143049 eV PBE+vdW (tier 2 basis)
C    -1.189974  -3.991217  1.156088
C    -0.574386  -2.841100  1.909477
O    0.519502  -2.983067  2.498823
H    -1.624112  -4.709892  1.865514
H    -0.388215  -4.515680  0.624742
H    -1.965771  -3.690743  0.444043
N    -1.217975  -1.651383  1.952801
C    -2.613970  -1.333756  1.710408
C    -2.677456  0.210951  1.772773
O    -1.860250  0.829464  2.463488
H    -0.732079  -0.869195  2.401413
H    -2.916025  -1.678164  0.709507
C    -3.588612  -1.951613  2.751784
C    -3.490681  -1.440460  4.206666
C    -2.624366  -2.246981  5.189705
N    -1.175727  -2.207668  4.976898
C    -0.368317  -1.151115  5.160298
N    -0.737295  -0.133760  5.956189
N    0.815197  -1.149510  4.543629
H    -3.478292  -3.046614  2.721641
H    -4.606599  -1.752457  2.386798
H    -4.503053  -1.458463  4.635540
H    -3.180837  -0.385268  4.219859
H    -2.900142  -3.309143  5.159494
H    -2.846358  -1.925095  6.218769
H    -0.754024  -2.961372  4.439778
H    -0.255170  0.753867  5.912987
H    -1.592630  -0.173887  6.492222
H    1.531551  -0.477945  4.786902
H    0.954369  -1.816524  3.751499
N    -3.689264  0.783850  1.090253
C    -3.939255  2.219166  1.079005
H    -4.272840  0.191575  0.509579
H    -4.950089  2.438675  1.445065
H    -3.829553  2.622810  0.064607
H    -3.204628  2.696056  1.733881
