36
Energy: -21201.422133 eV PBE+vdW (tier 2 basis)
C    0.054377  -2.766220  1.155980
C    -0.340019  -2.307995  2.542117
O    0.096312  -2.823618  3.565457
H    -0.162204  -3.837592  1.064782
H    1.138510  -2.645387  1.038283
H    -0.456078  -2.227806  0.348351
N    -1.253475  -1.270294  2.592835
C    -1.624261  -0.681042  3.868228
C    -3.118050  -0.290616  3.920209
O    -3.497862  0.695010  4.556136
H    -1.465398  -0.764769  1.738778
H    -1.470306  -1.496482  4.596676
C    -0.712728  0.493456  4.273953
C    -0.725175  0.746279  5.784512
C    0.101000  1.970096  6.163367
N    0.039206  2.181331  7.619404
C    0.456863  3.267276  8.266072
N    0.188225  3.427132  9.574747
N    1.143507  4.219131  7.616902
H    -1.030744  1.401583  3.739478
H    0.307868  0.247363  3.947140
H    -0.323935  -0.140977  6.302353
H    -1.764866  0.899147  6.106685
H    -0.304357  2.863524  5.663065
H    1.151899  1.838279  5.854999
H    -0.344849  1.420190  8.170882
H    0.676260  4.117019  10.130862
H    -0.445992  2.805191  10.058786
H    1.304125  5.127161  8.032686
H    1.451917  4.077825  6.664048
N    -3.949722  -1.127044  3.251702
C    -5.394762  -0.977430  3.250710
H    -3.531617  -1.917378  2.772278
H    -5.635482  -0.028706  3.740234
H    -5.878500  -1.795450  3.802060
H    -5.782511  -0.962858  2.224222
