36
Energy: -21201.5875335 eV PBE+vdW (tier 2 basis)
C    -0.575247  0.548230  -1.237321
C    -0.205791  0.696949  0.223773
O    0.767262  1.329525  0.608111
H    -0.671432  -0.506982  -1.529291
H    -1.530349  1.043454  -1.465175
H    0.212420  1.014207  -1.834257
N    -1.026490  0.070498  1.150299
C    -2.313121  -0.544516  0.913891
C    -3.464643  0.398931  0.506437
O    -4.331359  -0.026957  -0.288690
H    -0.724325  0.216276  2.110120
H    -2.223419  -1.208217  0.040831
C    -2.707834  -1.395640  2.143562
C    -4.046890  -2.134831  2.033026
C    -4.057347  -3.202990  0.928869
N    -5.393133  -3.715335  0.621967
C    -6.200697  -3.227425  -0.333649
N    -5.895537  -2.114645  -0.993468
N    -7.334814  -3.901884  -0.621404
H    -2.742467  -0.746137  3.031415
H    -1.889101  -2.111043  2.316247
H    -4.860900  -1.418363  1.852716
H    -4.265389  -2.612331  2.999027
H    -3.436207  -4.062224  1.215318
H    -3.639043  -2.814110  -0.007845
H    -5.780388  -4.425888  1.232911
H    -6.436107  -1.864516  -1.812392
H    -5.196750  -1.408099  -0.665199
H    -8.042638  -3.495213  -1.218044
H    -7.444476  -4.875030  -0.368388
N    -3.557263  1.652028  0.986906
C    -2.730187  2.372914  1.955232
H    -4.354088  2.154991  0.603970
H    -3.280400  3.270976  2.253054
H    -1.765275  2.679411  1.533927
H    -2.556623  1.778841  2.859531
