36
Energy: -21201.0678743 eV PBE+vdW (tier 2 basis)
C    -0.251314  -0.160236  2.145817
C    -1.017945  0.424840  3.297603
O    -0.494499  0.567723  4.421107
H    0.340480  0.625873  1.652889
H    -0.902545  -0.649479  1.416600
H    0.463114  -0.880217  2.558550
N    -2.318436  0.832328  3.144735
C    -3.133812  1.201209  1.987165
C    -3.746150  -0.038085  1.280753
O    -3.105667  -1.075510  1.161284
H    -2.743624  1.034636  4.044364
H    -3.950805  1.795630  2.420806
C    -2.414346  2.079793  0.932721
C    -1.476563  3.188563  1.435824
C    -2.060145  4.402061  2.175688
N    -2.691680  4.156738  3.488806
C    -2.146022  3.517025  4.533190
N    -2.945984  3.076912  5.529009
N    -0.837179  3.258171  4.634539
H    -3.188364  2.513449  0.281186
H    -1.818360  1.424815  0.282231
H    -0.983946  3.616581  0.549521
H    -0.659335  2.743038  2.017091
H    -2.844862  4.867859  1.566102
H    -1.274141  5.165311  2.289934
H    -3.613246  4.556395  3.627097
H    -3.950964  3.187950  5.489098
H    -2.535023  2.868451  6.431958
H    -0.580710  2.273046  4.889064
H    -0.224870  3.677205  3.944259
N    -5.000638  0.104716  0.769114
C    -5.910489  1.234339  0.880070
H    -5.332144  -0.726554  0.287448
H    -6.830237  0.988680  0.340420
H    -5.502526  2.148326  0.424015
H    -6.190500  1.444334  1.923520
