36
Energy: -21201.7565561 eV PBE+vdW (tier 2 basis)
C    0.375451  -0.196065  -0.162135
C    0.427011  -0.027731  1.335993
O    1.360715  -0.449670  2.020064
H    0.377773  -1.268361  -0.395333
H    -0.502369  0.265946  -0.629126
H    1.284504  0.232878  -0.600748
N    -0.650812  0.622072  1.904048
C    -0.650847  0.876579  3.332301
C    -1.758555  0.183636  4.140809
O    -1.429168  -0.470340  5.151880
H    -1.328780  1.056676  1.290001
H    0.250610  0.339114  3.637962
C    -0.443823  2.364166  3.685069
C    -0.346141  2.721243  5.179449
C    0.579189  1.869914  6.079060
N    1.810555  1.405098  5.435240
C    2.144221  0.125494  5.200647
N    1.289664  -0.869878  5.433590
N    3.392024  -0.160749  4.763177
H    -1.243836  2.980502  3.248008
H    0.479477  2.664164  3.167288
H    -0.034757  3.774010  5.236025
H    -1.341689  2.683590  5.645810
H    0.047219  0.988083  6.444887
H    0.857019  2.458018  6.964751
H    2.470369  2.109037  5.123029
H    0.250434  -0.727220  5.413338
H    1.621194  -1.816885  5.295013
H    3.503999  -0.946177  4.131474
H    4.067474  0.584885  4.650796
N    -3.057663  0.302972  3.805521
C    -3.657610  1.013305  2.684976
H    -3.680293  -0.231896  4.406885
H    -3.661154  0.409011  1.766148
H    -3.146476  1.964645  2.497747
H    -4.695422  1.252102  2.939233
