36
Energy: -21202.0630362 eV PBE+vdW (tier 2 basis)
C    2.231136  -0.387597  0.417852
C    1.690002  -0.126033  1.801065
O    2.443365  -0.133176  2.790839
H    3.036555  0.328699  0.212355
H    1.479184  -0.318594  -0.375953
H    2.680324  -1.388637  0.399230
N    0.358867  0.139023  1.882491
C    -0.442315  0.409382  3.086730
C    0.164049  1.472444  4.040545
O    0.005945  1.394874  5.258249
H    -0.159196  0.071872  1.012919
H    -1.341492  0.914337  2.696113
C    -0.986058  -0.845196  3.802178
C    -0.048059  -1.931558  4.352703
C    0.724587  -1.620185  5.640552
N    1.936071  -0.860091  5.344734
C    2.579921  -0.065391  6.181238
N    3.491339  0.804779  5.687091
N    2.365810  -0.102764  7.510046
H    -1.655604  -1.337500  3.081414
H    -1.630790  -0.479072  4.613564
H    0.654883  -2.282614  3.580736
H    -0.682124  -2.801296  4.574159
H    1.001755  -2.566066  6.131545
H    0.083261  -1.041407  6.323535
H    2.142624  -0.698663  4.338746
H    4.249231  1.124432  6.276905
H    3.669800  0.779845  4.687841
H    2.643034  0.685540  8.081045
H    1.612373  -0.672169  7.873175
N    0.759425  2.528742  3.439878
C    1.279640  3.654360  4.200865
H    0.872692  2.523346  2.433776
H    1.514102  4.470881  3.511386
H    2.189421  3.378686  4.753318
H    0.531552  3.997447  4.925052
