36
Energy: -21201.4517675 eV PBE+vdW (tier 2 basis)
C    -0.117880  0.249013  -0.133666
C    -0.124544  -0.145569  1.329021
O    0.509578  -1.102548  1.760133
H    0.914109  0.452460  -0.447966
H    -0.753670  1.113188  -0.364148
H    -0.462937  -0.606413  -0.727439
N    -0.867282  0.665784  2.159594
C    -1.186284  0.242193  3.514558
C    -2.580796  0.795321  3.830965
O    -2.935456  1.905638  3.381584
H    -1.532348  1.314162  1.746198
H    -1.176577  -0.856203  3.510020
C    -0.197650  0.706035  4.638037
C    1.267179  0.968486  4.227578
C    1.690342  2.433408  4.041262
N    1.271912  3.090707  2.789438
C    0.044555  3.533078  2.505107
N    -0.310355  3.767036  1.228009
N    -0.868680  3.780347  3.459637
H    -0.204537  -0.086905  5.397139
H    -0.603445  1.591829  5.148986
H    1.532416  0.376295  3.341773
H    1.912289  0.591929  5.034706
H    2.785366  2.493763  4.041042
H    1.367958  3.047684  4.896030
H    1.955450  3.111987  2.040230
H    -1.087512  4.386381  1.033300
H    0.263765  3.462030  0.452926
H    -1.806429  3.354861  3.326997
H    -0.542872  3.724262  4.417765
N    -3.388003  0.074949  4.627784
C    -3.152765  -1.253409  5.188327
H    -4.275350  0.527554  4.833073
H    -4.081174  -1.593051  5.656387
H    -2.369904  -1.241956  5.958118
H    -2.884671  -1.977355  4.409117
