36
Energy: -21201.6319835 eV PBE+vdW (tier 2 basis)
C    -0.901926  -0.329328  0.207840
C    -0.665963  -0.080018  1.678404
O    0.330391  -0.463456  2.276201
H    -1.589341  0.392697  -0.250257
H    -1.344364  -1.329596  0.093121
H    0.055249  -0.329055  -0.322914
N    -1.657819  0.665083  2.323586
C    -1.819060  0.532408  3.778852
C    -3.333198  0.299840  3.988746
O    -4.121701  0.607710  3.087484
H    -2.597627  0.669776  1.895468
H    -1.233871  -0.344360  4.096101
C    -1.346992  1.757483  4.590024
C    0.173959  1.962460  4.662129
C    0.861461  2.569697  3.434688
N    0.425394  3.940908  3.131140
C    -0.400658  4.320109  2.150262
N    -0.515215  5.633873  1.864330
N    -1.102514  3.426465  1.451224
H    -1.708443  1.637282  5.620330
H    -1.858351  2.658126  4.213720
H    0.668303  0.999034  4.854697
H    0.398012  2.600471  5.531160
H    0.728883  1.952525  2.540894
H    1.944234  2.615167  3.612006
H    0.767455  4.675493  3.742011
H    -1.267390  5.978371  1.282897
H    0.174140  6.303272  2.180100
H    -1.594871  3.718030  0.616548
H    -1.252844  2.454640  1.786548
N    -3.753070  -0.220030  5.164115
C    -2.966017  -0.702805  6.289361
H    -4.764925  -0.295768  5.230474
H    -3.478097  -1.559469  6.741380
H    -2.832266  0.066721  7.064159
H    -1.979878  -1.046423  5.958958
