36
Energy: -21201.2741482 eV PBE+vdW (tier 2 basis)
C    0.717880  -1.004642  0.604798
C    0.299208  -0.319904  1.885535
O    1.094791  0.194971  2.664441
H    1.356056  -0.322311  0.031050
H    -0.122933  -1.321939  -0.023750
H    1.326894  -1.882187  0.857575
N    -1.062438  -0.284214  2.131557
C    -1.509126  0.166834  3.442923
C    -2.954532  -0.130980  3.827115
O    -3.232010  -0.141888  5.044502
H    -1.636684  -0.935003  1.610339
H    -0.914439  -0.369365  4.199217
C    -1.279068  1.692713  3.688231
C    -0.616445  1.925288  5.051590
C    -0.859149  3.291168  5.678709
N    -2.278601  3.677627  5.893834
C    -3.163733  3.111416  6.734796
N    -4.063531  3.910761  7.345906
N    -3.176869  1.798375  6.968901
H    -2.241472  2.224519  3.624136
H    -0.642336  2.083570  2.887346
H    0.470884  1.802671  4.942473
H    -0.920074  1.144471  5.761010
H    -0.455120  4.083197  5.035485
H    -0.332478  3.353754  6.642624
H    -2.507728  4.627006  5.620806
H    -3.888020  4.899320  7.473164
H    -4.908646  3.529405  7.752087
H    -3.762735  1.455567  7.722146
H    -2.960905  1.098096  6.226443
N    -3.940601  -0.322310  2.922501
C    -3.967530  -0.141348  1.473122
H    -4.830812  -0.524680  3.371661
H    -4.970799  0.193675  1.188404
H    -3.763915  -1.077894  0.932209
H    -3.253467  0.624711  1.157154
