36
Energy: -21201.8937952 eV PBE+vdW (tier 2 basis)
C    -1.200561  -0.600587  0.041741
C    -1.224607  0.147493  1.355237
O    -0.933550  1.333091  1.462462
H    -0.155307  -0.814056  -0.221180
H    -1.754271  -1.546967  0.061649
H    -1.607854  0.045807  -0.742985
N    -1.620895  -0.591885  2.459420
C    -1.466519  -0.073535  3.818667
C    -2.402823  1.128851  4.081657
O    -2.178747  1.955867  4.985235
H    -1.719364  -1.595335  2.350227
H    -1.839874  -0.869033  4.485372
C    0.017778  0.183788  4.165888
C    0.327240  0.435254  5.656387
C    0.811132  1.872196  5.896010
N    0.845870  2.258579  7.309826
C    -0.198342  2.761765  7.982729
N    -1.393569  2.871932  7.410706
N    -0.017138  3.150857  9.264906
H    0.374742  1.017542  3.546729
H    0.564416  -0.704735  3.824667
H    1.098107  -0.266074  6.005950
H    -0.561650  0.243649  6.273548
H    0.165665  2.582300  5.365054
H    1.826636  2.009874  5.502888
H    1.660937  1.997793  7.853500
H    -2.114172  3.419314  7.863435
H    -1.623542  2.459641  6.481412
H    -0.800635  3.453418  9.827595
H    0.908326  3.349697  9.620887
N    -3.518999  1.177288  3.342066
C    -4.496969  2.246910  3.457786
H    -3.583794  0.527052  2.566388
H    -5.405186  1.954789  2.922324
H    -4.112778  3.183909  3.030937
H    -4.741702  2.418550  4.511880
