36
Energy: -21201.3663517 eV PBE+vdW (tier 2 basis)
C    -0.946665  1.091881  -0.010393
C    -0.820889  0.500442  1.374965
O    0.281803  0.277621  1.892018
H    -0.372210  0.472900  -0.710175
H    -0.486839  2.088429  -0.009351
H    -1.978968  1.175876  -0.369189
N    -1.995316  0.238650  2.020940
C    -2.144823  -0.346951  3.356595
C    -1.758287  0.565695  4.554546
O    -2.511162  0.609894  5.529700
H    -2.849922  0.541193  1.569055
H    -3.224258  -0.491797  3.492226
C    -1.450125  -1.723512  3.475135
C    -1.820219  -2.446686  4.775939
C    -0.896418  -3.609865  5.120131
N    -0.968133  -4.673301  4.101699
C    -0.059827  -5.628314  3.909389
N    -0.141824  -6.437985  2.837699
N    0.952367  -5.788819  4.773960
H    -0.362222  -1.580558  3.412698
H    -1.738447  -2.316611  2.592371
H    -2.866099  -2.795189  4.751825
H    -1.775677  -1.745262  5.621605
H    -1.166701  -4.027293  6.103071
H    0.143855  -3.252258  5.163359
H    -1.814612  -4.713750  3.542587
H    -0.775374  -6.235804  2.075505
H    0.379914  -7.303635  2.792240
H    1.756733  -6.356454  4.540529
H    0.963611  -5.300954  5.660035
N    -0.572708  1.208134  4.456137
C    -0.076259  2.095833  5.493487
H    -0.007104  1.026663  3.621045
H    0.141940  3.088959  5.079797
H    0.840892  1.698006  5.950109
H    -0.846418  2.188372  6.265650
