36
Energy: -21201.7314534 eV PBE+vdW (tier 2 basis)
C    -0.165491  0.468974  0.031857
C    -0.050740  -0.007250  1.454330
O    1.060026  -0.120387  2.005148
H    -0.239333  1.566188  0.060375
H    -1.055570  0.084262  -0.481209
H    0.733602  0.197489  -0.528807
N    -1.232034  -0.348977  2.065915
C    -1.563670  -0.116712  3.478830
C    -1.678975  1.430463  3.680065
O    -1.044294  2.199880  2.967665
H    -2.035422  -0.177788  1.467052
H    -2.558421  -0.569573  3.620389
C    -0.618145  -0.706167  4.544773
C    -0.578067  -2.235311  4.698035
C    0.105040  -3.015701  3.564164
N    1.406159  -2.452227  3.214076
C    2.596011  -2.788342  3.684334
N    2.812851  -3.929798  4.364494
N    3.634164  -1.947871  3.478416
H    -0.959255  -0.298902  5.507230
H    0.389437  -0.296877  4.399695
H    -1.597367  -2.635389  4.814908
H    -0.052790  -2.456848  5.639712
H    -0.499014  -2.983577  2.648927
H    0.194621  -4.077916  3.831098
H    1.337993  -1.521975  2.723255
H    3.701827  -4.114627  4.808074
H    2.075176  -4.607504  4.492576
H    4.586888  -2.285785  3.522037
H    3.474830  -1.099401  2.945447
N    -2.505228  1.816243  4.684996
C    -2.703549  3.210281  5.057124
H    -3.028072  1.108137  5.187646
H    -3.757177  3.496829  4.946403
H    -2.093555  3.824492  4.388118
H    -2.390370  3.387695  6.094211
