36
Energy: -21201.8714152 eV PBE+vdW (tier 2 basis)
C    -0.664060  1.996386  0.155707
C    -0.595589  1.649985  1.620286
O    0.222386  2.208337  2.389862
H    -1.421217  1.423946  -0.390517
H    -0.879998  3.067351  0.047128
H    0.319638  1.815312  -0.295605
N    -1.445191  0.713994  2.062275
C    -1.500330  0.209443  3.422596
C    -2.232909  -1.149712  3.279244
O    -2.896445  -1.374745  2.265035
H    -2.070546  0.199392  1.432419
H    -0.470953  0.062832  3.783456
C    -2.274611  1.154008  4.402976
C    -1.492873  1.636934  5.633737
C    -0.467132  2.746331  5.394961
N    -1.121385  4.029835  5.090342
C    -0.678284  4.990425  4.262118
N    0.154351  4.722634  3.260780
N    -1.117037  6.253820  4.458221
H    -3.181589  0.639393  4.748875
H    -2.631908  2.015340  3.821076
H    -0.953166  0.800273  6.098440
H    -2.211071  1.970743  6.401031
H    0.190266  2.483401  4.560665
H    0.151282  2.878340  6.296076
H    -1.875079  4.301929  5.714525
H    0.596012  5.489966  2.770298
H    0.259587  3.752279  2.868203
H    -1.012041  6.957677  3.739647
H    -1.491877  6.549394  5.349736
N    -2.145247  -2.046189  4.290205
C    -1.403441  -1.957447  5.536847
H    -2.701771  -2.881419  4.129760
H    -1.199727  -2.971526  5.896214
H    -1.961003  -1.422893  6.320499
H    -0.435004  -1.464914  5.386436
