36
Energy: -21201.986331 eV PBE+vdW (tier 2 basis)
C    -2.217868  0.218841  0.428806
C    -1.535370  0.196028  1.777295
O    -0.316810  0.093541  1.904440
H    -2.069169  -0.754204  -0.057109
H    -1.728900  0.970569  -0.202059
H    -3.292561  0.429599  0.475562
N    -2.363555  0.326833  2.869965
C    -1.910089  0.208534  4.254066
C    -0.706821  1.132256  4.571476
O    0.172279  0.815431  5.395916
H    -3.364409  0.341310  2.708709
H    -2.720892  0.651542  4.856516
C    -1.784274  -1.240632  4.780088
C    -0.953987  -2.292723  4.025064
C    0.563115  -2.063269  3.942185
N    1.143255  -1.652508  5.219186
C    1.726806  -2.403660  6.132846
N    1.984792  -1.879565  7.356086
N    2.077954  -3.683825  5.901482
H    -2.810036  -1.633128  4.833730
H    -1.446862  -1.171852  5.824598
H    -1.322541  -2.406462  2.995313
H    -1.148047  -3.255150  4.523278
H    0.773760  -1.255123  3.231071
H    1.064845  -2.959618  3.553027
H    0.876756  -0.666808  5.458313
H    2.714021  -2.281240  7.932018
H    1.792343  -0.896149  7.507292
H    2.371348  -4.286505  6.657840
H    1.883941  -4.116033  5.009282
N    -0.755171  2.353514  4.020033
C    0.282751  3.354487  4.215579
H    -1.459357  2.516968  3.308887
H    1.135530  3.179925  3.544236
H    0.636205  3.313947  5.250517
H    -0.134986  4.346128  4.015467
