36
Energy: -21201.3947424 eV PBE+vdW (tier 2 basis)
C    -0.858382  1.776416  0.308635
C    -0.468922  1.458803  1.723795
O    0.269883  2.214262  2.386325
H    -1.879222  1.469810  0.053031
H    -0.719571  2.846078  0.131623
H    -0.190756  1.223624  -0.369206
N    -0.884003  0.283794  2.285755
C    -2.128439  -0.461520  2.042534
C    -2.138275  -1.128758  0.632663
O    -2.918009  -0.762683  -0.241782
H    -0.443424  0.119570  3.187019
H    -2.097241  -1.276676  2.777667
C    -3.426623  0.363568  2.257883
C    -3.300152  1.696597  3.005707
C    -2.821752  1.603526  4.459239
N    -2.690460  2.916035  5.099023
C    -1.551380  3.583450  5.344981
N    -1.606769  4.637606  6.188056
N    -0.382519  3.224988  4.816264
H    -4.157806  -0.282774  2.764953
H    -3.849875  0.565004  1.264475
H    -4.292722  2.172615  2.997042
H    -2.643896  2.389236  2.459696
H    -1.848386  1.107294  4.545039
H    -3.529384  1.014684  5.060885
H    -3.550685  3.390384  5.353065
H    -0.861551  5.320796  6.215111
H    -2.381232  4.763722  6.826368
H    0.455094  3.664206  5.180940
H    -0.247816  2.725000  3.902135
N    -1.238037  -2.125994  0.428296
C    -0.257174  -2.677645  1.351062
H    -1.275348  -2.512092  -0.510692
H    -0.710446  -2.942876  2.316461
H    0.582276  -1.990541  1.528039
H    0.141477  -3.600122  0.917776
