36
Energy: -21201.7817666 eV PBE+vdW (tier 2 basis)
C    -0.981453  1.466311  -0.133070
C    -0.815354  0.498545  1.015265
O    0.289797  0.352049  1.586416
H    -0.321052  1.153622  -0.952041
H    -2.007934  1.528805  -0.509608
H    -0.655743  2.465634  0.184517
N    -1.920414  -0.175652  1.376118
C    -2.076384  -1.118333  2.475228
C    -3.608959  -1.216068  2.674771
O    -4.346803  -0.358899  2.180822
H    -2.829945  0.115871  1.004179
H    -1.689546  -2.100563  2.159366
C    -1.326587  -0.734086  3.779465
C    -1.385905  0.755321  4.156917
C    -0.042505  1.213121  4.745587
N    0.204298  2.652643  4.633077
C    0.968900  3.239373  3.699333
N    1.294796  4.540871  3.870196
N    1.409728  2.578856  2.630863
H    -0.279802  -1.028040  3.638351
H    -1.717064  -1.354041  4.596295
H    -2.205244  0.956836  4.860327
H    -1.599341  1.360011  3.266170
H    0.780108  0.704604  4.228261
H    0.039526  0.950485  5.809091
H    -0.269990  3.267879  5.285192
H    1.713020  5.072749  3.118922
H    1.264383  4.972392  4.784511
H    2.145897  2.997352  2.075327
H    0.989019  1.687246  2.255910
N    -4.097301  -2.251988  3.397750
C    -3.399090  -3.391935  3.973745
H    -5.107911  -2.219171  3.502577
H    -3.119645  -3.223889  5.024427
H    -2.494144  -3.629773  3.404004
H    -4.054485  -4.268919  3.929632
