36
Energy: -21200.9092631 eV PBE+vdW (tier 2 basis)
C    0.557551  0.708616  0.708427
C    0.146758  1.140674  2.098175
O    0.824258  1.882620  2.801316
H    -0.156161  1.067249  -0.046930
H    0.606163  -0.385519  0.615730
H    1.543335  1.129681  0.496982
N    -1.056793  0.657602  2.582933
C    -2.068250  -0.107895  1.877435
C    -3.044773  0.621266  0.914812
O    -3.535484  -0.052169  0.011021
H    -1.318381  1.101224  3.460027
H    -1.555626  -0.800315  1.194851
C    -2.868041  -0.952945  2.886767
C    -2.000534  -2.053587  3.508890
C    -2.611953  -2.629800  4.787854
N    -1.815502  -3.709797  5.393194
C    -0.778317  -3.544471  6.218360
N    -0.252210  -2.329156  6.425870
N    -0.266958  -4.602225  6.872102
H    -3.732455  -1.390987  2.370576
H    -3.269538  -0.286870  3.670573
H    -0.999521  -1.639722  3.717820
H    -1.849684  -2.862670  2.778611
H    -3.604138  -3.054616  4.588062
H    -2.758216  -1.849464  5.549769
H    -2.025916  -4.660177  5.106860
H    0.396649  -2.163934  7.184905
H    -0.421028  -1.567777  5.780248
H    0.648481  -4.561555  7.301794
H    -0.772179  -5.477021  6.933378
N    -3.340999  1.941234  1.066584
C    -3.002171  2.887030  2.123745
H    -3.981548  2.265883  0.347413
H    -1.951066  3.201865  2.093749
H    -3.231329  2.489083  3.122555
H    -3.624077  3.777563  1.986416
