36
Energy: -21201.4565426 eV PBE+vdW (tier 2 basis)
C    -1.660433  4.383921  0.643392
C    -2.373427  4.376138  1.968065
O    -3.518063  4.848111  2.099091
H    -0.836055  3.666024  0.577315
H    -2.377942  4.210932  -0.165369
H    -1.241275  5.390221  0.497231
N    -1.731341  3.873260  3.066066
C    -0.771516  2.780088  3.184713
C    -1.284615  1.383670  2.716852
O    -0.613435  0.388736  2.940227
H    -2.249709  4.059151  3.919334
H    0.108118  2.984481  2.556646
C    -0.272596  2.676050  4.643611
C    -1.314556  2.725890  5.782437
C    -2.510333  1.751845  5.740797
N    -3.606319  2.196712  4.862255
C    -4.561088  3.091548  5.164923
N    -5.093212  3.841262  4.191904
N    -4.982199  3.227063  6.436325
H    0.444419  3.489073  4.820395
H    0.291030  1.736658  4.702009
H    -1.704775  3.748611  5.922976
H    -0.761073  2.515805  6.709091
H    -2.895529  1.608093  6.757663
H    -2.205886  0.758454  5.388473
H    -3.501366  1.958104  3.870424
H    -4.524714  4.161924  3.371899
H    -5.953066  4.347493  4.371406
H    -4.835048  2.492416  7.116187
H    -5.575922  4.000544  6.705495
N    -2.527159  1.317486  2.119681
C    -2.974175  0.051314  1.532622
H    -2.889417  2.158331  1.681585
H    -2.420172  -0.189362  0.615026
H    -4.042625  0.122509  1.305704
H    -2.804642  -0.755844  2.251860
