36
Energy: -21201.7132806 eV PBE+vdW (tier 2 basis)
C    1.075444  0.866911  0.439071
C    0.750673  1.041977  1.905035
O    1.586507  1.350696  2.749442
H    1.736822  -0.002196  0.327728
H    1.634606  1.744242  0.093481
H    0.194774  0.723891  -0.198234
N    -0.563732  0.846544  2.260051
C    -0.987174  0.878913  3.657239
C    -0.451510  2.153028  4.362729
O    0.135835  2.114351  5.462066
H    -1.230397  0.541658  1.560704
H    -2.086479  0.978168  3.637860
C    -0.613804  -0.432961  4.389745
C    -1.574466  -0.952899  5.472438
C    -1.706712  -0.099215  6.743885
N    -0.411749  0.315221  7.271248
C    0.308710  -0.271945  8.207302
N    -0.072716  -1.418744  8.809731
N    1.470941  0.297194  8.600203
H    0.407460  -0.336759  4.781584
H    -0.563734  -1.209108  3.615058
H    -1.229876  -1.959965  5.754004
H    -2.584799  -1.085762  5.054290
H    -2.291720  -0.624235  7.512282
H    -2.255178  0.829447  6.532929
H    0.013411  1.056565  6.652268
H    0.314135  -1.670950  9.710271
H    -0.946361  -1.857740  8.553378
H    2.184300  -0.263550  9.048279
H    1.783859  1.140846  8.134342
N    -0.716718  3.352262  3.806027
C    -1.401808  3.686276  2.566556
H    -0.296148  4.120639  4.321742
H    -1.771479  4.714111  2.648313
H    -2.267512  3.034883  2.402626
H    -0.737678  3.620867  1.693763
