36
Energy: -21201.3544995 eV PBE+vdW (tier 2 basis)
C    -0.236642  -1.458485  0.097572
C    -0.109946  -0.157471  0.847933
O    0.951842  0.491520  0.830034
H    0.596513  -1.528348  -0.606813
H    -0.156878  -2.294005  0.807055
H    -1.188799  -1.577134  -0.432052
N    -1.148256  0.310661  1.613449
C    -2.606784  0.114870  1.530382
C    -3.038316  -1.338332  1.213348
O    -3.651726  -1.610104  0.184442
H    -0.868962  1.155041  2.111017
H    -2.983767  0.327550  2.543684
C    -3.269782  1.141769  0.587914
C    -2.800119  1.112755  -0.875061
C    -2.711959  2.492069  -1.543535
N    -1.847324  3.461263  -0.835499
C    -0.580234  3.245881  -0.454299
N    0.204838  2.351269  -1.065450
N    -0.061681  3.947202  0.569821
H    -3.071780  2.133062  1.027180
H    -4.357075  0.996765  0.637759
H    -1.824299  0.616068  -0.948888
H    -3.477976  0.494037  -1.474988
H    -3.700533  2.966057  -1.581919
H    -2.382823  2.394126  -2.589115
H    -2.282398  4.318339  -0.513752
H    -0.135404  1.914561  -1.913439
H    0.817760  1.764996  -0.470498
H    0.941327  3.971968  0.709298
H    -0.641297  4.512973  1.175261
N    -2.710075  -2.241034  2.170939
C    -3.020452  -3.658608  2.063744
H    -2.199880  -1.917673  2.985574
H    -3.612018  -3.805226  1.155172
H    -3.603623  -3.993161  2.930628
H    -2.103723  -4.260358  1.997219
