36
Energy: -21200.9567968 eV PBE+vdW (tier 2 basis)
C    -0.024434  0.972636  0.436246
C    0.065791  0.230467  1.752238
O    1.093971  0.157932  2.413353
H    -0.698370  1.838443  0.509793
H    -0.403424  0.330716  -0.371108
H    0.976507  1.324867  0.175770
N    -1.086268  -0.391632  2.204871
C    -2.427608  -0.239923  1.680936
C    -3.120138  1.136824  1.854558
O    -3.953117  1.470713  1.005329
H    -0.960892  -0.831962  3.112538
H    -2.394841  -0.357703  0.587436
C    -3.332854  -1.356360  2.245001
C    -4.675860  -1.454530  1.516998
C    -5.603349  -2.497833  2.133252
N    -6.891809  -2.478723  1.423241
C    -7.834096  -3.419276  1.482283
N    -8.893705  -3.368755  0.656017
N    -7.729800  -4.432057  2.354858
H    -3.497204  -1.186282  3.322455
H    -2.782481  -2.305360  2.150681
H    -4.501607  -1.704869  0.459407
H    -5.168580  -0.469876  1.525466
H    -5.766300  -2.280764  3.202317
H    -5.169710  -3.506107  2.044649
H    -7.095209  -1.639919  0.887102
H    -9.720734  -3.926189  0.826664
H    -8.925482  -2.715612  -0.116259
H    -8.326916  -5.246194  2.288592
H    -7.026698  -4.424608  3.081838
N    -2.841206  1.936045  2.918473
C    -1.987528  1.731461  4.085753
H    -3.356014  2.811218  2.875201
H    -2.224696  2.516665  4.811228
H    -0.918143  1.796098  3.848898
H    -2.184904  0.768422  4.574185
