36
Energy: -21201.4059909 eV PBE+vdW (tier 2 basis)
C    -0.536300  -1.791688  -0.023415
C    -0.456855  -1.072722  1.308842
O    0.470295  -0.316075  1.562613
H    0.046524  -2.721136  0.049864
H    -0.048679  -1.159750  -0.771914
H    -1.540294  -2.062756  -0.364215
N    -1.388645  -1.342157  2.303381
C    -2.735365  -1.907705  2.289352
C    -2.903742  -3.115827  1.350155
O    -3.741120  -3.142064  0.422251
H    -1.153218  -0.827052  3.150176
H    -2.864216  -2.359450  3.289343
C    -3.865401  -0.847339  2.191918
C    -3.707344  0.359186  1.252719
C    -3.687763  0.088411  -0.259652
N    -4.682743  -0.897137  -0.673623
C    -5.891135  -0.681527  -1.164519
N    -6.761796  -1.714311  -1.240538
N    -6.295599  0.530045  -1.588353
H    -3.973885  -0.426304  3.201640
H    -4.811660  -1.372063  1.995489
H    -2.789288  0.912433  1.498953
H    -4.541629  1.040192  1.477810
H    -2.716334  -0.310911  -0.573248
H    -3.808233  1.028762  -0.813704
H    -4.440340  -1.856761  -0.323011
H    -7.549844  -1.673034  -1.874207
H    -6.443601  -2.640046  -0.978945
H    -7.257464  0.698810  -1.848876
H    -5.673666  1.325420  -1.560395
N    -2.153448  -4.203826  1.603730
C    -1.161624  -4.413582  2.652201
H    -2.317741  -4.967586  0.952883
H    -1.007898  -5.491062  2.765436
H    -1.512610  -4.020922  3.614013
H    -0.200597  -3.940697  2.412262
