36
Energy: -21201.6486772 eV PBE+vdW (tier 2 basis)
C    -1.507832  1.533425  -0.334359
C    -1.525228  0.223089  0.425847
O    -0.983302  -0.782284  -0.003818
H    -1.523784  1.299916  -1.403688
H    -2.333952  2.213516  -0.097176
H    -0.559915  2.049825  -0.128522
N    -2.208599  0.158738  1.643283
C    -2.695552  1.241838  2.494176
C    -4.008769  1.873489  1.970992
O    -4.417652  2.974486  2.389976
H    -2.053351  -0.738040  2.097877
H    -3.000462  0.744729  3.430583
C    -1.609977  2.277230  2.878334
C    -1.918572  3.107924  4.143073
C    -2.135162  4.593970  3.822756
N    -2.744958  5.349786  4.920220
C    -4.065678  5.436235  5.135869
N    -4.509140  6.211486  6.149006
N    -4.929661  4.770726  4.373835
H    -1.416256  2.946060  2.028298
H    -0.686483  1.704897  3.029003
H    -2.813249  2.713854  4.645757
H    -1.097477  3.012063  4.867081
H    -2.776496  4.701868  2.939407
H    -1.182301  5.085387  3.587896
H    -2.134968  5.702546  5.649251
H    -3.914178  6.913564  6.568308
H    -5.488836  6.229391  6.397879
H    -5.916780  4.984430  4.437127
H    -4.644121  4.064407  3.663985
N    -4.686056  1.134346  1.082243
C    -5.963269  1.513017  0.502345
H    -4.243667  0.261807  0.802436
H    -6.205923  2.528444  0.828344
H    -6.757255  0.829117  0.829926
H    -5.904491  1.488446  -0.592695
