36
Energy: -21201.8530409 eV PBE+vdW (tier 2 basis)
C    0.684886  -2.132250  -1.784527
C    -0.027665  -2.382937  -0.481267
O    0.199554  -3.416920  0.185507
H    0.503832  -1.135356  -2.201114
H    0.352746  -2.881654  -2.515740
H    1.762318  -2.274490  -1.639390
N    -0.905734  -1.434956  -0.076078
C    -1.817531  -1.493145  1.079010
C    -1.178464  -1.241433  2.466651
O    -1.930315  -0.978686  3.402857
H    -0.986616  -0.616188  -0.668615
H    -2.455918  -0.607370  0.972075
C    -2.751573  -2.746307  0.990997
C    -3.198517  -3.463194  2.274607
C    -2.086584  -4.156735  3.088298
N    -1.063435  -4.771285  2.241130
C    -0.963377  -6.038927  1.858009
N    -1.571438  -7.041362  2.517092
N    -0.221793  -6.322406  0.767413
H    -2.267049  -3.477805  0.332313
H    -3.658885  -2.433279  0.459141
H    -3.933337  -4.220021  1.962152
H    -3.715109  -2.770158  2.950904
H    -2.529291  -4.904404  3.758504
H    -1.575602  -3.435788  3.735797
H    -0.533680  -4.114891  1.639107
H    -1.611838  -7.972639  2.126726
H    -2.054594  -6.874533  3.388490
H    0.176673  -7.243611  0.640266
H    0.199060  -5.543542  0.261337
N    0.171076  -1.314099  2.571809
C    0.875014  -1.030354  3.813366
H    0.713496  -1.554340  1.751459
H    1.596066  -0.215094  3.673359
H    1.409539  -1.919125  4.175241
H    0.133084  -0.728717  4.559114
