36
Energy: -21200.8256034 eV PBE+vdW (tier 2 basis)
C    1.903478  0.494090  0.553079
C    1.159820  0.404370  1.863049
O    1.709470  0.540898  2.956199
H    2.903146  0.065186  0.674093
H    2.024606  1.556854  0.299417
H    1.385783  -0.001864  -0.276618
N    -0.191912  0.165188  1.771367
C    -1.070053  0.371816  2.921271
C    -0.786010  1.772942  3.549035
O    -0.972884  2.734827  2.813084
H    -0.614100  0.264685  0.855124
H    -2.061884  0.560490  2.487967
C    -1.245341  -0.887127  3.812584
C    -0.031262  -1.802454  3.987223
C    -0.291119  -3.021652  4.870386
N    -0.496119  -2.695267  6.294450
C    -1.650571  -2.678486  6.960944
N    -2.826724  -2.727625  6.318822
N    -1.644555  -2.619533  8.305775
H    -2.050608  -1.485805  3.348928
H    -1.631520  -0.543793  4.785053
H    0.834914  -1.245621  4.365296
H    0.276884  -2.183245  3.002810
H    0.568549  -3.704077  4.832763
H    -1.160290  -3.602640  4.530370
H    0.331697  -2.425306  6.817140
H    -2.887983  -2.524204  5.328961
H    -3.681549  -2.950803  6.811950
H    -2.470505  -2.345302  8.822112
H    -0.809388  -2.830142  8.836951
N    -0.509767  1.957086  4.881461
C    0.275333  1.120013  5.779718
H    -0.456924  2.955148  5.072109
H    0.660211  1.756957  6.583001
H    1.129497  0.672080  5.256346
H    -0.331272  0.331595  6.253274
