36
Energy: -21201.821243 eV PBE+vdW (tier 2 basis)
C    0.949147  -0.300176  1.526541
C    0.141494  0.493033  2.518489
O    0.668679  1.065170  3.483680
H    1.440943  -1.125531  2.057135
H    0.353975  -0.710513  0.702745
H    1.741553  0.338305  1.117789
N    -1.211323  0.552900  2.300633
C    -2.059253  1.240189  3.260749
C    -3.141794  0.379296  3.924502
O    -3.098702  0.238634  5.157119
H    -1.596055  0.086860  1.486766
H    -1.380851  1.379880  4.095042
C    -2.538672  2.635886  2.804908
C    -1.391771  3.658235  2.692437
C    -0.884593  4.255620  4.020188
N    -0.517125  3.222804  5.001538
C    -1.043252  3.116635  6.227244
N    -1.317353  4.228878  6.937609
N    -1.293335  1.903718  6.746789
H    -3.298078  2.992757  3.518952
H    -3.048328  2.555601  1.832559
H    -1.726328  4.510680  2.084207
H    -0.549572  3.214957  2.142161
H    -1.669185  4.878427  4.471200
H    -0.021112  4.904993  3.816265
H    -0.017833  2.398361  4.619821
H    -1.915064  4.192224  7.753153
H    -0.838958  5.099020  6.741136
H    -1.461779  1.821169  7.743093
H    -1.727901  1.173760  6.152694
N    -4.095262  -0.170388  3.145138
C    -5.176141  -1.001785  3.661637
H    -4.107929  0.063448  2.158612
H    -6.121892  -0.444617  3.699019
H    -4.910540  -1.316008  4.674863
H    -5.304370  -1.885910  3.026838
