36
Energy: -21201.5310228 eV PBE+vdW (tier 2 basis)
C    1.188272  -0.012678  0.772184
C    -0.001223  -0.899392  1.041699
O    -0.062068  -2.057405  0.591425
H    2.102361  -0.534609  1.080159
H    1.263441  0.152555  -0.310595
H    1.139594  0.958659  1.277046
N    -1.000222  -0.351586  1.785953
C    -2.277263  -0.997608  2.089523
C    -3.430481  -0.109116  1.545357
O    -4.101485  0.576940  2.309927
H    -0.889056  0.610911  2.091655
H    -2.255660  -1.948585  1.543619
C    -2.480469  -1.216672  3.599381
C    -1.458818  -2.136127  4.288527
C    -1.904658  -3.591390  4.506686
N    -2.390816  -4.301033  3.306992
C    -1.707597  -4.435721  2.165425
N    -2.356078  -4.717290  1.022245
N    -0.375588  -4.286102  2.114884
H    -3.505000  -1.586649  3.751624
H    -2.475237  -0.228714  4.077385
H    -1.247195  -1.753222  5.296949
H    -0.493880  -2.091579  3.762821
H    -2.746958  -3.614447  5.208698
H    -1.101009  -4.175289  4.982246
H    -3.337049  -4.664377  3.333636
H    -1.834604  -5.038953  0.216045
H    -3.363346  -4.658907  0.950061
H    -0.025753  -3.657112  1.368451
H    0.113125  -4.202656  2.998547
N    -3.656967  -0.128181  0.201034
C    -2.867273  -0.737508  -0.857411
H    -4.382550  0.527359  -0.079423
H    -2.050358  -0.083286  -1.199157
H    -3.519781  -0.948033  -1.712164
H    -2.422812  -1.683748  -0.529133
