36
Energy: -21201.4940083 eV PBE+vdW (tier 2 basis)
C    -0.009666  1.833828  -0.259763
C    0.599767  1.928311  1.123912
O    1.676248  2.467711  1.324869
H    0.807261  1.702161  -0.976716
H    -0.498742  2.787995  -0.499529
H    -0.742840  1.030146  -0.389098
N    -0.080539  1.352597  2.200641
C    -1.454121  0.863518  2.281365
C    -1.639764  -0.545246  1.674120
O    -2.785341  -1.018976  1.523078
H    0.387425  1.558342  3.079487
H    -1.629696  0.704831  3.357760
C    -2.536141  1.854930  1.761305
C    -3.651804  2.252987  2.737077
C    -4.682289  1.178821  3.113341
N    -4.342536  0.440787  4.346676
C    -4.485350  -0.881022  4.551097
N    -4.381497  -1.739556  3.541535
N    -4.706807  -1.320643  5.807788
H    -2.989960  1.458061  0.843545
H    -2.018071  2.779722  1.480895
H    -4.211814  3.072505  2.264380
H    -3.221755  2.691436  3.653066
H    -4.802311  0.454458  2.301807
H    -5.660710  1.652936  3.280911
H    -4.270064  1.006689  5.187107
H    -3.835725  -1.475696  2.685895
H    -4.640825  -2.708336  3.678272
H    -4.581041  -2.295624  6.047229
H    -5.098774  -0.713979  6.516312
N    -0.521325  -1.207413  1.358534
C    -0.493204  -2.543951  0.787570
H    0.351430  -0.711843  1.526795
H    0.119364  -2.551387  -0.121957
H    -1.516899  -2.836492  0.536207
H    -0.074381  -3.265528  1.501532
