36
Energy: -21201.8052891 eV PBE+vdW (tier 2 basis)
C    -0.612488  -0.952302  0.451778
C    -0.500787  -0.311055  1.814579
O    0.571456  -0.097363  2.373011
H    -0.082509  -0.327230  -0.277696
H    -1.645623  -1.099190  0.114888
H    -0.102221  -1.922911  0.476552
N    -1.686274  0.013288  2.439092
C    -1.634823  0.795307  3.668927
C    -0.804138  0.042170  4.723450
O    -1.030026  -1.151557  5.004246
H    -2.529295  0.065320  1.877500
H    -1.133779  1.750314  3.453020
C    -3.047598  1.134888  4.199328
C    -3.834109  0.035577  4.929262
C    -4.190946  -1.178520  4.059268
N    -4.714929  -2.308759  4.827573
C    -3.961106  -3.311587  5.308220
N    -4.584570  -4.367094  5.877219
N    -2.636834  -3.275950  5.220892
H    -3.634798  1.529578  3.353314
H    -2.937144  1.980065  4.892818
H    -4.760010  0.481697  5.322608
H    -3.260904  -0.307040  5.801328
H    -3.312285  -1.537301  3.510377
H    -4.951603  -0.913757  3.311271
H    -5.682090  -2.273518  5.130193
H    -4.057765  -5.071697  6.375307
H    -5.558226  -4.563796  5.687368
H    -2.104651  -4.107674  5.444841
H    -2.089061  -2.398355  5.039825
N    0.109971  0.743479  5.418640
C    0.690931  2.038601  5.075202
H    0.610767  0.176615  6.097657
H    1.471141  2.263820  5.808471
H    -0.052225  2.844342  5.127610
H    1.144818  2.013310  4.075375
