36
Energy: -21201.6854654 eV PBE+vdW (tier 2 basis)
C    -0.418345  1.134744  0.169530
C    -0.333826  0.603396  1.583595
O    0.706124  0.191090  2.086936
H    0.112730  0.448437  -0.499638
H    0.100943  2.101001  0.121586
H    -1.447009  1.273971  -0.187673
N    -1.507483  0.602183  2.298683
C    -1.509660  0.221125  3.697784
C    -0.972766  -1.212918  3.852605
O    -1.426896  -2.159948  3.176049
H    -2.344952  1.011217  1.904655
H    -0.828035  0.894943  4.244406
C    -2.906699  0.369505  4.343371
C    -3.992329  -0.676647  4.023356
C    -4.955583  -0.415815  2.862802
N    -4.410007  -0.216412  1.495904
C    -3.884849  -1.178512  0.698273
N    -4.112515  -1.082446  -0.631046
N    -3.143349  -2.156817  1.191865
H    -3.271302  1.387983  4.130547
H    -2.737529  0.344439  5.428301
H    -4.655869  -0.740196  4.899058
H    -3.548623  -1.675249  3.935597
H    -5.519798  0.504565  3.061885
H    -5.685031  -1.239225  2.828105
H    -4.843584  0.546786  0.986866
H    -3.576801  -1.638307  -1.285965
H    -4.932935  -0.611192  -0.990976
H    -2.523419  -2.055056  2.062398
H    -2.888084  -2.916101  0.569205
N    -0.062261  -1.399725  4.816242
C    0.558737  -2.690611  5.078965
H    0.384706  -0.572226  5.195718
H    -0.188308  -3.481010  4.959500
H    0.940445  -2.702908  6.104675
H    1.386072  -2.879694  4.380609
