36
Energy: -21200.9042419 eV PBE+vdW (tier 2 basis)
C    0.414328  0.898310  2.912791
C    -0.737671  0.306686  3.695119
O    -0.670600  0.036425  4.888387
H    1.286041  0.941253  3.570141
H    0.178054  1.914993  2.566812
H    0.660594  0.300856  2.023977
N    -1.913959  0.066059  3.003913
C    -2.257644  0.512521  1.667858
C    -2.569941  2.016371  1.426932
O    -2.387383  2.445850  0.288781
H    -2.665324  -0.229387  3.622569
H    -1.383681  0.358170  1.018359
C    -3.410593  -0.330196  1.096030
C    -3.016610  -1.795414  0.885466
C    -4.157550  -2.613761  0.287509
N    -3.734073  -4.010507  0.097373
C    -4.532641  -5.024139  -0.239858
N    -4.068381  -6.285585  -0.228428
N    -5.809003  -4.794999  -0.579097
H    -3.706301  0.124983  0.140293
H    -4.283479  -0.262553  1.767786
H    -2.702941  -2.244436  1.840248
H    -2.148516  -1.835496  0.206888
H    -4.458571  -2.183180  -0.682194
H    -5.029534  -2.601058  0.959966
H    -2.740524  -4.202043  0.180714
H    -4.578927  -7.038831  -0.670996
H    -3.170430  -6.511478  0.179685
H    -6.470789  -5.553650  -0.680480
H    -6.145210  -3.855344  -0.744459
N    -3.023066  2.817109  2.429719
C    -3.453395  2.508035  3.789469
H    -3.158190  3.772945  2.112003
H    -2.615888  2.285408  4.462782
H    -4.166168  1.672247  3.815798
H    -3.976476  3.386896  4.180466
