36
Energy: -21201.8554851 eV PBE+vdW (tier 2 basis)
C    -0.355623  1.030943  0.147174
C    -0.478950  0.892391  1.643434
O    0.340607  1.389292  2.421557
H    -0.313157  2.096499  -0.109476
H    -1.173515  0.559188  -0.409854
H    0.594962  0.583752  -0.170067
N    -1.559005  0.165271  2.091525
C    -1.797762  0.016780  3.516957
C    -1.667062  -1.420507  4.060795
O    -0.914030  -1.634146  5.029716
H    -2.245168  -0.138146  1.411169
H    -0.926587  0.522776  3.934879
C    -3.066103  0.752854  4.006021
C    -3.225968  0.890312  5.529939
C    -2.215347  1.799461  6.252467
N    -0.902132  1.171315  6.455426
C    0.199969  1.379504  5.714596
N    0.490633  2.583435  5.191530
N    1.026804  0.345942  5.520426
H    -3.967545  0.261293  3.610769
H    -3.042755  1.754528  3.549437
H    -3.233564  -0.099227  6.014071
H    -4.221492  1.316425  5.721760
H    -2.609968  2.075616  7.238924
H    -2.077001  2.734011  5.693640
H    -0.929142  0.254340  6.896622
H    0.901215  2.598620  4.259465
H    -0.036773  3.398523  5.476762
H    1.913479  0.507014  5.057076
H    0.573689  -0.577266  5.420394
N    -2.390490  -2.429976  3.531311
C    -3.291949  -2.429851  2.387869
H    -2.192627  -3.329118  3.964877
H    -3.983893  -3.272302  2.489319
H    -2.752772  -2.544118  1.435851
H    -3.900337  -1.518777  2.357285
