36
Energy: -21201.6759203 eV PBE+vdW (tier 2 basis)
C    0.463205  0.439419  1.850953
C    -0.277726  -0.006203  3.083835
O    0.302104  -0.106778  4.182587
H    -0.101196  1.177281  1.267447
H    1.419247  0.869049  2.161111
H    0.669172  -0.416751  1.191956
N    -1.607631  -0.295872  2.979640
C    -2.322241  -0.721688  1.773087
C    -3.825444  -0.336891  1.838466
O    -4.674728  -1.068207  1.342048
H    -2.034458  -0.567551  3.863274
H    -1.904487  -0.156368  0.926385
C    -2.151359  -2.219849  1.467913
C    -2.664196  -3.203949  2.545894
C    -1.582087  -3.975205  3.314934
N    -0.798723  -3.161884  4.254822
C    -1.065587  -2.939611  5.551843
N    -0.562519  -1.846377  6.129593
N    -1.840058  -3.790611  6.249885
H    -1.086586  -2.406040  1.254008
H    -2.688942  -2.408504  0.531615
H    -3.296118  -3.957327  2.057179
H    -3.332748  -2.701680  3.261802
H    -0.865560  -4.435125  2.620737
H    -2.041774  -4.807588  3.862184
H    -0.099466  -2.538562  3.860864
H    -0.178939  -1.087790  5.522359
H    -0.511807  -1.766039  7.137260
H    -2.109157  -3.575370  7.200615
H    -2.011662  -4.731148  5.920985
N    -4.091065  0.846917  2.450662
C    -5.429766  1.416043  2.507350
H    -3.308850  1.406085  2.773105
H    -6.141846  0.632221  2.231719
H    -5.537190  2.252269  1.802969
H    -5.651346  1.771515  3.520795
