36
Energy: -21200.9588458 eV PBE+vdW (tier 2 basis)
C    -0.356536  -1.649075  0.438401
C    -0.345167  -0.402462  1.314050
O    0.519046  0.455999  1.204364
H    -1.253679  -1.692770  -0.195612
H    -0.320299  -2.571710  1.037114
H    0.525197  -1.605761  -0.206076
N    -1.365871  -0.269890  2.230159
C    -2.374407  -1.258732  2.579854
C    -3.710656  -0.546168  2.924839
O    -4.172292  -0.593088  4.063108
H    -1.281746  0.553892  2.822395
H    -2.549726  -1.870988  1.681642
C    -1.931869  -2.149701  3.754776
C    -2.731019  -3.448872  3.913481
C    -2.409695  -4.529110  2.879327
N    -1.021677  -4.996459  3.039523
C    -0.273019  -5.578250  2.103256
N    -0.819981  -5.974774  0.944483
N    1.045128  -5.753792  2.302813
H    -2.035120  -1.563561  4.676704
H    -0.858887  -2.361923  3.627870
H    -3.807819  -3.236925  3.862266
H    -2.571756  -3.866366  4.920740
H    -2.515190  -4.135192  1.856964
H    -3.099795  -5.379553  2.992766
H    -0.614549  -4.895181  3.964775
H    -0.243149  -6.248367  0.159380
H    -1.822963  -6.057422  0.842144
H    1.526933  -5.290741  3.062940
H    1.581504  -6.399755  1.737813
N    -4.333010  0.122578  1.916788
C    -3.906016  0.300826  0.536748
H    -5.170370  0.611723  2.220099
H    -4.758202  0.670625  -0.042355
H    -3.596770  -0.652805  0.087398
H    -3.078755  1.017298  0.440329
