36
Energy: -21201.7959286 eV PBE+vdW (tier 2 basis)
C    -0.012656  -1.422540  0.629971
C    -0.369714  0.022588  0.905573
O    0.314008  0.962062  0.534942
H    0.852715  -1.431425  -0.037396
H    -0.835880  -1.975568  0.156812
H    0.258524  -1.949037  1.556580
N    -1.564214  0.274184  1.587981
C    -2.318779  -0.670355  2.395791
C    -3.842532  -0.514759  2.168915
O    -4.675674  -0.870595  3.031342
H    -1.642004  1.261098  1.832405
H    -2.091726  -1.675012  2.006334
C    -1.935790  -0.676069  3.887728
C    -2.275397  0.616819  4.667128
C    -3.047476  0.352018  5.962336
N    -4.306632  -0.312976  5.630199
C    -5.217200  -0.742762  6.487571
N    -5.129750  -0.478921  7.804415
N    -6.253217  -1.477344  6.028814
H    -0.857783  -0.874409  3.943427
H    -2.423549  -1.543444  4.354803
H    -2.876951  1.303822  4.050498
H    -1.362358  1.167375  4.923647
H    -3.243525  1.307047  6.476105
H    -2.449854  -0.284223  6.637657
H    -4.450608  -0.549950  4.614293
H    -5.750355  -0.918820  8.470416
H    -4.358366  0.059558  8.173640
H    -7.087531  -1.602250  6.586705
H    -6.338650  -1.629936  5.029946
N    -4.191474  -0.026166  0.973308
C    -5.561872  0.126058  0.512305
H    -3.421265  0.238755  0.362350
H    -6.234676  -0.014813  1.362973
H    -5.799728  -0.619711  -0.257813
H    -5.707179  1.128382  0.092811
