36
Energy: -21201.490312 eV PBE+vdW (tier 2 basis)
C    -0.776212  2.256104  1.439968
C    -0.752225  1.374781  2.671894
O    -0.290340  1.736517  3.744299
H    -0.213988  3.165785  1.664470
H    -1.804240  2.536808  1.167943
H    -0.325432  1.757976  0.570073
N    -1.276980  0.096845  2.546025
C    -2.055696  -0.430440  1.444721
C    -3.432884  0.237706  1.228723
O    -3.855167  0.388926  0.055960
H    -1.239385  -0.433430  3.412468
H    -1.516037  -0.208071  0.512065
C    -2.202784  -1.977357  1.570079
C    -1.824917  -2.801702  0.328299
C    -2.807747  -2.760410  -0.852389
N    -2.859944  -1.474030  -1.539512
C    -2.307096  -1.161454  -2.699554
N    -2.565118  0.051818  -3.234921
N    -1.498121  -1.999722  -3.379300
H    -3.223409  -2.237359  1.890002
H    -1.538460  -2.299794  2.383425
H    -1.753158  -3.854512  0.639317
H    -0.818730  -2.513858  -0.015566
H    -3.827226  -2.975407  -0.498689
H    -2.568753  -3.557194  -1.570299
H    -3.289690  -0.680980  -0.981158
H    -1.954168  0.446070  -3.938219
H    -3.170939  0.692664  -2.735506
H    -1.277164  -2.912732  -3.006702
H    -1.330261  -1.857942  -4.367104
N    -4.182126  0.654171  2.261472
C    -3.980196  0.517572  3.704440
H    -5.051866  1.087843  1.960512
H    -4.940989  0.712039  4.191141
H    -3.242679  1.231607  4.090494
H    -3.675525  -0.500467  3.972562
