36
Energy: -21201.6272323 eV PBE+vdW (tier 2 basis)
C    2.535477  1.386430  3.131334
C    1.303303  0.820556  3.795843
O    1.281497  0.596963  5.020474
H    2.589114  2.455283  3.381270
H    3.429410  0.904283  3.541835
H    2.537006  1.287059  2.039839
N    0.260241  0.568090  2.963613
C    -1.155664  0.353437  3.276875
C    -1.880925  1.727474  3.188417
O    -1.291943  2.757704  3.494316
H    0.414100  0.870154  2.006858
H    -1.535723  -0.327100  2.498861
C    -1.437269  -0.258241  4.658607
C    -0.717463  -1.588964  4.931643
C    -0.426724  -1.738639  6.430961
N    0.605965  -2.728891  6.746085
C    1.908731  -2.457400  6.915048
N    2.420607  -1.265736  6.617885
N    2.706935  -3.433170  7.404746
H    -1.154071  0.481997  5.416777
H    -2.525330  -0.390586  4.742214
H    0.234677  -1.615332  4.387354
H    -1.310501  -2.441151  4.568504
H    -1.329474  -2.023352  6.987833
H    -0.091900  -0.776244  6.837576
H    0.336283  -3.705989  6.773829
H    3.347883  -1.035864  6.953112
H    1.951994  -0.553545  6.009535
H    3.712684  -3.330021  7.397851
H    2.323247  -4.203591  7.935993
N    -3.184207  1.712215  2.794649
C    -3.978439  0.586431  2.323073
H    -3.613078  2.633056  2.789830
H    -4.973176  0.956913  2.057350
H    -4.111972  -0.185555  3.094644
H    -3.548799  0.121220  1.424143
