36
Energy: -21201.6212333 eV PBE+vdW (tier 2 basis)
C    -0.425755  0.505011  0.004925
C    -0.554243  -0.114161  1.377605
O    0.400923  -0.548258  2.014789
H    -1.387722  0.767517  -0.452806
H    0.111533  -0.191890  -0.649566
H    0.188011  1.411514  0.081574
N    -1.825309  -0.190940  1.898816
C    -1.986266  -0.623233  3.278092
C    -1.488226  -2.073546  3.409252
O    -1.752364  -2.935797  2.545290
H    -2.581702  0.321599  1.461583
H    -1.334721  0.006899  3.899759
C    -3.447539  -0.417102  3.764460
C    -4.430835  -1.594234  3.891345
C    -4.772316  -2.460712  2.668032
N    -4.961399  -1.728883  1.409237
C    -4.294386  -1.977840  0.266770
N    -4.824686  -1.516587  -0.892794
N    -3.132424  -2.614492  0.278378
H    -3.893789  0.367116  3.132865
H    -3.394699  0.032153  4.765037
H    -5.361215  -1.164703  4.292728
H    -4.078968  -2.292345  4.665868
H    -5.699520  -3.013767  2.878709
H    -3.990459  -3.203245  2.498213
H    -5.773621  -1.125252  1.333992
H    -4.299641  -1.597844  -1.753975
H    -5.825903  -1.399277  -0.987128
H    -2.722864  -2.916664  -0.596698
H    -2.553706  -2.702235  1.166199
N    -0.815763  -2.407750  4.522335
C    -0.250796  -1.507954  5.523967
H    -0.497892  -3.373555  4.527552
H    -1.029761  -0.922297  6.028030
H    0.492069  -0.832666  5.077479
H    0.246028  -2.116971  6.284952
