36
Energy: -21201.3085091 eV PBE+vdW (tier 2 basis)
C    -1.849706  -0.307612  -0.062483
C    -1.236623  -0.036731  1.294797
O    -0.024514  -0.088668  1.499966
H    -1.753521  -1.379432  -0.281982
H    -1.280314  0.231387  -0.827769
H    -2.908671  -0.031409  -0.132384
N    -2.128095  0.264188  2.296016
C    -1.718755  0.410150  3.690039
C    -2.792534  -0.273643  4.562309
O    -3.757136  0.363594  4.983928
H    -3.121233  0.288874  2.089075
H    -0.749422  -0.101961  3.769083
C    -1.547712  1.872533  4.126357
C    -0.463788  2.596381  3.327248
C    -0.290858  4.042999  3.778071
N    0.765536  4.686266  2.978911
C    1.283544  5.892505  3.202563
N    2.353779  6.314073  2.505032
N    0.748867  6.694885  4.134568
H    -1.295128  1.876804  5.198333
H    -2.517911  2.382679  4.037511
H    -0.723479  2.583570  2.257146
H    0.495021  2.064544  3.424840
H    -0.003320  4.083567  4.840569
H    -1.237672  4.594151  3.651173
H    1.105422  4.164358  2.176680
H    2.632047  7.286686  2.505345
H    2.858153  5.688115  1.890769
H    1.219284  7.538068  4.436063
H    -0.116296  6.449310  4.597634
N    -2.636006  -1.604245  4.791518
C    -1.556720  -2.472345  4.338018
H    -3.382650  -2.014153  5.344925
H    -1.828570  -3.506477  4.571371
H    -0.605051  -2.253188  4.843523
H    -1.404115  -2.403814  3.253198
