36
Energy: -21201.8828003 eV PBE+vdW (tier 2 basis)
C    1.015673  -1.131021  1.564308
C    0.510181  -0.650816  2.904177
O    1.061023  -0.922200  3.965241
H    1.128015  -2.221267  1.598586
H    0.367568  -0.860923  0.721944
H    2.014606  -0.709546  1.394757
N    -0.639030  0.117394  2.871221
C    -1.168481  0.713951  4.087104
C    -2.657173  0.375790  4.267876
O    -3.549443  1.256132  4.318338
H    -1.055782  0.342400  1.975460
H    -0.615534  0.196665  4.890630
C    -0.836965  2.210176  4.220784
C    -1.254317  3.124014  3.041488
C    -2.057303  4.351624  3.476294
N    -3.306919  3.891464  4.076456
C    -4.304604  4.648289  4.495132
N    -4.223055  5.993112  4.501128
N    -5.446053  4.058056  4.914464
H    0.250111  2.270027  4.358402
H    -1.275133  2.569473  5.163698
H    -0.367172  3.475009  2.500747
H    -1.859609  2.574776  2.304175
H    -2.267236  4.992630  2.604674
H    -1.475971  4.943703  4.204494
H    -3.395765  2.843523  4.184962
H    -3.391296  6.458110  4.164263
H    -5.045053  6.564243  4.644932
H    -6.105343  4.564697  5.490478
H    -5.477708  3.045437  4.961582
N    -2.997301  -0.918683  4.391166
C    -2.141519  -2.100094  4.415098
H    -3.999885  -1.067161  4.475455
H    -1.158216  -1.870825  4.839025
H    -1.999024  -2.514167  3.407485
H    -2.617606  -2.859479  5.044198
