36
Energy: -21201.4574144 eV PBE+vdW (tier 2 basis)
C    0.564338  0.472728  0.372923
C    -0.046677  -0.364056  1.475103
O    0.621341  -1.052596  2.238364
H    1.328462  1.128665  0.806610
H    -0.162139  1.080015  -0.180614
H    1.077323  -0.195380  -0.330687
N    -1.425530  -0.320700  1.562417
C    -2.149032  -1.090878  2.558520
C    -3.425613  -1.753579  1.981802
O    -4.471258  -1.787037  2.633390
H    -1.940540  0.301972  0.949400
H    -1.452487  -1.894647  2.853188
C    -2.527599  -0.303383  3.818386
C    -1.357893  0.240927  4.634783
C    -1.787470  0.740232  6.016236
N    -2.690355  1.909083  6.002330
C    -4.020560  1.904094  6.135294
N    -4.652784  3.041931  6.482397
N    -4.737503  0.789060  5.946005
H    -3.106683  -1.017775  4.427418
H    -3.213663  0.508757  3.525558
H    -0.836078  1.043758  4.092753
H    -0.606812  -0.546769  4.793752
H    -0.910764  1.041899  6.603879
H    -2.290386  -0.056293  6.582456
H    -2.251721  2.821533  5.931252
H    -5.647314  3.154247  6.333074
H    -4.155126  3.807377  6.918742
H    -5.706759  0.745463  6.234573
H    -4.388853  0.038146  5.355357
N    -3.280630  -2.291833  0.747043
C    -4.336500  -3.027785  0.070569
H    -2.364210  -2.241515  0.315042
H    -4.488759  -2.639572  -0.944281
H    -5.257701  -2.903629  0.647809
H    -4.096887  -4.098193  0.010950
