36
Energy: -21201.2013965 eV PBE+vdW (tier 2 basis)
C    -0.635634  0.437374  -0.311888
C    -0.590289  0.657699  1.184934
O    0.439560  0.969404  1.778751
H    -0.151436  -0.522530  -0.538163
H    -1.651331  0.422435  -0.725106
H    -0.053270  1.221357  -0.807568
N    -1.789860  0.483313  1.843198
C    -1.854778  0.331756  3.300461
C    -3.017448  -0.586282  3.725660
O    -2.865176  -1.403325  4.624490
H    -2.520258  0.016335  1.314430
H    -0.943871  -0.184675  3.635699
C    -1.967615  1.662572  4.081185
C    -0.690025  2.504181  4.055051
C    -0.727948  3.660541  5.049779
N    0.552135  4.384770  4.983232
C    0.846258  5.512308  5.627125
N    -0.015374  6.026821  6.516879
N    2.001455  6.155950  5.379948
H    -2.207479  1.393941  5.122602
H    -2.818698  2.245123  3.694289
H    -0.510975  2.896974  3.045078
H    0.169082  1.856592  4.287581
H    -0.881425  3.276468  6.072441
H    -1.545273  4.359794  4.811203
H    1.282099  3.950501  4.425605
H    0.115418  6.952796  6.902266
H    -0.837389  5.511137  6.801938
H    2.343809  6.877354  6.001158
H    2.622231  5.849487  4.642007
N    -4.197868  -0.411009  3.057485
C    -5.391282  -1.173617  3.399131
H    -4.311713  0.405567  2.466757
H    -5.988675  -0.674316  4.175811
H    -5.077946  -2.149189  3.783236
H    -6.008157  -1.314368  2.504765
