36
Energy: -21201.2499248 eV PBE+vdW (tier 2 basis)
C    -0.163067  -0.517418  1.981197
C    -1.036491  0.293018  2.906057
O    -0.682289  0.562353  4.065116
H    0.882141  -0.313583  2.235126
H    -0.336214  -0.297517  0.922055
H    -0.336480  -1.591163  2.142685
N    -2.234657  0.753275  2.424082
C    -3.148076  -0.085295  1.629582
C    -4.309615  0.800701  1.125785
O    -5.422341  0.735550  1.645240
H    -2.707920  1.345975  3.105927
H    -2.591583  -0.468954  0.762496
C    -3.649590  -1.289607  2.460331
C    -4.183498  -0.924941  3.852212
C    -4.159877  -2.056315  4.875219
N    -2.842299  -2.692426  5.135365
C    -1.895313  -2.252613  5.982216
N    -1.161610  -3.158190  6.657932
N    -1.685820  -0.944594  6.176940
H    -2.797317  -1.981376  2.560313
H    -4.421177  -1.820618  1.886196
H    -5.219985  -0.574292  3.768294
H    -3.628398  -0.077448  4.276739
H    -4.808676  -2.880509  4.552006
H    -4.551425  -1.690687  5.834587
H    -2.770109  -3.672311  4.884524
H    -0.268566  -2.906654  7.063802
H    -1.493939  -4.103115  6.805837
H    -1.640256  -0.292227  5.371996
H    -1.076701  -0.680111  6.944481
N    -4.024007  1.657161  0.110763
C    -2.773908  1.797631  -0.624006
H    -4.817586  2.221022  -0.180000
H    -2.550477  0.910928  -1.236424
H    -1.930451  1.994252  0.050518
H    -2.866911  2.652292  -1.300886
