36
Energy: -21201.8592084 eV PBE+vdW (tier 2 basis)
C    -0.698288  -1.065939  -0.322516
C    -0.471602  -1.036141  1.165324
O    0.639376  -1.332188  1.657571
H    -0.489281  -2.078675  -0.689871
H    -1.716469  -0.783550  -0.610957
H    0.015891  -0.389994  -0.808921
N    -1.518848  -0.693225  1.937081
C    -1.458736  -0.695122  3.387627
C    -2.917242  -0.868640  3.856837
O    -3.810810  -0.323344  3.208514
H    -2.428218  -0.447515  1.545825
H    -0.819630  -1.539313  3.679889
C    -0.867672  0.632770  3.930658
C    -0.302597  0.542472  5.349949
C    1.037347  -0.195577  5.453197
N    2.163879  0.604206  4.953731
C    3.041899  0.271578  3.992635
N    2.766212  -0.645950  3.071819
N    4.238227  0.899398  3.983792
H    -1.650365  1.402182  3.881157
H    -0.078024  0.958630  3.237127
H    -1.016698  0.050064  6.024645
H    -0.178976  1.556772  5.759770
H    1.029830  -1.141153  4.897700
H    1.249584  -0.444686  6.503347
H    2.376243  1.449685  5.473918
H    3.521023  -0.972289  2.479628
H    1.803827  -0.874204  2.719296
H    4.824675  0.886394  3.159748
H    4.605661  1.347588  4.812840
N    -3.180008  -1.575787  4.986503
C    -2.317111  -2.426931  5.790143
H    -4.172087  -1.580999  5.214506
H    -1.350701  -2.574073  5.299289
H    -2.777184  -3.415600  5.914128
H    -2.141055  -2.001544  6.789031
