36
Energy: -21202.0065822 eV PBE+vdW (tier 2 basis)
C    0.026126  -0.687121  -2.142930
C    -0.255164  -1.409739  -0.845648
O    0.292302  -2.465604  -0.537316
H    -0.322425  -1.312953  -2.974775
H    1.110841  -0.575563  -2.257323
H    -0.449005  0.297926  -2.218097
N    -1.158263  -0.796831  -0.002941
C    -1.626243  -1.388721  1.251390
C    -0.450292  -1.930541  2.100628
O    -0.524946  -2.997947  2.741911
H    -1.635113  0.035043  -0.332262
H    -2.014227  -0.543581  1.844333
C    -2.807176  -2.367212  1.100059
C    -2.584028  -3.636517  0.238534
C    -2.940985  -4.936423  0.961265
N    -2.058277  -5.079681  2.116259
C    -2.001308  -6.105428  2.944523
N    -2.718998  -7.226881  2.738582
N    -1.210133  -6.020609  4.038479
H    -3.641267  -1.786695  0.682592
H    -3.127525  -2.638868  2.117263
H    -1.538485  -3.700603  -0.089105
H    -3.191587  -3.584286  -0.673243
H    -2.802616  -5.783293  0.269600
H    -3.995775  -4.929995  1.288135
H    -1.453189  -4.243907  2.339116
H    -2.782062  -7.944424  3.447806
H    -3.352574  -7.293128  1.954108
H    -0.919987  -6.858254  4.525722
H    -0.610590  -5.207121  4.131581
N    0.605359  -1.113135  2.217706
C    1.809187  -1.482311  2.947812
H    0.636697  -0.301226  1.611154
H    1.547085  -1.826890  3.954249
H    2.454324  -0.602791  3.030021
H    2.354317  -2.283688  2.429812
