36
Energy: -21201.2320964 eV PBE+vdW (tier 2 basis)
C    0.219105  1.454069  0.356529
C    0.772057  0.117568  0.774092
O    1.987672  -0.139299  0.741407
H    0.997223  2.013779  -0.168423
H    -0.081003  2.023890  1.248189
H    -0.679050  1.370889  -0.269789
N    -0.109294  -0.837097  1.203300
C    -1.568469  -0.821080  1.149212
C    -2.275040  0.248000  2.026924
O    -3.210561  0.865004  1.526130
H    0.337000  -1.642064  1.633745
H    -1.881437  -0.522862  0.137141
C    -2.138254  -2.226657  1.434826
C    -2.244965  -3.215051  0.260058
C    -0.954843  -3.731889  -0.400454
N    -0.432748  -2.840475  -1.444869
C    0.718554  -2.156219  -1.428003
N    1.773264  -2.510735  -0.677833
N    0.846401  -1.070703  -2.209878
H    -3.157940  -2.090568  1.820096
H    -1.572079  -2.689471  2.260569
H    -2.774831  -4.102158  0.636810
H    -2.903915  -2.795391  -0.517011
H    -1.145774  -4.709907  -0.862365
H    -0.170226  -3.889172  0.350306
H    -1.062534  -2.649821  -2.219076
H    2.242608  -1.738958  -0.164677
H    1.766548  -3.417722  -0.227805
H    1.761647  -0.661770  -2.355366
H    0.043118  -0.594418  -2.598703
N    -1.861354  0.465892  3.304983
C    -0.837453  -0.205992  4.094548
H    -2.408371  1.186010  3.769060
H    0.179316  0.120960  3.835453
H    -1.010546  0.032947  5.148832
H    -0.897613  -1.297943  4.001862
