36
Energy: -21201.8485877 eV PBE+vdW (tier 2 basis)
C    -0.507313  0.241965  -0.170013
C    -0.417053  -0.249639  1.256161
O    0.294637  -1.187514  1.602658
H    0.506537  0.349805  -0.572127
H    -1.044044  1.191782  -0.278911
H    -1.015726  -0.521323  -0.774045
N    -1.177761  0.438061  2.182835
C    -1.306812  -0.050800  3.553843
C    0.076180  -0.098017  4.253171
O    0.380377  -0.977798  5.078462
H    -1.856617  1.114337  1.851426
H    -1.885889  0.716078  4.094665
C    -2.054747  -1.393403  3.646197
C    -2.576192  -1.706591  5.052430
C    -2.983102  -3.169053  5.260664
N    -2.033247  -4.194872  4.779958
C    -0.796038  -4.455501  5.237056
N    -0.321459  -5.712853  5.105589
N    -0.049234  -3.515237  5.810150
H    -1.379105  -2.181863  3.290075
H    -2.893782  -1.358705  2.935936
H    -3.468580  -1.101073  5.274048
H    -1.833766  -1.424062  5.807636
H    -3.910700  -3.382384  4.714969
H    -3.185368  -3.348412  6.326774
H    -2.415122  -4.887082  4.146596
H    0.672757  -5.898410  5.135337
H    -0.942141  -6.498843  4.963369
H    0.808571  -3.805666  6.265826
H    -0.074738  -2.507834  5.509434
N    0.892260  0.933361  3.987854
C    2.230848  1.043685  4.547214
H    0.621916  1.554839  3.233416
H    2.586324  2.070196  4.416112
H    2.928238  0.353941  4.051158
H    2.205308  0.805564  5.615814
