36
Energy: -21200.7028113 eV PBE+vdW (tier 2 basis)
C    -0.065333  0.069995  -0.465213
C    0.342722  0.154949  0.987620
O    1.513433  0.221269  1.334852
H    0.847914  -0.037797  -1.056110
H    -0.578166  0.984985  -0.794346
H    -0.723495  -0.788030  -0.640707
N    -0.633992  0.220907  1.990059
C    -2.060406  -0.078576  2.002883
C    -2.374183  -1.579639  1.758007
O    -1.762361  -2.229760  0.921219
H    -0.175650  0.131630  2.893760
H    -2.380206  0.173843  3.025936
C    -2.909548  0.771117  1.029943
C    -2.578511  2.269926  1.015389
C    -2.580665  2.978900  2.367146
N    -3.921161  2.974581  2.977657
C    -4.190027  3.291887  4.244678
N    -3.212066  3.712118  5.058775
N    -5.439968  3.165581  4.727980
H    -3.969441  0.603094  1.281030
H    -2.793067  0.387514  0.008189
H    -3.264341  2.789525  0.326960
H    -1.573304  2.423052  0.602368
H    -2.243300  4.019049  2.233552
H    -1.881633  2.473399  3.049955
H    -4.709050  2.849070  2.349562
H    -3.361232  3.809468  6.054893
H    -2.294932  3.940985  4.697779
H    -5.714406  3.617952  5.590848
H    -6.179857  2.767943  4.163925
N    -3.391450  -2.125997  2.490920
C    -4.146757  -1.532423  3.579982
H    -3.557737  -3.105170  2.275715
H    -4.885365  -2.262734  3.925848
H    -4.702407  -0.635973  3.261597
H    -3.512548  -1.272313  4.441562
