36
Energy: -21201.0259665 eV PBE+vdW (tier 2 basis)
C    -0.655725  -0.871635  2.051369
C    -0.142721  0.362534  2.764837
O    0.979599  0.395656  3.257799
H    -1.225445  -1.484069  2.764847
H    -1.313908  -0.675179  1.198954
H    0.212802  -1.454031  1.731028
N    -0.982059  1.452759  2.935599
C    -2.209115  1.863431  2.255175
C    -3.229797  0.725083  2.022682
O    -3.618341  0.439904  0.887400
H    -0.516110  2.179952  3.474496
H    -2.707639  2.558250  2.951924
C    -1.957435  2.669144  0.962297
C    -1.123531  1.946942  -0.098000
C    -0.951406  2.799428  -1.350830
N    -0.108674  2.087660  -2.325254
C    -0.004154  2.371962  -3.622314
N    0.654572  1.539861  -4.448820
N    -0.562319  3.484513  -4.121230
H    -1.456245  3.607145  1.249572
H    -2.937490  2.938659  0.542565
H    -1.624310  1.008247  -0.370279
H    -0.128655  1.707662  0.311923
H    -0.488351  3.768816  -1.100525
H    -1.932727  2.988090  -1.812620
H    0.471881  1.339280  -1.958743
H    0.945751  1.837007  -5.371056
H    0.944985  0.619924  -4.143906
H    -0.669394  3.615924  -5.118653
H    -0.949621  4.191776  -3.510703
N    -3.706182  0.088781  3.123406
C    -3.389715  0.316791  4.526354
H    -4.372033  -0.645686  2.900857
H    -3.333081  1.388646  4.753635
H    -2.440715  -0.150473  4.824253
H    -4.194950  -0.107181  5.135095
