36
Energy: -21201.461982 eV PBE+vdW (tier 2 basis)
C    -1.359230  -1.247587  0.328130
C    -0.707960  -0.848911  1.636968
O    0.493235  -0.941154  1.841061
H    -2.197174  -1.942331  0.481364
H    -1.748455  -0.370755  -0.209441
H    -0.600817  -1.729815  -0.293389
N    -1.540003  -0.365983  2.636594
C    -2.936148  0.000877  2.524121
C    -3.238636  1.200282  1.600108
O    -4.223136  1.119797  0.828950
H    -1.037186  -0.107768  3.481887
H    -3.460486  -0.824582  2.023054
C    -3.531564  0.152693  3.942889
C    -4.869337  0.887969  4.125200
C    -6.085332  0.464961  3.281523
N    -6.252204  -0.981732  3.107709
C    -6.286896  -1.627671  1.929668
N    -5.821167  -1.066376  0.817045
N    -6.786892  -2.882454  1.902368
H    -2.800093  0.685435  4.569813
H    -3.594817  -0.861261  4.363365
H    -4.736642  1.965089  3.942183
H    -5.126298  0.804352  5.191329
H    -6.033974  0.910368  2.285217
H    -6.997211  0.855826  3.755352
H    -6.471847  -1.531795  3.931633
H    -6.027803  -1.498227  -0.075212
H    -5.200752  -0.208463  0.820242
H    -6.673811  -3.467209  1.084972
H    -7.406697  -3.216950  2.628517
N    -2.474982  2.304356  1.603293
C    -1.315305  2.642303  2.426885
H    -2.765009  2.989838  0.909594
H    -0.411645  2.108327  2.107277
H    -1.502301  2.437282  3.486986
H    -1.138350  3.717726  2.327841
