36
Energy: -21201.7761639 eV PBE+vdW (tier 2 basis)
C    -3.558228  1.975001  -2.178229
C    -3.006066  2.540797  -0.886586
O    -2.802928  3.730381  -0.712534
H    -4.436327  1.334605  -2.016363
H    -3.842754  2.815759  -2.815794
H    -2.798929  1.380778  -2.707403
N    -2.757040  1.643907  0.157104
C    -2.611068  0.201649  0.047121
C    -3.369315  -0.508686  1.193595
O    -3.080719  -1.663732  1.578706
H    -2.257984  2.098999  0.921625
H    -3.139996  -0.100418  -0.870324
C    -1.134639  -0.251323  -0.086232
C    -0.915117  -1.570081  -0.871729
C    -0.116083  -2.637168  -0.122114
N    -0.875643  -3.046630  1.055834
C    -0.496165  -3.918041  1.974031
N    0.624008  -4.651568  1.836402
N    -1.246895  -4.062671  3.088507
H    -0.682821  -0.310921  0.915572
H    -0.609766  0.561384  -0.602701
H    -0.386671  -1.359025  -1.809795
H    -1.880772  -2.010113  -1.163253
H    0.869388  -2.240330  0.177172
H    0.052638  -3.499700  -0.787586
H    -1.771174  -2.515139  1.226107
H    0.980739  -5.213077  2.597678
H    1.207038  -4.555822  1.016500
H    -1.162045  -4.891013  3.662951
H    -2.116839  -3.544644  3.153365
N    -4.390265  0.175782  1.718764
C    -5.260555  -0.352527  2.758814
H    -4.519106  1.124564  1.375699
H    -4.741780  -0.395668  3.726120
H    -5.593479  -1.363298  2.495874
H    -6.132289  0.301086  2.852969
