36
Energy: -21201.3393597 eV PBE+vdW (tier 2 basis)
C    0.401105  -0.907560  0.762223
C    -0.132718  -1.316815  2.110432
O    0.404980  -2.225620  2.774534
H    1.477571  -1.105475  0.755955
H    0.216360  0.144785  0.521595
H    -0.048346  -1.526450  -0.028448
N    -1.214904  -0.664882  2.618688
C    -2.294006  -0.067853  1.832202
C    -2.603430  1.427326  2.082044
O    -2.805002  2.136101  1.100779
H    -1.436638  -0.959395  3.567045
H    -1.959194  -0.061926  0.789403
C    -3.572630  -0.933771  1.897094
C    -3.339376  -2.398259  1.470318
C    -3.015883  -3.342133  2.637793
N    -2.687228  -4.697145  2.187918
C    -1.554878  -5.379721  2.426474
N    -1.552161  -6.706304  2.171161
N    -0.455989  -4.799260  2.899882
H    -4.308447  -0.464973  1.230889
H    -4.013692  -0.894650  2.906489
H    -4.241373  -2.770912  0.962649
H    -2.529587  -2.450165  0.726303
H    -3.878275  -3.405947  3.319293
H    -2.171120  -2.981922  3.232386
H    -3.401853  -5.187807  1.659890
H    -0.685509  -7.225967  2.131331
H    -2.413522  -7.230645  2.093909
H    0.311359  -5.386441  3.203681
H    -0.253629  -3.774251  2.868653
N    -2.692724  1.913451  3.352251
C    -2.496931  1.247493  4.629499
H    -2.891128  2.910045  3.370843
H    -2.912067  1.884548  5.417184
H    -1.435190  1.075723  4.861638
H    -3.041487  0.293617  4.681374
