36
Energy: -21200.9491496 eV PBE+vdW (tier 2 basis)
C    0.199365  0.319955  0.036701
C    0.059430  0.282793  1.545031
O    0.994286  0.495426  2.307333
H    -0.723519  0.081813  -0.506331
H    0.538667  1.320914  -0.258469
H    0.983400  -0.385697  -0.263501
N    -1.202870  -0.008336  2.018889
C    -1.525610  0.005047  3.442810
C    -1.169235  1.327034  4.193605
O    -0.690932  1.279690  5.322335
H    -1.960116  -0.066875  1.350124
H    -2.624516  -0.080143  3.500859
C    -0.860106  -1.163831  4.193157
C    -1.298281  -2.562587  3.755796
C    -2.699297  -2.936543  4.259272
N    -3.013406  -4.368783  4.134669
C    -2.698983  -5.304483  5.033518
N    -3.158688  -6.560348  4.886329
N    -1.942290  -5.008010  6.099155
H    -1.032851  -1.015065  5.267925
H    0.222390  -1.060931  4.049492
H    -0.569277  -3.291853  4.144381
H    -1.258605  -2.662433  2.659676
H    -3.483826  -2.401923  3.709273
H    -2.827422  -2.654728  5.315292
H    -3.390594  -4.691765  3.249978
H    -2.760632  -7.329463  5.409604
H    -3.895327  -6.776704  4.227494
H    -1.884180  -5.636320  6.890218
H    -1.432540  -4.135519  6.155083
N    -1.469921  2.517966  3.603213
C    -2.145779  2.817551  2.352822
H    -1.175202  3.306249  4.171727
H    -3.007717  2.157081  2.188873
H    -1.478958  2.755942  1.480129
H    -2.534108  3.840485  2.410445
