36
Energy: -21201.870887 eV PBE+vdW (tier 2 basis)
C    -0.010943  -3.445324  -1.829066
C    0.043999  -2.645602  -0.547196
O    1.081870  -2.182447  -0.084151
H    -0.938105  -4.019264  -1.948450
H    0.848404  -4.123502  -1.864423
H    0.084189  -2.755743  -2.679006
N    -1.157318  -2.461607  0.099505
C    -1.259283  -1.551585  1.226157
C    -0.201346  -1.886687  2.299428
O    -0.059326  -3.030091  2.787350
H    -2.010471  -2.738846  -0.370482
H    -1.022137  -0.530030  0.881325
C    -2.710899  -1.493233  1.795112
C    -3.641851  -2.720376  1.711344
C    -3.371360  -3.912634  2.641687
N    -2.106607  -4.582567  2.372363
C    -1.889511  -5.623910  1.589574
N    -2.872049  -6.457964  1.186897
N    -0.631460  -5.835042  1.137479
H    -3.222012  -0.686647  1.251966
H    -2.649545  -1.150382  2.838637
H    -3.723797  -3.088900  0.676256
H    -4.650304  -2.356517  1.959647
H    -4.210285  -4.618750  2.577752
H    -3.335937  -3.576020  3.687637
H    -1.244072  -3.989571  2.583435
H    -2.665215  -7.239072  0.578907
H    -3.758512  -6.476680  1.672388
H    -0.321527  -6.770472  0.905351
H    0.086363  -5.172004  1.417452
N    0.499275  -0.840365  2.753569
C    1.551555  -0.968763  3.752049
H    0.461385  0.016965  2.213463
H    1.700568  -0.001540  4.242065
H    2.494657  -1.291898  3.289319
H    1.253609  -1.712930  4.496662
