36
Energy: -21201.317423 eV PBE+vdW (tier 2 basis)
C    -0.558046  -0.911134  -0.014320
C    -0.520020  -0.435896  1.421870
O    0.491390  -0.503660  2.118829
H    0.320132  -0.525395  -0.544003
H    -1.466919  -0.617940  -0.553529
H    -0.484445  -2.006935  -0.021715
N    -1.700522  0.071290  1.910066
C    -1.871719  0.424207  3.315312
C    -3.228525  -0.118876  3.812230
O    -4.168604  0.639191  4.044442
H    -2.518665  0.081768  1.310363
H    -1.044523  -0.076324  3.841935
C    -1.777082  1.932075  3.579352
C    -0.393431  2.490088  3.243411
C    -0.292970  3.981055  3.547574
N    1.057232  4.466174  3.216143
C    1.542202  5.671560  3.508399
N    0.741158  6.614489  4.025611
N    2.840662  5.952871  3.297405
H    -2.011674  2.102899  4.640543
H    -2.562570  2.449045  3.008930
H    -0.173305  2.324790  2.176859
H    0.377716  1.947862  3.812024
H    -0.481723  4.167305  4.616593
H    -1.040579  4.538600  2.958831
H    1.653064  3.826716  2.698959
H    1.117022  7.470765  4.411331
H    -0.256682  6.465628  4.099114
H    3.182472  6.904822  3.315276
H    3.497556  5.229494  3.035306
N    -3.328907  -1.468906  3.962477
C    -2.340533  -2.496140  3.671294
H    -4.259243  -1.771515  4.237923
H    -1.326020  -2.147226  3.895417
H    -2.368816  -2.816809  2.618653
H    -2.538618  -3.368044  4.304237
