36
Energy: -21201.5569689 eV PBE+vdW (tier 2 basis)
C    -0.357376  -0.577661  -1.351108
C    -0.153314  0.579518  -0.418206
O    0.683997  1.468428  -0.674254
H    0.629909  -0.928512  -1.673167
H    -0.896930  -0.228886  -2.240611
H    -0.910715  -1.410323  -0.903640
N    -0.841790  0.637283  0.755281
C    -2.149076  0.086989  1.096706
C    -3.104734  0.092907  -0.119751
O    -3.020630  0.962870  -0.986800
H    -0.542934  1.403806  1.351794
H    -2.035268  -0.935239  1.487993
C    -2.744132  0.972303  2.219885
C    -3.270115  2.361464  1.805826
C    -2.331129  3.324359  1.070943
N    -1.173686  3.719173  1.907916
C    -0.039670  4.305778  1.450690
N    0.534167  5.256068  2.218401
N    0.512327  3.940050  0.300684
H    -1.976649  1.061632  3.005880
H    -3.576630  0.429477  2.687475
H    -3.655139  2.853385  2.714333
H    -4.142786  2.242191  1.148836
H    -2.898066  4.230588  0.806100
H    -1.976143  2.881091  0.136049
H    -1.411358  3.962899  2.866229
H    1.493723  5.539346  2.063962
H    0.000412  5.774408  2.904293
H    1.279083  4.500657  -0.055317
H    0.465775  2.941404  -0.081746
N    -4.063891  -0.866708  -0.145192
C    -4.263126  -1.984734  0.770077
H    -4.691252  -0.786688  -0.940524
H    -3.390897  -2.652319  0.802454
H    -5.114281  -2.570711  0.410548
H    -4.498981  -1.652636  1.790458
