36
Energy: -21201.1130104 eV PBE+vdW (tier 2 basis)
C    -0.063226  0.484053  -0.196937
C    -0.205361  0.602914  1.293815
O    0.638584  1.194716  1.993364
H    -1.009113  0.604762  -0.737068
H    0.304065  -0.522844  -0.444321
H    0.670941  1.216491  -0.541910
N    -1.276316  0.019847  1.918183
C    -2.572333  -0.442157  1.404559
C    -2.403020  -1.658737  0.437669
O    -2.642614  -1.557098  -0.760474
H    -1.172497  0.018173  2.928194
H    -3.092778  -0.811027  2.299217
C    -3.450287  0.634565  0.719644
C    -3.239089  2.112427  1.069165
C    -3.805679  2.665487  2.385679
N    -3.236081  2.129880  3.638932
C    -1.943358  2.144022  3.982806
N    -1.029292  2.891100  3.351551
N    -1.509214  1.339575  4.980977
H    -4.502199  0.354382  0.881186
H    -3.294662  0.521356  -0.362007
H    -3.747636  2.700115  0.289985
H    -2.177892  2.376172  0.961487
H    -4.879411  2.448259  2.445133
H    -3.719489  3.763799  2.392478
H    -3.892404  1.754135  4.314492
H    -1.367554  3.543316  2.653131
H    -0.147048  2.402260  3.075752
H    -0.637015  1.571267  5.443675
H    -2.154695  0.750211  5.491968
N    -1.967825  -2.823028  0.991119
C    -1.605667  -3.104989  2.370564
H    -1.845229  -3.566640  0.309479
H    -1.546324  -4.190560  2.497594
H    -2.369699  -2.741131  3.071873
H    -0.631821  -2.674366  2.646539
