36
Energy: -21201.4569871 eV PBE+vdW (tier 2 basis)
C    -1.122417  -0.047698  -1.594226
C    -0.891232  0.683065  -0.304121
O    0.160894  1.323142  -0.099207
H    -1.241888  -1.124372  -1.413276
H    -0.263132  0.120599  -2.247492
H    -2.042132  0.284241  -2.094656
N    -1.834692  0.634299  0.684540
C    -3.298996  0.516977  0.568172
C    -3.754341  -0.758464  -0.189976
O    -4.307052  -0.678915  -1.282896
H    -1.515168  1.101254  1.530168
H    -3.646769  0.416285  1.607825
C    -3.955139  1.768655  -0.044975
C    -3.410772  3.104638  0.499483
C    -2.326983  3.717488  -0.403245
N    -1.658422  4.881631  0.184944
C    -0.542804  4.867776  0.929879
N    -0.167482  6.013212  1.544238
N    0.185877  3.767166  1.104178
H    -5.033608  1.698657  0.146229
H    -3.860170  1.719363  -1.139386
H    -3.009328  2.984031  1.518352
H    -4.235014  3.825995  0.588811
H    -2.770862  4.051557  -1.350401
H    -1.556902  2.989902  -0.677095
H    -2.131860  5.773570  0.095814
H    0.768458  6.112936  1.914796
H    -0.697154  6.866497  1.425381
H    1.007864  3.825630  1.693225
H    0.072099  2.851910  0.600121
N    -3.508383  -1.949955  0.418345
C    -2.963121  -2.192933  1.747278
H    -3.860183  -2.746500  -0.105335
H    -2.896202  -3.274668  1.897108
H    -3.607336  -1.787199  2.541911
H    -1.953677  -1.775826  1.854907
