36
Energy: -21201.5807554 eV PBE+vdW (tier 2 basis)
C    0.983419  -0.783021  1.207012
C    0.116321  0.442296  1.377004
O    0.437230  1.510247  0.815109
H    0.603929  -1.674615  1.718404
H    1.078708  -0.999603  0.135398
H    1.989635  -0.561943  1.584950
N    -0.990437  0.271786  2.134036
C    -2.054726  1.193023  2.572092
C    -3.441377  1.051239  1.887656
O    -4.405212  1.448894  2.536120
H    -1.102485  -0.667318  2.501027
H    -2.280785  0.858983  3.593598
C    -1.668654  2.685640  2.684309
C    -2.021749  3.567879  1.470237
C    -1.060864  4.741915  1.288406
N    0.238784  4.185668  0.914681
C    1.364183  4.846748  0.708001
N    2.499198  4.147597  0.487195
N    1.406998  6.191688  0.725509
H    -0.598815  2.742737  2.925463
H    -2.199266  3.078928  3.560072
H    -3.043146  3.953289  1.576084
H    -2.009824  2.984375  0.538179
H    -0.974936  5.326731  2.220338
H    -1.431562  5.411016  0.495461
H    0.275385  3.142828  0.861382
H    2.428227  3.138584  0.397739
H    3.303688  4.591717  0.064349
H    2.287940  6.687598  0.711045
H    0.575092  6.729981  0.925512
N    -3.591277  0.521469  0.641303
C    -2.621829  0.137954  -0.377151
H    -4.572414  0.480519  0.377580
H    -2.185825  -0.854335  -0.193309
H    -1.812083  0.871741  -0.473164
H    -3.143444  0.100070  -1.339242
