36
Energy: -21201.7379927 eV PBE+vdW (tier 2 basis)
C    0.541172  0.058111  0.349721
C    -0.461451  0.965643  1.003599
O    -0.718819  2.096015  0.545564
H    0.749541  -0.853187  0.919350
H    0.196863  -0.214689  -0.654661
H    1.473313  0.627659  0.240904
N    -1.062673  0.581920  2.170632
C    -1.534652  -0.739809  2.568034
C    -1.750526  -1.668123  1.351637
O    -2.233208  -1.260225  0.292771
H    -1.549581  1.352957  2.619286
H    -0.815284  -1.207519  3.261507
C    -2.877129  -0.573847  3.325448
C    -4.139491  -0.197247  2.521849
C    -4.308738  1.251656  2.012579
N    -3.547403  1.651804  0.830467
C    -3.786659  1.279144  -0.428592
N    -2.878321  1.584512  -1.364399
N    -4.933204  0.670086  -0.774937
H    -2.715201  0.154249  4.138230
H    -3.081124  -1.529844  3.828089
H    -4.990898  -0.366413  3.198245
H    -4.271087  -0.899235  1.686690
H    -4.043615  1.969255  2.801787
H    -5.377046  1.436782  1.819744
H    -2.623401  2.089030  0.952460
H    -3.024724  1.352188  -2.336392
H    -1.953194  1.896789  -1.062567
H    -5.048767  0.271043  -1.696013
H    -5.625502  0.432997  -0.079537
N    -1.428536  -2.962299  1.569701
C    -1.648725  -3.997859  0.568304
H    -1.002586  -3.220894  2.451827
H    -1.116579  -3.756546  -0.360420
H    -2.716815  -4.097834  0.336533
H    -1.276900  -4.949491  0.958299
