36
Energy: -21201.730063 eV PBE+vdW (tier 2 basis)
C    1.142162  -0.539829  0.738074
C    0.675470  -0.868177  2.136435
O    1.385536  -1.541907  2.905488
H    1.601199  -1.426460  0.286849
H    1.919472  0.232907  0.816714
H    0.349140  -0.166681  0.080009
N    -0.554321  -0.393154  2.463332
C    -1.178677  -0.230181  3.779673
C    -0.926792  1.230471  4.256907
O    0.138057  1.788593  4.023275
H    -0.973819  0.192973  1.748581
H    -2.259309  -0.388499  3.623636
C    -0.683743  -1.193534  4.869230
C    -0.813445  -2.685029  4.519388
C    0.290958  -3.492778  5.213710
N    0.516238  -4.820206  4.635915
C    1.426750  -5.106199  3.693454
N    1.661105  -6.406210  3.403720
N    2.094662  -4.150884  3.051616
H    -1.253379  -0.964626  5.781317
H    0.363694  -0.948959  5.084108
H    -0.717527  -2.823503  3.435298
H    -1.804469  -3.071817  4.798963
H    0.071788  -3.636561  6.280190
H    1.239347  -2.944429  5.154338
H    -0.105881  -5.571750  4.912293
H    2.213313  -6.664827  2.597272
H    1.435111  -7.137230  4.065162
H    2.911032  -4.405884  2.509850
H    1.808692  -3.144282  3.023350
N    -1.953382  1.780277  4.957421
C    -1.881015  3.105152  5.555720
H    -2.810199  1.249411  5.063443
H    -0.897064  3.522643  5.321131
H    -1.998315  3.050811  6.645936
H    -2.657034  3.763243  5.144008
