36
Energy: -21200.9831011 eV PBE+vdW (tier 2 basis)
C    0.408441  0.814192  1.884196
C    -0.129639  1.265854  3.217268
O    0.603593  1.321684  4.219044
H    1.500558  0.845311  1.918771
H    0.095168  -0.224416  1.705538
H    0.047540  1.415705  1.041234
N    -1.446803  1.621075  3.324230
C    -2.486701  1.672746  2.285581
C    -2.612933  0.261156  1.617274
O    -2.739935  -0.681726  2.391149
H    -1.770408  1.612405  4.286370
H    -3.433415  1.700950  2.847379
C    -2.426027  2.975020  1.461906
C    -2.977748  4.234527  2.159360
C    -2.276329  4.757121  3.421211
N    -0.863543  5.086109  3.194020
C    0.178998  4.466730  3.767743
N    0.102850  3.892196  4.977396
N    1.360108  4.427289  3.129693
H    -3.037841  2.851086  0.560742
H    -1.400088  3.154156  1.106528
H    -4.030238  4.065496  2.436609
H    -3.004097  5.047386  1.415941
H    -2.319147  4.014646  4.224798
H    -2.798093  5.653753  3.783310
H    -0.659422  5.711146  2.419262
H    0.479105  2.922630  5.039638
H    -0.716362  4.085472  5.541324
H    2.192390  4.145994  3.634318
H    1.436617  4.592169  2.134795
N    -2.643417  0.062426  0.268427
C    -2.344810  0.912370  -0.876085
H    -2.826085  -0.916616  0.061868
H    -2.149037  0.260355  -1.733688
H    -1.444515  1.518827  -0.719797
H    -3.181162  1.572663  -1.147236
