36
Energy: -21201.6427917 eV PBE+vdW (tier 2 basis)
C    -0.555634  -1.517003  0.703280
C    -0.939559  -1.235038  2.142935
O    -0.182190  -1.511274  3.059507
H    -0.531779  -2.608195  0.577321
H    -1.215657  -1.102838  -0.065129
H    0.466517  -1.155797  0.544803
N    -2.217145  -0.755459  2.445977
C    -3.154694  0.046062  1.658412
C    -3.612396  -0.661640  0.364491
O    -3.838670  -0.044809  -0.698545
H    -2.303411  -0.636600  3.454315
H    -4.076693  0.060792  2.265356
C    -2.780138  1.532894  1.483975
C    -1.525823  1.881040  0.648490
C    -1.804732  2.901575  -0.457168
N    -2.783241  2.329497  -1.380731
C    -3.279904  2.912097  -2.458939
N    -4.285797  2.306361  -3.126270
N    -2.817541  4.096861  -2.899240
H    -2.664354  1.940412  2.496953
H    -3.665553  2.038431  1.069900
H    -0.737362  2.286561  1.293645
H    -1.095690  0.987944  0.178788
H    -0.867183  3.131305  -0.988861
H    -2.193255  3.840498  -0.026169
H    -3.193092  1.401341  -1.100858
H    -4.586420  1.386488  -2.823007
H    -4.516482  2.577181  -4.073018
H    -3.283348  4.598484  -3.643262
H    -2.082383  4.580712  -2.402442
N    -3.829810  -1.977166  0.480570
C    -4.301776  -2.809320  -0.616610
H    -3.569133  -2.409703  1.361979
H    -3.547847  -2.877719  -1.412796
H    -5.222138  -2.393758  -1.043431
H    -4.506925  -3.812321  -0.232478
