36
Energy: -21202.1074283 eV PBE+vdW (tier 2 basis)
C    -0.654183  1.593861  -0.214314
C    -0.510187  1.519745  1.280483
O    0.473981  2.042853  1.857860
H    -1.569492  1.120402  -0.584387
H    0.213690  1.104323  -0.675027
H    -0.637428  2.645317  -0.526755
N    -1.479155  0.877425  1.956593
C    -1.416645  0.504200  3.362821
C    -1.960542  -0.944592  3.415524
O    -2.753612  -1.318872  2.551876
H    -2.193363  0.347897  1.448598
H    -0.366418  0.542418  3.682940
C    -2.315045  1.386922  4.265635
C    -2.019343  2.892460  4.329552
C    -0.755023  3.324833  5.085395
N    0.438339  3.142884  4.263456
C    1.593373  3.777332  4.403433
N    2.478884  3.732295  3.387621
N    1.899557  4.467477  5.519158
H    -2.295293  0.971329  5.285016
H    -3.347487  1.258142  3.908895
H    -2.869376  3.364013  4.842067
H    -2.004559  3.329695  3.319358
H    -0.665590  2.753609  6.025823
H    -0.849693  4.389590  5.352154
H    0.349426  2.607339  3.358627
H    3.459904  3.921318  3.543759
H    2.216097  3.224846  2.544952
H    2.679596  5.110888  5.534736
H    1.263232  4.489265  6.303877
N    -1.569913  -1.732024  4.446384
C    -0.576882  -1.444058  5.471056
H    -2.001564  -2.651883  4.442538
H    0.391548  -1.161652  5.035242
H    -0.420274  -2.351958  6.061051
H    -0.904560  -0.652641  6.161001
