36
Energy: -21201.5057117 eV PBE+vdW (tier 2 basis)
C    0.235446  -0.101298  1.104880
C    0.017118  -0.680559  2.488673
O    0.891016  -0.620697  3.339661
H    -0.482023  -0.420555  0.342036
H    1.244866  -0.387365  0.788496
H    0.221286  0.993975  1.176421
N    -1.170479  -1.349071  2.785851
C    -2.499777  -1.275983  2.176570
C    -2.539174  -1.803884  0.724332
O    -3.313414  -1.328716  -0.127575
H    -1.164953  -1.635039  3.763370
H    -3.084285  -2.028937  2.731624
C    -3.268854  0.048199  2.370433
C    -2.917420  1.219833  1.430932
C    -4.178420  1.758284  0.738704
N    -3.906380  2.560554  -0.456511
C    -3.763129  2.053059  -1.688933
N    -3.665227  2.902810  -2.733636
N    -3.721447  0.737690  -1.892979
H    -3.137306  0.341998  3.419738
H    -4.337003  -0.191712  2.262040
H    -2.215160  0.894183  0.656113
H    -2.415592  2.029169  1.978075
H    -4.771908  2.383138  1.418435
H    -4.821320  0.921988  0.433976
H    -3.712727  3.548683  -0.337499
H    -3.409756  2.569170  -3.653223
H    -3.971981  3.863522  -2.657130
H    -3.810034  0.379161  -2.835320
H    -3.587324  0.035508  -1.138506
N    -1.742934  -2.857780  0.485531
C    -1.671372  -3.550958  -0.789957
H    -1.115734  -3.131539  1.237319
H    -0.840096  -3.176150  -1.404404
H    -2.610404  -3.397782  -1.330411
H    -1.525702  -4.622427  -0.616000
