36
Energy: -21201.8437057 eV PBE+vdW (tier 2 basis)
C    -1.293031  1.784065  0.492028
C    -1.741301  1.491271  1.904822
O    -2.519077  2.267978  2.494440
H    -0.630605  1.023276  0.064073
H    -2.181661  1.882015  -0.144730
H    -0.778273  2.753143  0.476231
N    -1.248315  0.351291  2.455086
C    -1.522600  -0.286365  3.755914
C    -2.667892  -1.338743  3.740570
O    -2.859829  -1.998535  4.755420
H    -0.606683  -0.165215  1.862738
H    -0.618448  -0.874762  3.975861
C    -1.766878  0.666979  4.935880
C    -0.630418  1.666859  5.210245
C    -1.144542  2.984118  5.794984
N    -2.012242  3.612461  4.797412
C    -2.733578  4.712124  4.944954
N    -2.616392  5.492394  6.034746
N    -3.611252  5.046972  3.976484
H    -1.923328  0.017946  5.806184
H    -2.718571  1.187252  4.771156
H    -0.074930  1.899713  4.288297
H    0.101944  1.236398  5.905462
H    -0.297516  3.646742  6.033909
H    -1.710498  2.797657  6.723614
H    -2.171849  3.070412  3.920808
H    -3.269073  6.243763  6.212854
H    -1.983574  5.241158  6.781861
H    -3.991449  5.982254  3.919026
H    -3.653928  4.472358  3.140471
N    -3.377777  -1.462394  2.592691
C    -4.474812  -2.407481  2.450304
H    -3.155293  -0.850309  1.817946
H    -5.433041  -1.885206  2.327369
H    -4.514241  -3.013151  3.360971
H    -4.310684  -3.064093  1.586653
