36
Energy: -21200.4291522 eV PBE+vdW (tier 2 basis)
C    -0.590751  0.417245  -0.470078
C    0.004814  0.168629  0.899639
O    1.138013  -0.268205  1.042218
H    -0.978055  1.438703  -0.579760
H    -1.405441  -0.292397  -0.669543
H    0.197259  0.258275  -1.210435
N    -0.756288  0.451120  2.023200
C    -2.156285  0.839739  2.184997
C    -3.124442  -0.295145  1.723214
O    -3.130204  -1.316457  2.401788
H    -0.302225  0.098650  2.860978
H    -2.307965  0.782546  3.272899
C    -2.427694  2.311277  1.810464
C    -3.707553  2.844118  2.464790
C    -3.963146  4.310470  2.104049
N    -5.140374  4.890130  2.768840
C    -5.148265  5.492469  3.961074
N    -6.255517  6.126202  4.384501
N    -4.059364  5.489610  4.742450
H    -2.458519  2.468401  0.725381
H    -1.561779  2.886021  2.173634
H    -3.628892  2.732079  3.559471
H    -4.581514  2.242881  2.170151
H    -4.131075  4.419190  1.024428
H    -3.093482  4.942380  2.337946
H    -6.041983  4.740364  2.327817
H    -6.371588  6.389254  5.354928
H    -7.015314  6.339112  3.750842
H    -3.980191  6.119075  5.531055
H    -3.276022  4.879132  4.551192
N    -3.956154  -0.197687  0.635200
C    -4.155946  0.813827  -0.390875
H    -4.497180  -1.052723  0.533316
H    -4.773101  0.371325  -1.179645
H    -3.217930  1.133964  -0.857428
H    -4.693284  1.701676  -0.020141
