36
Energy: -21201.9153848 eV PBE+vdW (tier 2 basis)
C    -1.454963  -1.208006  0.453303
C    -1.308855  -0.247322  1.606111
O    -1.381562  0.980512  1.443495
H    -2.388869  -0.987042  -0.076943
H    -0.632784  -1.030653  -0.252303
H    -1.445805  -2.263113  0.749041
N    -1.094364  -0.805898  2.833470
C    -0.770714  -0.084163  4.072953
C    -1.961041  0.719920  4.637196
O    -2.339947  0.522598  5.807716
H    -1.089901  -1.817413  2.890513
H    -0.604933  -0.861324  4.829132
C    0.543762  0.727817  3.924914
C    1.166076  1.281866  5.224927
C    0.914806  2.766076  5.535284
N    -0.465900  3.055035  5.942722
C    -0.918674  3.116838  7.206513
N    -0.149125  3.643365  8.176825
N    -2.148636  2.667560  7.468143
H    0.404529  1.530748  3.187593
H    1.260229  0.030044  3.470627
H    2.257626  1.177365  5.145038
H    0.869229  0.674779  6.094297
H    1.143760  3.388920  4.659607
H    1.590561  3.086118  6.337049
H    -1.174993  2.831444  5.244668
H    -0.401497  3.541908  9.150838
H    0.622633  4.257896  7.953053
H    -2.594238  2.875171  8.353624
H    -2.496468  1.872676  6.888267
N    -2.489945  1.660756  3.828296
C    -3.735185  2.356262  4.139682
H    -2.129430  1.656505  2.852387
H    -4.225577  2.631377  3.200902
H    -3.564655  3.277051  4.717231
H    -4.398151  1.703327  4.719830
