36
Energy: -21200.9622913 eV PBE+vdW (tier 2 basis)
C    0.012420  3.826452  0.042181
C    -0.142891  3.303737  1.459859
O    0.589843  3.657804  2.372320
H    -0.850754  4.436570  -0.260405
H    0.129246  3.016664  -0.691735
H    0.905121  4.456434  0.018263
N    -1.168210  2.408394  1.700261
C    -2.095466  1.813728  0.749811
C    -3.504906  1.752714  1.387911
O    -4.031764  0.675195  1.671983
H    -1.185984  2.061013  2.657127
H    -2.143182  2.493141  -0.114849
C    -1.600893  0.422160  0.302207
C    -2.489728  -0.370521  -0.666936
C    -2.800404  0.356430  -1.978467
N    -3.648501  -0.436296  -2.883884
C    -3.217690  -1.325032  -3.780642
N    -4.082812  -1.874697  -4.651770
N    -1.922039  -1.663538  -3.848405
H    -1.469599  -0.192817  1.202576
H    -0.596126  0.563189  -0.126651
H    -3.432512  -0.616355  -0.160833
H    -1.989669  -1.328905  -0.884381
H    -1.890978  0.644183  -2.527886
H    -3.352803  1.286444  -1.792998
H    -4.649197  -0.404399  -2.716083
H    -3.850497  -2.718896  -5.159160
H    -5.016517  -1.502727  -4.769297
H    -1.551261  -2.154914  -4.651475
H    -1.284246  -1.444020  -3.094611
N    -4.131001  2.938504  1.622176
C    -3.629776  4.292435  1.429937
H    -5.012016  2.829406  2.116936
H    -4.474028  4.985559  1.502775
H    -3.190737  4.416585  0.431314
H    -2.877610  4.573381  2.179770
