36
Energy: -21201.6502133 eV PBE+vdW (tier 2 basis)
C    -0.134829  0.344692  -0.618269
C    -0.054563  -0.335987  0.722799
O    0.976650  -0.956619  1.059836
H    -1.087385  0.856169  -0.793431
H    0.685829  1.068131  -0.700024
H    0.019201  -0.407350  -1.402534
N    -1.149532  -0.239979  1.509352
C    -1.328905  -0.905612  2.793027
C    -2.808834  -1.347859  2.819329
O    -3.670158  -0.554535  2.449193
H    -1.980331  0.242116  1.168189
H    -0.644174  -1.760589  2.812728
C    -1.068804  0.075768  3.966176
C    -1.016890  -0.515433  5.389432
C    0.352466  -0.956446  5.930228
N    0.920447  -2.179194  5.338553
C    1.509865  -2.258344  4.133941
N    1.994114  -1.188282  3.500694
N    1.615791  -3.453876  3.526484
H    -1.877931  0.818614  3.924760
H    -0.145938  0.632224  3.747990
H    -1.740418  -1.337559  5.500742
H    -1.361843  0.262126  6.086693
H    0.268010  -1.161755  7.004238
H    1.082202  -0.136802  5.849561
H    0.807618  -3.040735  5.861104
H    1.746033  -1.093988  2.476073
H    2.026607  -0.319311  4.020200
H    2.220969  -3.552505  2.720283
H    1.101658  -4.264352  3.843637
N    -3.110561  -2.590454  3.283350
C    -2.201647  -3.691424  3.562368
H    -4.106923  -2.792629  3.267248
H    -1.562537  -3.486557  4.434377
H    -1.566893  -3.933880  2.697530
H    -2.799495  -4.577870  3.795727
