36
Energy: -21201.6892976 eV PBE+vdW (tier 2 basis)
C    0.016239  -0.393368  0.342215
C    -0.306142  -0.131780  1.793427
O    0.544277  0.301245  2.582824
H    0.401403  0.531456  -0.104895
H    -0.837738  -0.747512  -0.246475
H    0.820275  -1.138076  0.286844
N    -1.587377  -0.400131  2.180653
C    -2.069937  -0.239572  3.558228
C    -1.925320  1.242855  3.998570
O    -1.225770  1.600194  4.949434
H    -2.220903  -0.784550  1.490178
H    -3.150962  -0.443409  3.522995
C    -1.391668  -1.295323  4.458600
C    -1.489166  -1.144681  5.989455
C    -0.134644  -1.408989  6.674225
N    0.983098  -0.659402  6.075931
C    1.138835  0.675701  6.090012
N    1.721451  1.258542  5.035138
N    0.813298  1.390194  7.178508
H    -0.339022  -1.300447  4.157492
H    -1.794264  -2.269706  4.149407
H    -2.215629  -1.853529  6.409978
H    -1.828421  -0.139602  6.259242
H    0.148395  -2.466362  6.594162
H    -0.194635  -1.198063  7.750642
H    1.471086  -1.116749  5.313033
H    1.441497  0.925525  4.101552
H    1.976999  2.236411  5.106294
H    0.508339  0.915466  8.018226
H    0.503014  2.346936  7.059800
N    -2.650634  2.150052  3.292626
C    -3.549309  1.955336  2.164789
H    -2.504251  3.103641  3.611272
H    -4.185375  1.071976  2.305394
H    -3.009875  1.857729  1.211893
H    -4.213097  2.823449  2.097470
