36
Energy: -21201.8691767 eV PBE+vdW (tier 2 basis)
C    -1.094353  -0.254356  -0.056797
C    -0.808219  -0.327867  1.426319
O    0.295342  -0.602175  1.885107
H    -2.116715  0.062250  -0.296361
H    -0.915189  -1.243293  -0.497344
H    -0.383344  0.439777  -0.520426
N    -1.875773  -0.059463  2.257114
C    -1.742727  -0.217131  3.694015
C    -3.117522  -0.556465  4.261277
O    -4.147704  0.043605  3.886531
H    -2.808074  0.067060  1.879047
H    -1.049578  -1.056233  3.863615
C    -1.089777  1.020331  4.374867
C    -1.789810  2.362267  4.121311
C    -2.855890  2.716516  5.168658
N    -3.715057  3.833977  4.762199
C    -4.823560  3.715813  4.017252
N    -5.530808  4.829405  3.727903
N    -5.231318  2.533182  3.562039
H    -0.068920  1.061579  3.974694
H    -0.987180  0.823103  5.453882
H    -2.241664  2.347434  3.117857
H    -1.040625  3.166304  4.100510
H    -2.385396  3.007545  6.116848
H    -3.506479  1.863258  5.394815
H    -3.349443  4.771239  4.890473
H    -6.320132  4.795373  3.097306
H    -5.380339  5.691949  4.233627
H    -6.160275  2.448348  3.168935
H    -4.695111  1.647664  3.675554
N    -3.140422  -1.521044  5.196175
C    -4.343135  -1.970738  5.882437
H    -2.268761  -2.002604  5.391027
H    -4.560856  -3.016704  5.631980
H    -5.178749  -1.345405  5.556609
H    -4.219863  -1.882313  6.968999
