36
Energy: -21201.7087735 eV PBE+vdW (tier 2 basis)
C    -0.565177  0.135474  -0.003013
C    -0.562890  -0.279789  1.445525
O    0.414680  -0.892521  1.938511
H    -0.338171  -0.736301  -0.629082
H    0.245700  0.860114  -0.157218
H    -1.507380  0.584585  -0.335942
N    -1.658990  0.037839  2.169022
C    -1.862605  -0.053580  3.629123
C    -1.149315  1.084432  4.419755
O    -1.787685  1.731932  5.240566
H    -2.353109  0.601169  1.688384
H    -2.928110  0.164296  3.773261
C    -1.559770  -1.399211  4.318819
C    -2.327621  -2.646466  3.856196
C    -1.857674  -3.275932  2.533176
N    -0.403840  -3.427119  2.451988
C    0.310665  -4.491917  2.782035
N    1.639508  -4.492749  2.545352
N    -0.244216  -5.588726  3.331060
H    -1.819247  -1.224561  5.372871
H    -0.479666  -1.594517  4.310353
H    -3.402606  -2.429818  3.762405
H    -2.241363  -3.397586  4.656876
H    -2.146119  -2.650195  1.680140
H    -2.342039  -4.248733  2.366651
H    0.097550  -2.537931  2.243338
H    2.251323  -5.129703  3.038954
H    2.068915  -3.686191  2.108279
H    0.245442  -6.474044  3.323029
H    -1.227305  -5.607196  3.564727
N    0.172318  1.249327  4.152145
C    0.984579  2.248855  4.829254
H    0.620512  0.605082  3.504924
H    1.534043  2.856988  4.099818
H    1.702804  1.780317  5.516369
H    0.316102  2.894024  5.407419
