36
Energy: -21201.2026006 eV PBE+vdW (tier 2 basis)
C    -0.892955  -1.669435  1.424039
C    -0.524352  -0.499902  2.316186
O    0.443791  -0.521032  3.065774
H    -1.052161  -1.366088  0.380700
H    -0.076283  -2.394298  1.469488
H    -1.813312  -2.162021  1.770644
N    -1.315208  0.636644  2.237618
C    -2.655854  0.758194  1.686994
C    -2.810191  1.851175  0.594851
O    -3.932578  2.213572  0.249381
H    -1.018596  1.354270  2.898047
H    -2.886494  -0.185224  1.170487
C    -3.713558  0.983707  2.780488
C    -3.829263  -0.196154  3.746054
C    -4.859611  0.070837  4.840220
N    -4.885830  -1.043500  5.800863
C    -5.845659  -1.276844  6.696857
N    -6.836711  -0.392464  6.876562
N    -5.836041  -2.410892  7.419408
H    -4.667577  1.182197  2.273078
H    -3.458574  1.902390  3.335286
H    -2.849726  -0.392693  4.213946
H    -4.114959  -1.106421  3.195294
H    -5.861858  0.173452  4.397266
H    -4.614433  1.008081  5.367070
H    -4.058189  -1.631148  5.836003
H    -7.665944  -0.632866  7.404322
H    -6.799322  0.527247  6.457023
H    -6.410117  -2.512056  8.246492
H    -5.201224  -3.167599  7.200014
N    -1.649309  2.306894  0.068913
C    -1.597926  3.282120  -1.006933
H    -0.787615  1.919463  0.439430
H    -1.020663  4.165614  -0.705268
H    -2.624852  3.583912  -1.236131
H    -1.142345  2.849927  -1.907776
