36
Energy: -21201.9651702 eV PBE+vdW (tier 2 basis)
C    0.352134  0.980770  0.534005
C    -0.053310  0.619256  1.942078
O    0.589391  1.009382  2.930120
H    -0.322733  0.591958  -0.236715
H    1.363053  0.597625  0.344963
H    0.399082  2.073814  0.450116
N    -1.177511  -0.132118  2.074020
C    -1.724574  -0.623389  3.345575
C    -1.872080  0.489391  4.420859
O    -1.617455  0.262832  5.601140
H    -1.632053  -0.440856  1.221792
H    -2.762010  -0.908980  3.109031
C    -1.054718  -1.908203  3.874518
C    0.468109  -1.937018  4.071737
C    0.983124  -1.146325  5.279813
N    2.443261  -1.231356  5.420128
C    3.325511  -0.306293  5.028190
N    4.616742  -0.441553  5.408559
N    2.966680  0.731322  4.273606
H    -1.308920  -2.710703  3.167024
H    -1.558146  -2.157279  4.819228
H    0.980109  -1.593463  3.161070
H    0.759292  -2.991750  4.197563
H    0.543210  -1.528944  6.209419
H    0.702834  -0.091381  5.225356
H    2.827683  -2.090225  5.799459
H    5.339864  0.137326  5.003993
H    4.868394  -1.011195  6.205195
H    3.599030  1.515133  4.176808
H    2.055275  0.798076  3.783301
N    -2.399982  1.653695  3.971350
C    -2.643764  2.793091  4.840789
H    -2.535705  1.769136  2.974013
H    -1.848346  3.547019  4.751533
H    -2.673147  2.434243  5.874062
H    -3.605382  3.256653  4.591610
