36
Energy: -21201.8645691 eV PBE+vdW (tier 2 basis)
C    -1.629649  0.977786  -0.621559
C    -1.300050  1.083560  0.843427
O    -0.323337  1.754879  1.240751
H    -2.508445  0.356119  -0.824235
H    -1.797842  1.983884  -1.025456
H    -0.763573  0.556837  -1.147840
N    -2.093153  0.411907  1.699601
C    -1.853689  0.384741  3.132334
C    -2.527962  -0.902990  3.643354
O    -3.633892  -1.210574  3.202068
H    -2.904786  -0.116014  1.382099
H    -0.764951  0.364741  3.277552
C    -2.465743  1.627466  3.827628
C    -1.899776  1.915620  5.219368
C    -0.479765  2.493617  5.218535
N    -0.437317  3.898021  4.789274
C    0.265261  4.421390  3.770727
N    0.687066  3.681670  2.749784
N    0.547498  5.741968  3.809104
H    -3.553711  1.484536  3.881590
H    -2.303948  2.496468  3.172233
H    -1.899151  1.004020  5.834956
H    -2.565530  2.614506  5.748668
H    0.194573  1.926866  4.565120
H    -0.054426  2.447004  6.231911
H    -0.891663  4.566666  5.403325
H    1.348582  4.095207  2.102753
H    0.198200  2.828823  2.381560
H    0.830470  6.236471  2.973270
H    0.532891  6.260335  4.677672
N    -1.888331  -1.636328  4.592211
C    -0.502031  -1.535857  5.032040
H    -2.412895  -2.459308  4.876922
H    -0.316653  -0.637503  5.637593
H    0.201684  -1.551443  4.188408
H    -0.281716  -2.402793  5.662388
