36
Energy: -21201.8984063 eV PBE+vdW (tier 2 basis)
C    1.612544  -0.594158  1.357609
C    0.848437  0.495330  2.059159
O    1.186617  1.694496  1.955282
H    1.202577  -1.595925  1.527111
H    2.655735  -0.572249  1.697788
H    1.619371  -0.385922  0.280425
N    -0.220310  0.122877  2.802372
C    -0.956793  1.085008  3.624275
C    -1.525968  0.441085  4.903282
O    -1.309357  0.956014  5.994515
H    -0.394010  -0.868561  2.930230
H    -0.217631  1.798900  4.004455
C    -2.046112  1.853965  2.827679
C    -2.316279  3.262880  3.390299
C    -1.459507  4.359641  2.738562
N    -0.025709  4.070219  2.763827
C    0.900309  4.580040  3.571664
N    2.081092  3.939888  3.664394
N    0.701375  5.701358  4.286728
H    -2.977631  1.271223  2.826621
H    -1.735761  1.915674  1.773462
H    -2.171118  3.266300  4.481012
H    -3.366006  3.537612  3.217831
H    -1.660774  5.327219  3.215709
H    -1.742046  4.477486  1.682449
H    0.283910  3.203180  2.284466
H    2.905082  4.418198  4.003671
H    2.205020  3.086970  3.118417
H    1.346740  5.969723  5.017004
H    -0.157569  6.226670  4.208463
N    -2.257317  -0.698016  4.733797
C    -2.892800  -1.373723  5.859978
H    -2.573152  -0.947368  3.802313
H    -3.880414  -0.947516  6.086581
H    -2.256296  -1.253772  6.741865
H    -3.002686  -2.438875  5.630774
