36
Energy: -21201.4973876 eV PBE+vdW (tier 2 basis)
C    0.836134  -0.307811  0.526419
C    0.471411  -0.376670  1.992387
O    1.261106  -0.096685  2.878513
H    1.829850  0.140775  0.450847
H    0.123392  0.300895  -0.047126
H    0.868835  -1.307043  0.072152
N    -0.820444  -0.790137  2.353575
C    -2.019543  -0.815656  1.516641
C    -3.264097  -1.038436  2.382834
O    -4.374034  -0.604168  2.000827
H    -0.975355  -0.515262  3.322704
H    -2.179713  0.163625  1.031667
C    -1.983599  -1.923648  0.406206
C    -2.250287  -1.444321  -1.031568
C    -3.716765  -1.357615  -1.478667
N    -4.502995  -0.429778  -0.672380
C    -5.330479  0.516295  -1.088410
N    -5.820965  1.384996  -0.175006
N    -5.685663  0.666884  -2.377542
H    -2.680803  -2.734434  0.667598
H    -0.989367  -2.381579  0.445656
H    -1.766725  -2.148732  -1.723702
H    -1.764784  -0.471382  -1.199161
H    -4.184571  -2.354167  -1.432337
H    -3.734693  -1.041126  -2.530509
H    -4.435693  -0.522128  0.375014
H    -6.689098  1.873117  -0.355619
H    -5.574128  1.239407  0.799513
H    -6.151344  1.507148  -2.693188
H    -5.421737  -0.012441  -3.076857
N    -3.111180  -1.754407  3.505089
C    -4.201968  -2.110004  4.403442
H    -2.185098  -2.129108  3.695100
H    -3.959516  -1.806416  5.428693
H    -4.379554  -3.193010  4.383300
H    -5.105928  -1.591344  4.073813
