36
Energy: -21201.9225096 eV PBE+vdW (tier 2 basis)
C    0.083092  -0.229170  -0.079180
C    0.185547  0.045782  1.399545
O    1.267749  0.262250  1.960596
H    0.437113  0.656674  -0.622278
H    -0.932201  -0.468612  -0.415497
H    0.755680  -1.056099  -0.335898
N    -0.986279  0.043323  2.102525
C    -1.083719  0.458406  3.501783
C    -0.665967  -0.667916  4.488072
O    -1.407237  -1.062854  5.414728
H    -1.847258  -0.191131  1.620477
H    -0.324509  1.250408  3.626139
C    -2.489960  1.048078  3.717100
C    -2.927912  1.407346  5.147074
C    -1.862342  2.103168  6.004231
N    -2.228852  2.158504  7.422829
C    -2.046280  1.157900  8.299229
N    -2.338218  1.382687  9.598919
N    -1.575621  -0.026088  7.916512
H    -3.233624  0.335852  3.327706
H    -2.548664  1.938179  3.073638
H    -3.245824  0.492102  5.657476
H    -3.813058  2.057215  5.082266
H    -1.690488  3.137046  5.677980
H    -0.891759  1.593646  5.943541
H    -2.800690  2.936881  7.730897
H    -2.360817  0.622995  10.265499
H    -2.425947  2.322417  9.962034
H    -1.300313  -0.695260  8.624715
H    -1.535368  -0.358709  6.923476
N    0.567534  -1.139641  4.277032
C    1.161483  -2.209220  5.061536
H    1.100636  -0.700191  3.508663
H    1.811002  -2.811174  4.417327
H    0.369523  -2.842637  5.474132
H    1.765065  -1.811589  5.890454
