36
Energy: -21201.825233 eV PBE+vdW (tier 2 basis)
C    1.392046  -0.979607  0.741896
C    1.324416  -0.075558  1.944971
O    2.250256  -0.069115  2.785702
H    2.420420  -0.965154  0.364503
H    0.702930  -0.700662  -0.062122
H    1.178839  -2.014888  1.043357
N    0.248209  0.726562  2.117253
C    -1.083650  0.638333  1.544655
C    -1.795906  1.923427  2.020613
O    -1.447538  2.449262  3.085075
H    0.271902  1.383438  2.902484
H    -1.026370  0.616735  0.447222
C    -1.883979  -0.611457  2.011892
C    -2.274981  -0.690354  3.504549
C    -1.342073  -1.469322  4.448196
N    -0.031608  -0.874544  4.720748
C    0.210314  0.240945  5.426861
N    1.376479  0.862677  5.239740
N    -0.688864  0.705534  6.310307
H    -1.320210  -1.509067  1.714906
H    -2.806728  -0.640966  1.415520
H    -3.243098  -1.207967  3.568344
H    -2.450125  0.318306  3.906261
H    -1.135473  -2.468139  4.042197
H    -1.860442  -1.652104  5.402045
H    0.757800  -1.188796  4.161563
H    1.925923  0.622949  4.384523
H    1.687543  1.592416  5.867461
H    -1.537970  0.194480  6.506403
H    -0.631479  1.657236  6.647170
N    -2.823124  2.392931  1.280464
C    -3.264560  1.948436  -0.037350
H    -3.262930  3.220242  1.674168
H    -4.054250  2.624791  -0.377090
H    -3.683911  0.933691  -0.014307
H    -2.452252  1.986947  -0.775600
