36
Energy: -21201.7837436 eV PBE+vdW (tier 2 basis)
C    0.385112  -1.088174  0.820752
C    0.270478  -0.086350  1.940584
O    1.172091  0.071178  2.775726
H    1.372509  -1.553627  0.868756
H    0.258880  -0.606909  -0.159007
H    -0.380477  -1.872531  0.903385
N    -0.886443  0.643390  2.053525
C    -2.121597  0.515822  1.290313
C    -2.761383  1.923366  1.338508
O    -2.401086  2.714488  2.215726
H    -0.848174  1.534772  2.568268
H    -1.895157  0.239623  0.250751
C    -3.084123  -0.555241  1.878718
C    -3.641368  -0.275156  3.296870
C    -2.965997  -1.012706  4.460245
N    -1.569986  -0.604981  4.595258
C    -0.714934  -0.935088  5.566312
N    0.570238  -0.592289  5.438617
N    -1.145320  -1.607900  6.650701
H    -2.569528  -1.528362  1.854284
H    -3.927089  -0.658376  1.182894
H    -4.696327  -0.577346  3.321735
H    -3.633506  0.804500  3.508793
H    -3.028037  -2.104100  4.310409
H    -3.518858  -0.767897  5.381449
H    -1.186851  -0.086672  3.797570
H    1.235815  -0.774200  6.177506
H    0.915154  -0.230689  4.531468
H    -0.511884  -1.841229  7.403206
H    -2.132954  -1.739858  6.819605
N    -3.725441  2.229240  0.441746
C    -4.237343  1.441282  -0.670368
H    -4.121621  3.155290  0.582790
H    -4.534128  2.118993  -1.478136
H    -5.113247  0.840088  -0.385856
H    -3.465445  0.774395  -1.070161
