36
Energy: -21201.926447 eV PBE+vdW (tier 2 basis)
C    -0.463761  0.324652  -0.326793
C    0.124449  0.366945  1.062321
O    1.348399  0.359152  1.254640
H    -0.204075  -0.639980  -0.782696
H    0.006412  1.105632  -0.935668
H    -1.552405  0.446485  -0.355988
N    -0.771049  0.433046  2.091018
C    -0.515393  0.282767  3.529781
C    0.409504  1.314179  4.204417
O    0.335990  1.424329  5.453147
H    -1.750796  0.468374  1.834127
H    -1.486734  0.496586  3.996320
C    -0.154002  -1.173760  3.952579
C    1.337735  -1.590144  3.910189
C    1.920617  -1.929252  5.289295
N    1.808613  -0.778345  6.189355
C    2.763367  -0.225335  6.930137
N    2.636633  1.073388  7.261043
N    3.845684  -0.918973  7.327800
H    -0.747715  -1.836998  3.311446
H    -0.557834  -1.322092  4.965293
H    1.947355  -0.811863  3.432922
H    1.456751  -2.481763  3.281184
H    2.979386  -2.203971  5.184944
H    1.393171  -2.789419  5.730271
H    1.010708  -0.141773  6.021054
H    3.072630  1.444607  8.095249
H    1.864704  1.590502  6.829007
H    4.633404  -0.452376  7.756767
H    3.863483  -1.928489  7.279386
N    1.250556  2.022088  3.450608
C    2.145322  3.026700  4.003551
H    1.412899  1.662781  2.497508
H    1.612299  3.633743  4.743645
H    2.490938  3.674480  3.192319
H    3.022756  2.571095  4.486822
