36
Energy: -21201.5015919 eV PBE+vdW (tier 2 basis)
C    0.225722  2.228759  2.373935
C    0.138620  0.992511  3.243768
O    0.454475  0.979587  4.425108
H    0.690703  3.023682  2.961939
H    -0.769420  2.566415  2.049657
H    0.824695  2.051009  1.469948
N    -0.319306  -0.171441  2.644064
C    -0.917861  -0.312780  1.334039
C    -2.287307  0.372655  1.147975
O    -2.567499  0.861069  0.030679
H    -0.348323  -0.961232  3.283512
H    -0.283369  0.199840  0.594667
C    -0.957671  -1.808189  0.940896
C    -1.210783  -2.083333  -0.551015
C    -2.693720  -2.173632  -0.949494
N    -2.895311  -2.137072  -2.400563
C    -2.975106  -1.014795  -3.134933
N    -3.150856  -1.131823  -4.469286
N    -2.876046  0.187761  -2.577842
H    -1.688265  -2.348687  1.564928
H    0.029091  -2.213236  1.204701
H    -0.722243  -3.029038  -0.825652
H    -0.719268  -1.302133  -1.149629
H    -3.287761  -1.364223  -0.510180
H    -3.133387  -3.113166  -0.590622
H    -2.773863  -3.005816  -2.909248
H    -3.173353  -0.312562  -5.061466
H    -3.463819  -2.001494  -4.879819
H    -3.097911  1.007916  -3.128535
H    -2.665633  0.354696  -1.568564
N    -3.179913  0.453317  2.153036
C    -3.141516  -0.064662  3.521388
H    -4.013105  0.972727  1.887037
H    -4.158979  -0.010819  3.921602
H    -2.479329  0.519935  4.171284
H    -2.832723  -1.115582  3.545780
