36
Energy: -21201.4839352 eV PBE+vdW (tier 2 basis)
C    -0.749317  -0.608494  -1.384566
C    -0.196996  -0.016275  -0.103351
O    0.968018  0.332248  0.018883
H    -1.175428  -1.609334  -1.230082
H    -1.534008  0.025811  -1.821307
H    0.074068  -0.682017  -2.099255
N    -1.073072  0.143290  0.959505
C    -2.459332  -0.285315  1.061898
C    -3.265899  0.777771  1.837001
O    -3.822731  0.527713  2.925215
H    -0.620620  0.522049  1.788168
H    -2.873177  -0.307436  0.042162
C    -2.635283  -1.691880  1.663893
C    -1.903796  -1.895420  2.994577
C    -2.307480  -3.158506  3.754624
N    -3.757650  -3.377241  3.967921
C    -4.608062  -2.625975  4.691042
N    -4.458157  -1.307739  4.801340
N    -5.639399  -3.243156  5.304954
H    -2.270758  -2.423775  0.927925
H    -3.713158  -1.880325  1.777814
H    -2.029093  -1.020720  3.645136
H    -0.821311  -1.978947  2.818733
H    -1.801445  -3.177725  4.731208
H    -1.978325  -4.047240  3.201628
H    -4.088194  -4.311984  3.757070
H    -5.032592  -0.815510  5.476082
H    -4.057949  -0.717240  4.034559
H    -6.450356  -2.721597  5.612589
H    -5.611749  -4.232593  5.515087
N    -3.350904  2.011429  1.303104
C    -2.813353  2.501798  0.038902
H    -3.861383  2.670745  1.884678
H    -3.001000  1.789048  -0.773440
H    -1.734932  2.696169  0.098002
H    -3.329002  3.433723  -0.212123
