36
Energy: -21201.2508006 eV PBE+vdW (tier 2 basis)
C    -2.900109  -4.063214  -1.234367
C    -1.915046  -2.969806  -0.870324
O    -0.886442  -2.768228  -1.499835
H    -3.923558  -3.681445  -1.350643
H    -2.921880  -4.853383  -0.469704
H    -2.572426  -4.505555  -2.178402
N    -2.229481  -2.159325  0.213432
C    -3.256449  -2.355111  1.218558
C    -4.292285  -1.201503  1.329320
O    -5.039636  -1.146692  2.307240
H    -1.487666  -1.492683  0.422550
H    -3.852948  -3.228092  0.914122
C    -2.671273  -2.635262  2.612715
C    -2.037778  -4.020900  2.735173
C    -1.436789  -4.299948  4.113057
N    -2.473766  -4.203971  5.151942
C    -2.388649  -4.684018  6.391490
N    -3.465049  -4.664898  7.197680
N    -1.239780  -5.207704  6.843968
H    -3.515564  -2.491330  3.306855
H    -1.932102  -1.853956  2.857071
H    -1.226962  -4.134233  2.000608
H    -2.780802  -4.800425  2.502695
H    -0.631267  -3.577683  4.327847
H    -1.012465  -5.314229  4.137319
H    -3.282184  -3.631260  4.922587
H    -3.375306  -4.797077  8.196836
H    -4.378409  -4.410491  6.843571
H    -1.208718  -5.742936  7.702061
H    -0.378671  -5.107232  6.323125
N    -4.314039  -0.344571  0.286034
C    -5.258663  0.754518  0.178000
H    -3.642237  -0.505566  -0.457992
H    -5.911262  0.625106  -0.695420
H    -4.731646  1.713146  0.089056
H    -5.871794  0.763013  1.084543
