36
Energy: -21201.7351308 eV PBE+vdW (tier 2 basis)
C    0.598518  0.936327  1.175592
C    0.242110  0.639341  2.617711
O    1.011108  0.817426  3.547630
H    1.576641  1.423436  1.165183
H    -0.136660  1.591390  0.687797
H    0.668177  0.010036  0.586288
N    -1.041597  0.156040  2.870155
C    -2.052537  -0.237747  1.909414
C    -3.077576  0.872937  1.577836
O    -3.977696  0.664991  0.731635
H    -1.177745  -0.108391  3.843569
H    -1.544331  -0.422214  0.950506
C    -2.796125  -1.533654  2.346834
C    -2.571380  -2.766990  1.457810
C    -2.927461  -2.568762  -0.027742
N    -4.175776  -1.836032  -0.223255
C    -5.395045  -2.334267  -0.360738
N    -6.452161  -1.510980  -0.186876
N    -5.622606  -3.627801  -0.652859
H    -3.872573  -1.327417  2.415382
H    -2.476857  -1.788680  3.365879
H    -3.170153  -3.592774  1.869372
H    -1.520943  -3.091154  1.507918
H    -2.946631  -3.534963  -0.549144
H    -2.151459  -1.982009  -0.538715
H    -4.115412  -0.818271  0.056352
H    -6.276991  -0.535849  0.031034
H    -7.354579  -1.736642  -0.585096
H    -6.560773  -4.003146  -0.676655
H    -4.862890  -4.252892  -0.881473
N    -2.924186  2.031398  2.221501
C    -3.763781  3.202868  2.025375
H    -2.152997  2.068811  2.885251
H    -3.142298  4.077313  1.798433
H    -4.354853  3.411307  2.926525
H    -4.439503  3.010999  1.187134
