36
Energy: -21201.0984714 eV PBE+vdW (tier 2 basis)
C    -0.944261  0.065165  -0.032079
C    -0.624986  -0.451304  1.356368
O    0.457367  -0.949705  1.629702
H    -2.010053  0.069654  -0.289703
H    -0.397619  -0.552193  -0.751990
H    -0.561016  1.090445  -0.131716
N    -1.597136  -0.365805  2.343906
C    -2.937412  0.194556  2.303703
C    -3.989237  -0.513025  1.398733
O    -5.043974  0.093298  1.115676
H    -1.268935  -0.747821  3.225729
H    -3.344761  0.008026  3.313554
C    -2.927778  1.726519  2.068517
C    -2.575578  2.557727  3.309961
C    -3.683180  2.697878  4.366753
N    -4.887118  3.378863  3.856376
C    -5.811804  2.789245  3.082061
N    -6.119941  1.485574  3.211612
N    -6.482564  3.504400  2.167639
H    -3.890962  2.029270  1.641247
H    -2.187779  1.946368  1.290517
H    -2.278038  3.567255  2.988520
H    -1.689271  2.136526  3.810630
H    -3.324949  3.288505  5.218162
H    -3.973417  1.725289  4.786173
H    -4.861356  4.394494  3.849798
H    -6.030348  0.909164  2.348123
H    -5.757375  1.023645  4.038194
H    -7.327608  3.124297  1.757641
H    -6.148222  4.399429  1.833658
N    -3.830102  -1.782468  0.973424
C    -2.811244  -2.805000  1.217985
H    -4.630802  -2.079309  0.420127
H    -2.527713  -2.854076  2.273045
H    -1.908779  -2.650458  0.614537
H    -3.247690  -3.769137  0.937885
