36
Energy: -21201.139979 eV PBE+vdW (tier 2 basis)
C    0.000129  -0.083435  -0.406665
C    0.130041  0.031733  1.100566
O    1.213563  0.037628  1.667804
H    1.003237  -0.231708  -0.814151
H    -0.636880  -0.923655  -0.713519
H    -0.421186  0.832045  -0.845172
N    -1.033916  0.143562  1.842383
C    -2.416293  0.138159  1.396670
C    -3.207303  1.274259  2.106321
O    -4.081345  1.003287  2.935037
H    -0.859601  0.235889  2.841334
H    -2.424234  0.319531  0.312530
C    -3.140003  -1.179998  1.710356
C    -2.538576  -2.455936  1.133623
C    -3.182293  -3.711658  1.730438
N    -4.607491  -3.898277  1.393233
C    -5.669721  -3.593099  2.148344
N    -6.852271  -4.180421  1.884278
N    -5.580353  -2.731356  3.169245
H    -4.182435  -1.058705  1.378490
H    -3.154219  -1.251124  2.811798
H    -1.464282  -2.510542  1.366028
H    -2.625670  -2.479719  0.036175
H    -3.099269  -3.706000  2.826238
H    -2.666808  -4.613818  1.376780
H    -4.807265  -4.366550  0.515260
H    -7.719284  -3.790001  2.231081
H    -6.906833  -5.033515  1.342522
H    -6.337067  -2.650258  3.837104
H    -4.871547  -2.001434  3.177652
N    -2.880400  2.552487  1.796394
C    -1.879216  3.034952  0.855196
H    -3.394846  3.242135  2.336758
H    -1.976858  2.540951  -0.120578
H    -0.854927  2.893190  1.225778
H    -2.045610  4.104761  0.695960
