36
Energy: -21201.6385895 eV PBE+vdW (tier 2 basis)
C    -0.808847  1.646983  0.886901
C    -0.326376  0.265679  1.280994
O    0.849926  -0.056767  1.282335
H    -1.448547  2.101137  1.656169
H    -1.386513  1.609199  -0.048552
H    0.068025  2.279145  0.727294
N    -1.297416  -0.655051  1.671471
C    -2.739159  -0.512386  1.571439
C    -3.364831  0.262555  2.749532
O    -4.507162  0.761173  2.650067
H    -0.919079  -1.589774  1.810570
H    -2.993075  0.068030  0.672293
C    -3.363790  -1.925380  1.456873
C    -4.889970  -2.007399  1.333304
C    -5.481955  -1.826129  -0.067729
N    -5.093498  -0.627327  -0.847801
C    -5.633252  0.602148  -0.721169
N    -5.764750  1.363111  -1.827415
N    -6.009655  1.051013  0.472198
H    -3.058366  -2.491510  2.350449
H    -2.886277  -2.423465  0.598181
H    -5.371345  -1.324617  2.043768
H    -5.204444  -3.015355  1.642491
H    -6.578993  -1.847248  0.002623
H    -5.183532  -2.671587  -0.700731
H    -4.634487  -0.809834  -1.733045
H    -5.815812  0.947788  -2.749176
H    -5.924691  2.360169  -1.756162
H    -5.446368  0.811900  1.341540
H    -6.549722  1.908693  0.512103
N    -2.629976  0.334062  3.864094
C    -3.054880  0.993176  5.089402
H    -1.694853  -0.063152  3.805154
H    -3.036116  0.286310  5.928029
H    -4.074983  1.361566  4.949792
H    -2.392977  1.837202  5.321418
