36
Energy: -21201.2998735 eV PBE+vdW (tier 2 basis)
C    1.733340  1.117482  1.407931
C    0.841185  0.717241  2.563371
O    1.233342  0.674762  3.726691
H    2.655178  0.525755  1.448148
H    2.020317  2.169329  1.537294
H    1.269492  0.996707  0.421571
N    -0.457618  0.406626  2.234046
C    -1.465308  0.071596  3.233021
C    -1.692146  1.189264  4.302635
O    -1.697678  0.909880  5.501974
H    -0.741154  0.471580  1.264641
H    -2.411573  -0.057204  2.683833
C    -1.139133  -1.207263  4.013553
C    -0.829806  -2.472702  3.226744
C    -0.224401  -3.541460  4.143865
N    -1.124325  -4.027227  5.209225
C    -1.166412  -3.631908  6.488780
N    -0.641893  -2.467820  6.886073
N    -1.740220  -4.441544  7.400963
H    -1.982525  -1.374015  4.696774
H    -0.253307  -0.939329  4.610941
H    -0.084475  -2.270267  2.442787
H    -1.723036  -2.869073  2.718909
H    0.682865  -3.154765  4.628389
H    0.069961  -4.429025  3.569101
H    -1.748869  -4.787757  4.962052
H    -0.525806  -2.273062  7.872892
H    -0.567337  -1.678603  6.244886
H    -2.046440  -4.083833  8.296665
H    -1.868013  -5.429036  7.221456
N    -1.922716  2.454125  3.866837
C    -2.058239  2.962444  2.511347
H    -2.028724  3.117596  4.628712
H    -2.625907  3.898444  2.549098
H    -2.624378  2.268135  1.876993
H    -1.087446  3.167122  2.037608
