36
Energy: -21201.7692181 eV PBE+vdW (tier 2 basis)
C    0.633278  -3.324750  1.889267
C    0.609154  -2.139406  2.823237
O    1.406570  -2.042773  3.767642
H    -0.134835  -3.293662  1.108336
H    1.622143  -3.376973  1.415987
H    0.512051  -4.242526  2.477684
N    -0.323526  -1.185940  2.558929
C    -0.486427  0.108913  3.238447
C    0.852475  0.661118  3.782681
O    1.033108  0.876122  4.988485
H    -0.926796  -1.344556  1.759034
H    -0.763438  0.802290  2.426814
C    -1.700685  0.162238  4.198615
C    -1.696441  -0.328858  5.659857
C    -1.179443  -1.740082  5.996705
N    0.267433  -1.762339  6.227983
C    0.864409  -1.286044  7.321770
N    2.019834  -0.621400  7.178409
N    0.334898  -1.479443  8.545690
H    -2.511060  -0.353901  3.659443
H    -2.008922  1.217511  4.238048
H    -1.151139  0.389741  6.284568
H    -2.747022  -0.280801  5.983785
H    -1.387409  -2.461838  5.196247
H    -1.702029  -2.116792  6.885143
H    0.837275  -1.742145  5.361608
H    2.615063  -0.426842  7.973317
H    2.109572  -0.049899  6.331772
H    -0.349922  -2.206404  8.703732
H    0.675233  -0.968790  9.348935
N    1.791335  0.996926  2.866183
C    1.795311  0.799773  1.425198
H    2.645706  1.351435  3.287308
H    0.809461  1.008540  0.992580
H    2.097592  -0.219952  1.145235
H    2.504166  1.505240  0.979562
