36
Energy: -21201.224322 eV PBE+vdW (tier 2 basis)
C    0.799487  1.027030  2.132759
C    0.028906  -0.256765  1.903361
O    0.569441  -1.340079  1.732745
H    1.859226  0.773410  2.214147
H    0.478794  1.546315  3.046427
H    0.670702  1.722376  1.290520
N    -1.357395  -0.171244  1.907929
C    -2.185349  1.016412  2.019142
C    -2.629423  1.361084  3.466740
O    -3.310180  2.368870  3.683989
H    -1.808373  -1.058543  1.695565
H    -1.595700  1.883643  1.685848
C    -3.413625  0.883332  1.089105
C    -4.143168  2.206984  0.843247
C    -5.434582  2.019710  0.052672
N    -6.143463  3.306292  -0.028158
C    -7.140469  3.602584  -0.860508
N    -7.601549  4.863511  -0.944082
N    -7.684474  2.653310  -1.635940
H    -4.110502  0.147360  1.524233
H    -3.059916  0.464778  0.134415
H    -3.482131  2.900473  0.300225
H    -4.363332  2.663903  1.820618
H    -6.077879  1.274763  0.550510
H    -5.224556  1.670734  -0.970561
H    -5.893927  3.995750  0.675389
H    -8.492717  5.069065  -1.376933
H    -7.120088  5.627780  -0.488119
H    -8.300798  2.890577  -2.402462
H    -7.460847  1.676546  -1.498614
N    -2.216746  0.498851  4.420729
C    -2.510440  0.672498  5.832588
H    -1.646985  -0.284958  4.117293
H    -3.094607  -0.173496  6.218024
H    -3.091886  1.592846  5.946324
H    -1.583718  0.757357  6.414844
