36
Energy: -21201.7083258 eV PBE+vdW (tier 2 basis)
C    0.926611  -3.668730  1.968231
C    0.215713  -2.563913  2.715934
O    0.648199  -2.061378  3.749248
H    0.931755  -4.569757  2.595199
H    1.972000  -3.376369  1.815083
H    0.473551  -3.914800  1.000632
N    -0.965101  -2.124384  2.164780
C    -1.800128  -1.137164  2.843732
C    -0.953444  0.088764  3.277597
O    -0.996046  0.558709  4.432026
H    -1.334502  -2.584937  1.341440
H    -2.509849  -0.767218  2.083464
C    -2.597035  -1.776249  4.006969
C    -4.014904  -1.250540  4.286692
C    -4.131688  0.194238  4.798783
N    -3.180761  0.482591  5.868829
C    -3.340576  0.298666  7.167736
N    -2.249330  0.262083  7.964125
N    -4.553445  0.139441  7.731751
H    -2.701471  -2.839552  3.754934
H    -1.978083  -1.745572  4.913358
H    -4.637926  -1.333923  3.382034
H    -4.469748  -1.923239  5.029648
H    -5.162652  0.410967  5.110699
H    -3.906000  0.914411  4.000569
H    -2.205013  0.550942  5.475252
H    -2.324200  0.466193  8.952374
H    -1.333010  0.369086  7.544514
H    -4.649904  -0.114494  8.705058
H    -5.397568  0.240832  7.186748
N    -0.214978  0.719906  2.342601
C    -0.012754  0.413146  0.934708
H    0.328149  1.486815  2.730140
H    -0.941909  0.072164  0.464547
H    0.297263  1.332856  0.426974
H    0.762997  -0.349890  0.782787
