36
Energy: -21201.448948 eV PBE+vdW (tier 2 basis)
C    -0.683420  -0.514622  1.830025
C    -0.686072  0.930431  2.252539
O    0.366424  1.498046  2.609675
H    0.354748  -0.846955  1.751923
H    -1.189847  -1.119825  2.594790
H    -1.207338  -0.696094  0.884627
N    -1.853659  1.638843  2.325400
C    -3.054586  1.577201  1.474440
C    -3.535935  0.137280  1.175698
O    -3.459540  -0.334971  0.042699
H    -1.683153  2.562971  2.721854
H    -3.852949  2.057090  2.061838
C    -2.884579  2.396693  0.175784
C    -1.593195  2.146363  -0.627085
C    -0.457926  3.118291  -0.276067
N    0.765459  2.829490  -1.033138
C    1.985494  2.549714  -0.551285
N    2.202788  2.243515  0.725515
N    3.027923  2.581208  -1.411245
H    -2.955939  3.465086  0.435583
H    -3.752156  2.177275  -0.458070
H    -1.253967  1.109640  -0.508174
H    -1.825325  2.254636  -1.696916
H    -0.206505  3.093148  0.789266
H    -0.761490  4.151629  -0.505285
H    0.681602  2.847043  -2.044738
H    1.462633  1.965567  1.404747
H    3.155213  2.224905  1.068309
H    3.917866  2.169212  -1.165132
H    2.964841  3.061481  -2.298790
N    -4.054256  -0.559448  2.220734
C    -4.312421  -0.093948  3.577842
H    -4.405271  -1.475974  1.956498
H    -5.137447  0.633182  3.618915
H    -3.416390  0.354210  4.024353
H    -4.595566  -0.956058  4.189488
