36
Energy: -21201.6535493 eV PBE+vdW (tier 2 basis)
C    0.158520  -0.270465  2.846920
C    -0.564425  0.228679  4.073103
O    -0.399734  -0.291123  5.185997
H    -0.445275  -1.037247  2.339603
H    1.089720  -0.746850  3.167319
H    0.378068  0.524902  2.124973
N    -1.409852  1.297782  3.930701
C    -2.197348  1.627193  2.753727
C    -3.002239  2.892996  3.079708
O    -3.486415  3.075608  4.213318
H    -1.831195  1.614380  4.801232
H    -1.518140  1.839062  1.918571
C    -3.184097  0.485156  2.296136
C    -3.505324  -0.623891  3.312038
C    -4.447630  -0.318551  4.485288
N    -4.045357  0.702552  5.457612
C    -3.457543  0.488396  6.637192
N    -3.622079  1.404081  7.610074
N    -2.726840  -0.622844  6.862264
H    -2.735137  -0.000872  1.419822
H    -4.118660  0.941970  1.935628
H    -2.583259  -1.081719  3.692581
H    -4.006627  -1.425917  2.748731
H    -4.623237  -1.247974  5.041739
H    -5.420379  0.014296  4.094610
H    -4.117165  1.687835  5.147771
H    -4.340495  2.114003  7.531984
H    -2.953491  1.487074  8.365908
H    -2.459363  -0.815148  7.822560
H    -1.978924  -0.810130  6.173861
N    -3.211604  3.772900  2.083750
C    -2.696500  3.734095  0.717815
H    -3.790755  4.564696  2.351088
H    -3.100134  4.596542  0.179526
H    -3.016605  2.828881  0.185682
H    -1.600841  3.804957  0.692735
