36
Energy: -21201.7682012 eV PBE+vdW (tier 2 basis)
C    0.277196  -1.035714  1.904536
C    0.038232  0.302208  2.554406
O    0.698387  0.666323  3.548313
H    -0.334024  -1.806815  2.395626
H    0.041495  -1.040322  0.834333
H    1.326458  -1.308439  2.054164
N    -0.906335  1.122581  2.030770
C    -2.120621  0.760241  1.320235
C    -2.822906  2.105644  1.028500
O    -2.688374  3.054761  1.805906
H    -0.975170  2.056891  2.444921
H    -1.872792  0.266695  0.368577
C    -3.071265  -0.183795  2.141263
C    -2.862169  -0.207715  3.663941
C    -3.072070  1.127352  4.391376
N    -2.690214  1.064407  5.805514
C    -1.573618  1.567154  6.358644
N    -1.566852  1.756764  7.697233
N    -0.502380  1.898757  5.640252
H    -2.936127  -1.210822  1.776514
H    -4.112853  0.082021  1.906707
H    -1.856760  -0.580042  3.903309
H    -3.555773  -0.954285  4.080226
H    -4.128752  1.427515  4.351426
H    -2.512765  1.948058  3.929754
H    -3.343497  0.624968  6.445276
H    -0.697346  1.883032  8.198139
H    -2.427554  1.846412  8.221127
H    0.214908  2.448273  6.100411
H    -0.177810  1.428530  4.752378
N    -3.598484  2.127406  -0.075602
C    -4.387781  3.284255  -0.476435
H    -3.598200  1.312750  -0.679292
H    -4.042040  3.673382  -1.442474
H    -4.262532  4.059244  0.285068
H    -5.449795  3.019720  -0.555460
