36
Energy: -21200.8255872 eV PBE+vdW (tier 2 basis)
C    -0.785149  -0.699395  -0.736594
C    -0.014242  0.082710  0.305680
O    1.150662  0.418643  0.132322
H    -1.861126  -0.488903  -0.766226
H    -0.342652  -0.495604  -1.715702
H    -0.666557  -1.770149  -0.518465
N    -0.642544  0.404339  1.497478
C    -2.003517  0.145610  1.937763
C    -2.351319  -1.373145  1.858836
O    -1.503931  -2.199437  2.165339
H    0.018740  0.733188  2.193616
H    -1.997109  0.339931  3.022431
C    -3.019622  1.133372  1.308734
C    -2.554925  2.586595  1.447918
C    -3.467485  3.571409  0.721989
N    -2.898827  4.927069  0.802089
C    -3.252655  5.968646  0.048130
N    -2.515526  7.092383  0.058385
N    -4.339846  5.901400  -0.733451
H    -3.998332  1.014806  1.800428
H    -3.157333  0.901623  0.240569
H    -1.538035  2.668764  1.036643
H    -2.498581  2.857367  2.515577
H    -4.477745  3.565952  1.163893
H    -3.550191  3.292899  -0.340069
H    -2.174951  5.077432  1.498116
H    -1.591145  7.110824  0.469928
H    -2.869562  7.958261  -0.327530
H    -5.004675  5.144760  -0.641150
H    -4.521751  6.600954  -1.441645
N    -3.621784  -1.695080  1.486085
C    -4.089889  -3.072261  1.432184
H    -4.264199  -0.961683  1.217654
H    -4.982992  -3.205125  2.056139
H    -3.286705  -3.710664  1.812655
H    -4.324056  -3.371406  0.401540
