36
Energy: -21201.3442016 eV PBE+vdW (tier 2 basis)
C    0.598335  1.115883  1.157031
C    -0.098251  -0.057580  1.808059
O    0.511270  -0.966426  2.370227
H    -0.083817  1.910550  0.831924
H    1.331452  1.530871  1.857978
H    1.156324  0.751584  0.284205
N    -1.471249  -0.057466  1.724385
C    -2.266705  -1.180590  2.201209
C    -3.344015  -1.555189  1.160147
O    -4.540480  -1.400931  1.402806
H    -1.938462  0.694332  1.229187
H    -1.547941  -2.008943  2.308539
C    -2.921457  -0.925136  3.564524
C    -1.903995  -0.628264  4.666206
C    -2.539367  -0.454092  6.047969
N    -3.242603  -1.650101  6.547219
C    -2.670616  -2.680652  7.170997
N    -3.434096  -3.625813  7.749158
N    -1.336178  -2.778537  7.253771
H    -3.513727  -1.820468  3.807824
H    -3.645232  -0.101302  3.472523
H    -1.361441  0.302301  4.444202
H    -1.130855  -1.414380  4.682284
H    -3.289676  0.346936  6.027060
H    -1.794500  -0.163572  6.802571
H    -4.227546  -1.739195  6.321295
H    -3.050630  -4.527327  8.002034
H    -4.425536  -3.483619  7.892802
H    -0.898083  -3.424045  7.898036
H    -0.734221  -2.223848  6.658183
N    -2.904176  -2.056491  -0.026834
C    -1.538777  -2.289939  -0.473051
H    -3.655683  -2.236673  -0.686794
H    -0.895387  -2.598646  0.358968
H    -1.093581  -1.398798  -0.940600
H    -1.541743  -3.101386  -1.209076
