36
Energy: -21201.4610232 eV PBE+vdW (tier 2 basis)
C    -1.906783  1.627085  -0.294511
C    -0.595458  1.267676  0.372874
O    0.487344  1.465363  -0.159520
H    -1.680191  2.299647  -1.125851
H    -2.388008  0.727176  -0.703255
H    -2.623446  2.109379  0.380478
N    -0.628077  0.661540  1.621077
C    -1.753318  0.338311  2.493326
C    -2.813230  -0.515270  1.753521
O    -4.014590  -0.178722  1.684898
H    0.305492  0.481939  1.980005
H    -1.328073  -0.325632  3.265700
C    -2.341102  1.579638  3.207113
C    -2.858887  1.386078  4.642390
C    -4.067104  0.452472  4.813226
N    -5.153994  0.759846  3.887735
C    -6.231589  1.488733  4.121372
N    -7.190550  1.573593  3.174177
N    -6.424240  2.145502  5.282623
H    -3.124610  2.026292  2.579578
H    -1.529993  2.317258  3.250963
H    -3.114559  2.381296  5.037818
H    -2.051623  1.003742  5.286624
H    -4.432210  0.465700  5.849560
H    -3.784846  -0.590709  4.612196
H    -4.914369  0.470020  2.909709
H    -7.084320  1.057907  2.309305
H    -7.849718  2.341147  3.175705
H    -7.352407  2.439082  5.558596
H    -5.711544  2.141908  5.999086
N    -2.405214  -1.656880  1.167242
C    -1.075659  -2.256649  1.120347
H    -3.151515  -2.141631  0.675355
H    -0.436414  -1.783315  0.364345
H    -1.191679  -3.317111  0.874783
H    -0.577091  -2.193288  2.094937
