36
Energy: -21201.0603192 eV PBE+vdW (tier 2 basis)
C    0.267861  0.294302  0.454316
C    -0.141178  0.515317  1.886217
O    0.555354  1.229412  2.642660
H    0.967487  1.083445  0.164228
H    -0.562491  0.250791  -0.257954
H    0.779385  -0.676854  0.393172
N    -1.240428  -0.088824  2.406083
C    -2.486701  -0.505978  1.755538
C    -2.172381  -1.467272  0.569917
O    -1.301307  -2.310208  0.754259
H    -1.309735  0.061759  3.410894
H    -2.961262  -1.206088  2.462081
C    -3.443072  0.709064  1.649682
C    -2.869026  1.985596  0.998683
C    -2.306071  2.979943  2.028438
N    -1.666377  4.137152  1.395056
C    -0.421786  4.603810  1.600661
N    -0.143270  5.853323  1.164047
N    0.528323  3.887363  2.190983
H    -3.757300  0.949756  2.678448
H    -4.366877  0.403945  1.147655
H    -3.667805  2.489113  0.433115
H    -2.087732  1.742054  0.265963
H    -1.570076  2.507398  2.685858
H    -3.119820  3.346100  2.673644
H    -2.248108  4.694414  0.777574
H    -0.877042  6.532433  1.011525
H    0.811321  6.184252  1.118717
H    1.383817  4.352722  2.469362
H    0.500499  2.847356  2.339509
N    -2.856254  -1.434825  -0.612688
C    -3.986580  -0.657549  -1.105879
H    -2.562269  -2.211623  -1.199631
H    -4.176476  -0.973635  -2.136567
H    -3.775439  0.418361  -1.133099
H    -4.907588  -0.835336  -0.533034
