36
Energy: -21202.0865894 eV PBE+vdW (tier 2 basis)
C    -3.031271  1.978390  -0.829022
C    -2.355953  0.912799  0.001054
O    -1.987768  -0.166094  -0.447050
H    -2.295501  2.398305  -1.527965
H    -3.820313  1.513904  -1.431132
H    -3.459613  2.795190  -0.235861
N    -2.173441  1.213519  1.344382
C    -1.343760  0.338696  2.158413
C    -2.106020  -0.905267  2.656977
O    -1.478624  -1.930102  3.010719
H    -2.318152  2.169256  1.654222
H    -0.563147  -0.066882  1.496857
C    -0.702508  1.155531  3.302500
C    0.241495  0.431353  4.277678
C    1.488615  -0.223831  3.670031
N    1.121954  -1.451647  2.965529
C    1.885304  -2.123266  2.120206
N    1.321132  -3.064169  1.334609
N    3.203624  -1.873829  2.000252
H    -1.506858  1.615773  3.898148
H    -0.152037  1.983036  2.827073
H    -0.304348  -0.321226  4.865330
H    0.590912  1.178568  5.003158
H    2.195261  -0.454043  4.483991
H    1.990152  0.473481  2.976932
H    0.096294  -1.729239  3.019481
H    1.877232  -3.796093  0.913090
H    0.318555  -3.208629  1.384586
H    3.680006  -1.270147  2.655559
H    3.753040  -2.293027  1.262459
N    -3.436925  -0.815033  2.710731
C    -4.311541  -1.900802  3.126616
H    -3.842407  0.027491  2.312352
H    -3.720513  -2.632192  3.685040
H    -4.761854  -2.396460  2.255910
H    -5.109023  -1.509314  3.768148
