36
Energy: -21201.4556017 eV PBE+vdW (tier 2 basis)
C    -0.651086  0.819533  -0.393399
C    -0.517354  1.284508  1.027466
O    0.270207  2.200500  1.340682
H    0.000030  1.431366  -1.021988
H    -1.686970  0.886188  -0.752301
H    -0.361772  -0.236233  -0.483196
N    -1.248390  0.681390  2.012572
C    -2.582631  0.062023  1.932891
C    -2.662411  -1.095672  0.902379
O    -3.346880  -0.991627  -0.111058
H    -0.998103  1.035522  2.933093
H    -2.737036  -0.381036  2.928821
C    -3.703871  1.086838  1.677834
C    -3.589923  2.370597  2.524479
C    -2.928521  3.533877  1.767145
N    -2.636307  4.682792  2.627336
C    -1.431211  5.089347  3.055236
N    -1.377216  6.212390  3.809138
N    -0.308309  4.427932  2.788923
H    -4.658288  0.585551  1.883102
H    -3.734769  1.321502  0.604066
H    -3.033252  2.183850  3.456563
H    -4.594355  2.689168  2.838094
H    -3.590615  3.880248  0.960633
H    -1.994548  3.233812  1.283516
H    -3.435979  5.169204  3.019319
H    -0.496288  6.536797  4.184930
H    -2.142472  6.873775  3.811750
H    0.575748  4.873631  3.003131
H    -0.224113  3.518036  2.275659
N    -1.940314  -2.213491  1.183929
C    -1.178885  -2.520289  2.387602
H    -2.060396  -2.951005  0.495338
H    -0.718793  -3.504679  2.259840
H    -1.816685  -2.565788  3.283249
H    -0.374412  -1.793024  2.555802
