36
Energy: -21201.7801987 eV PBE+vdW (tier 2 basis)
C    0.548968  1.857706  3.052757
C    0.006206  0.462304  3.240098
O    0.671894  -0.437987  3.763189
H    0.716187  2.300391  4.043503
H    1.524358  1.800341  2.555948
H    -0.113896  2.518269  2.481002
N    -1.269612  0.239930  2.796023
C    -2.028922  -0.966843  3.128875
C    -1.665671  -2.176078  2.228964
O    -2.528738  -2.766421  1.540642
H    -1.783634  1.023894  2.412986
H    -1.708952  -1.260190  4.143091
C    -3.537912  -0.687488  3.192156
C    -4.234858  0.134499  2.090670
C    -4.363531  -0.456679  0.679864
N    -3.257246  -0.074924  -0.221478
C    -2.698609  -0.846164  -1.173760
N    -2.185002  -0.243933  -2.268410
N    -2.624539  -2.164962  -1.028331
H    -3.722840  -0.158993  4.138312
H    -4.043617  -1.658102  3.280160
H    -3.818252  1.155518  2.021862
H    -5.261112  0.298736  2.449191
H    -5.295516  -0.092827  0.221221
H    -4.412049  -1.547347  0.725280
H    -3.131959  0.924342  -0.353795
H    -2.512121  0.664428  -2.570908
H    -1.562266  -0.743383  -2.890071
H    -2.336256  -2.738930  -1.810702
H    -2.621862  -2.571504  -0.057744
N    -0.387353  -2.555161  2.302206
C    0.154882  -3.699599  1.589621
H    0.219463  -1.985133  2.915168
H    -0.641149  -4.430211  1.410551
H    0.940015  -4.161536  2.197249
H    0.592311  -3.404769  0.624296
