36
Energy: -21201.4598239 eV PBE+vdW (tier 2 basis)
C    -1.318141  0.347741  1.778013
C    -0.301028  -0.760648  1.951595
O    -0.051551  -1.558554  1.058884
H    -2.059144  0.012382  1.046554
H    -1.825107  0.662922  2.696833
H    -0.808068  1.224999  1.354625
N    0.397726  -0.852505  3.147251
C    0.240523  -0.126720  4.400772
C    -1.203894  -0.192580  4.952500
O    -1.833126  0.840554  5.263748
H    1.093801  -1.592039  3.119318
H    0.858237  -0.678049  5.130543
C    0.781070  1.313806  4.334389
C    0.864538  2.027301  5.700529
C    0.095082  3.356008  5.683886
N    -0.214159  3.885974  7.014363
C    -1.321179  3.590247  7.709799
N    -1.553975  4.244118  8.868258
N    -2.183345  2.672165  7.277505
H    0.152134  1.893395  3.644767
H    1.771411  1.254682  3.866909
H    1.911511  2.208681  5.979914
H    0.446560  1.388137  6.491338
H    -0.853437  3.228983  5.147410
H    0.660901  4.131705  5.151917
H    0.500599  4.423640  7.492136
H    -2.300852  3.956704  9.486096
H    -1.089294  5.117563  9.078111
H    -3.096428  2.606518  7.708988
H    -1.981409  2.010631  6.501355
N    -1.777357  -1.403408  5.091087
C    -1.229980  -2.730074  4.822415
H    -2.740586  -1.355924  5.412530
H    -0.201111  -2.816013  5.191814
H    -1.246891  -2.975259  3.752907
H    -1.838110  -3.462187  5.363313
