36
Energy: -21201.8963114 eV PBE+vdW (tier 2 basis)
C    0.242269  -0.518802  -2.295351
C    0.059788  -1.385541  -1.071188
O    0.801853  -2.316272  -0.781007
H    -0.084331  -1.085378  -3.178389
H    1.308603  -0.303912  -2.423497
H    -0.319773  0.422111  -2.258453
N    -1.014638  -1.063192  -0.256611
C    -1.417320  -1.954546  0.829806
C    -0.373239  -1.968531  1.975791
O    -0.317623  -2.902796  2.803830
H    -1.687687  -0.380250  -0.586317
H    -2.308633  -1.480709  1.274025
C    -1.792943  -3.383554  0.346602
C    -3.164565  -3.918453  0.789965
C    -3.365783  -4.075172  2.306465
N    -2.228399  -4.719875  2.956975
C    -2.021986  -6.016181  3.116316
N    -3.008066  -6.925858  2.999448
N    -0.774306  -6.448745  3.402930
H    -0.997606  -4.082573  0.631562
H    -1.787367  -3.370566  -0.749495
H    -3.309849  -4.897164  0.307962
H    -3.971248  -3.270376  0.412415
H    -4.303773  -4.605012  2.522826
H    -3.466407  -3.094770  2.792651
H    -1.393035  -4.072255  2.989841
H    -2.813121  -7.917190  3.019962
H    -3.964153  -6.638994  2.846287
H    -0.625996  -7.348121  3.841917
H    -0.029272  -5.767501  3.492222
N    0.403858  -0.886138  2.081843
C    1.436533  -0.739515  3.095587
H    0.355540  -0.215166  1.322115
H    1.095930  -1.197092  4.029632
H    1.627469  0.325448  3.261510
H    2.370275  -1.228361  2.783823
