36
Energy: -21201.0334466 eV PBE+vdW (tier 2 basis)
C    -1.879799  -1.295726  -1.160649
C    -1.119757  -0.842992  0.074039
O    0.087030  -1.018583  0.195957
H    -1.158796  -1.753384  -1.842604
H    -2.365425  -0.454681  -1.673247
H    -2.660914  -2.031311  -0.924897
N    -1.830381  -0.201094  1.068526
C    -3.272621  -0.056816  1.222674
C    -3.559730  1.384931  1.720876
O    -3.738834  1.607848  2.916794
H    -1.250228  0.090109  1.853612
H    -3.731244  -0.208277  0.236848
C    -3.867375  -1.050070  2.238954
C    -3.501102  -2.510373  1.972066
C    -3.916056  -3.402079  3.139556
N    -3.467924  -4.786093  2.914337
C    -3.406846  -5.741654  3.841944
N    -2.800152  -6.910795  3.571670
N    -3.943367  -5.543933  5.054389
H    -4.960116  -0.920506  2.252648
H    -3.517230  -0.742371  3.235641
H    -2.412530  -2.597281  1.832077
H    -3.983837  -2.870482  1.048310
H    -5.010933  -3.382486  3.267398
H    -3.451565  -3.033177  4.066843
H    -3.202154  -5.033950  1.966447
H    -2.916394  -7.715878  4.173330
H    -2.221333  -7.024504  2.749638
H    -3.746054  -6.169652  5.824645
H    -4.525581  -4.738454  5.243146
N    -3.565321  2.374355  0.788755
C    -3.265835  2.279514  -0.631754
H    -3.686211  3.300641  1.188085
H    -3.924795  1.561262  -1.139429
H    -2.218429  2.001807  -0.818374
H    -3.444450  3.258683  -1.086533
