36
Energy: -21201.9625002 eV PBE+vdW (tier 2 basis)
C    0.815276  -1.200406  1.629720
C    0.368290  0.034240  2.374068
O    1.108922  0.603384  3.189306
H    1.761645  -0.982617  1.120258
H    0.088016  -1.572189  0.899183
H    1.018829  -1.991687  2.362771
N    -0.884188  0.488339  2.079244
C    -1.661186  1.558069  2.726207
C    -1.082193  2.983945  2.693657
O    -1.886268  3.940338  2.779956
H    -1.389665  -0.029779  1.370104
H    -2.555893  1.650548  2.097011
C    -2.172413  1.185481  4.147869
C    -1.235048  1.452429  5.336755
C    -1.271866  2.876517  5.906790
N    -2.569480  3.226579  6.501907
C    -3.444000  4.152624  6.079075
N    -4.444546  4.506013  6.918988
N    -3.362365  4.709700  4.876105
H    -2.420565  0.116329  4.115866
H    -3.130774  1.703492  4.304217
H    -0.195198  1.223523  5.066296
H    -1.493080  0.755569  6.149470
H    -1.032796  3.636037  5.155421
H    -0.514996  2.970486  6.698394
H    -2.835794  2.712146  7.335244
H    -5.224535  5.058625  6.589524
H    -4.365001  4.363560  7.917030
H    -2.776270  4.338705  4.086647
H    -3.922299  5.529618  4.677580
N    0.238263  3.144620  2.603182
C    0.866196  4.456874  2.568075
H    0.813568  2.298571  2.744197
H    1.839589  4.370935  2.075152
H    1.019311  4.860709  3.580155
H    0.232751  5.153791  2.010304
