36
Energy: -21201.7874997 eV PBE+vdW (tier 2 basis)
C    2.494916  0.413721  2.064520
C    1.178901  1.134745  1.887606
O    1.019905  2.062259  1.104605
H    2.749939  -0.084037  1.119999
H    2.488270  -0.336550  2.864031
H    3.279913  1.152882  2.263134
N    0.122688  0.651551  2.654036
C    -1.129663  1.405040  2.681562
C    -2.091877  0.876285  3.739015
O    -2.944122  1.645208  4.234246
H    0.394754  0.185527  3.515456
H    -0.916543  2.450128  2.961287
C    -1.851313  1.408913  1.287812
C    -2.079274  2.804089  0.683314
C    -3.370461  3.526117  1.084090
N    -3.489676  3.699670  2.531791
C    -4.134068  4.662332  3.176833
N    -4.307573  4.531338  4.508348
N    -4.616375  5.753735  2.555652
H    -2.802708  0.857917  1.357635
H    -1.218804  0.834635  0.603307
H    -2.116429  2.705145  -0.410570
H    -1.204056  3.431832  0.899554
H    -4.249629  2.972615  0.713162
H    -3.370739  4.509151  0.591654
H    -3.217442  2.893969  3.142899
H    -4.587956  5.314831  5.081993
H    -3.915003  3.718432  4.972853
H    -5.179780  6.430918  3.051065
H    -4.544138  5.853591  1.553112
N    -2.019039  -0.426082  4.059388
C    -2.933916  -1.080622  4.986542
H    -1.382675  -1.004468  3.518615
H    -2.396310  -1.853083  5.546377
H    -3.776378  -1.542468  4.453623
H    -3.325470  -0.332817  5.681673
