36
Energy: -21201.1186361 eV PBE+vdW (tier 2 basis)
C    -0.533119  -1.274986  -0.065659
C    -0.296499  -0.671359  1.308664
O    0.830172  -0.440484  1.732580
H    0.443184  -1.443020  -0.527100
H    -1.113083  -0.597102  -0.707743
H    -1.073549  -2.230845  -0.018764
N    -1.403023  -0.373700  2.073809
C    -2.802029  -0.684554  1.825977
C    -3.620674  0.588180  2.137122
O    -3.678606  1.005130  3.292063
H    -1.194745  0.099950  2.951726
H    -2.909869  -0.971310  0.771633
C    -3.313255  -1.820739  2.740059
C    -2.454357  -3.084933  2.682175
C    -2.797037  -4.049324  3.814765
N    -1.873801  -5.196069  3.806401
C    -1.647577  -6.020452  4.829431
N    -0.627070  -6.894665  4.781199
N    -2.429910  -5.982780  5.917391
H    -4.358932  -2.044940  2.478673
H    -3.325309  -1.416071  3.764259
H    -1.394257  -2.801966  2.771300
H    -2.581453  -3.595136  1.712917
H    -3.835533  -4.406995  3.720942
H    -2.694126  -3.530909  4.780182
H    -1.374249  -5.375840  2.941016
H    -0.561398  -7.663769  5.435365
H    0.102439  -6.812332  4.084847
H    -2.159895  -6.448199  6.774348
H    -3.290650  -5.451339  5.924428
N    -4.221021  1.180070  1.074397
C    -4.969799  2.423306  1.182955
H    -4.072610  0.784024  0.153912
H    -4.441959  3.247882  0.685161
H    -5.072167  2.659520  2.246492
H    -5.966327  2.313576  0.737534
