36
Energy: -21201.4096104 eV PBE+vdW (tier 2 basis)
C    0.612506  1.027503  1.235841
C    0.093050  0.790858  2.621006
O    0.781435  1.045468  3.621017
H    1.275221  0.183071  0.997914
H    1.214668  1.942376  1.228504
H    -0.151794  1.041625  0.457274
N    -1.177351  0.282462  2.842642
C    -2.342819  0.071005  1.976413
C    -2.174690  -1.200314  1.099183
O    -1.095163  -1.459768  0.580959
H    -1.227361  -0.184764  3.746335
H    -3.165094  -0.094552  2.690237
C    -2.747546  1.267299  1.069852
C    -2.518625  2.718244  1.543828
C    -3.053446  3.155016  2.919872
N    -2.144902  2.750265  4.000622
C    -1.425206  3.548441  4.799878
N    -1.880963  4.768736  5.142313
N    -0.248790  3.108607  5.255933
H    -3.816682  1.128650  0.852087
H    -2.240964  1.166664  0.100303
H    -3.002527  3.359361  0.792638
H    -1.450370  2.976063  1.497725
H    -4.055032  2.741733  3.111812
H    -3.145227  4.248349  2.933165
H    -1.735066  1.821814  3.848787
H    -1.289304  5.421851  5.638521
H    -2.862796  4.996597  5.061164
H    0.203545  3.549949  6.046412
H    0.214215  2.303135  4.795156
N    -3.304796  -1.935249  0.940788
C    -3.363775  -3.121062  0.096899
H    -4.141655  -1.661607  1.442558
H    -4.123620  -3.003543  -0.686090
H    -3.595542  -4.013490  0.692240
H    -2.382058  -3.248383  -0.369043
