36
Energy: -21201.8256233 eV PBE+vdW (tier 2 basis)
C    -0.097169  1.407857  1.057490
C    -0.205266  -0.089615  1.179418
O    0.788344  -0.827382  1.021207
H    -0.862044  1.942889  1.631866
H    -0.186812  1.705248  0.002689
H    0.898388  1.711879  1.395743
N    -1.412622  -0.638569  1.466398
C    -2.755632  -0.117320  1.290761
C    -3.679746  -1.277049  1.731428
O    -3.323407  -2.451864  1.575478
H    -1.426868  -1.655081  1.573873
H    -2.923309  0.741569  1.959813
C    -3.119849  0.334609  -0.162597
C    -2.410028  -0.301788  -1.374489
C    -2.356945  -1.836035  -1.523612
N    -1.093456  -2.364091  -0.997185
C    -0.911021  -3.477032  -0.276350
N    -1.743773  -4.526153  -0.393879
N    0.142737  -3.524806  0.545470
H    -2.939458  1.416351  -0.232394
H    -4.207086  0.212819  -0.279470
H    -1.381580  0.084179  -1.454465
H    -2.920218  0.097750  -2.261647
H    -3.185398  -2.316953  -0.986634
H    -2.440549  -2.095996  -2.588730
H    -0.307054  -1.718208  -0.975410
H    -1.860327  -5.157390  0.389101
H    -2.503583  -4.491564  -1.060607
H    0.475907  -4.404655  0.917699
H    0.590650  -2.625932  0.818396
N    -4.871793  -0.906586  2.238397
C    -5.903435  -1.850201  2.647260
H    -5.050485  0.083428  2.367521
H    -6.167335  -1.695009  3.700488
H    -5.507452  -2.861885  2.522812
H    -6.804693  -1.734935  2.031328
