36
Energy: -21201.4914277 eV PBE+vdW (tier 2 basis)
C    1.027092  -0.571803  0.575753
C    0.665794  -0.870717  2.013420
O    1.430009  -1.431374  2.791088
H    0.251869  -0.024264  0.026153
H    1.959386  0.005219  0.556165
H    1.225887  -1.519809  0.059839
N    -0.605917  -0.487768  2.401837
C    -1.074191  -0.694599  3.759492
C    -2.518226  -1.250233  3.830585
O    -3.265274  -0.943048  4.761950
H    -1.170937  0.060438  1.761776
H    -0.403908  -1.472309  4.165528
C    -0.968760  0.539091  4.664615
C    0.447106  1.058730  4.897095
C    0.494601  2.211766  5.902909
N    0.169299  1.818624  7.287443
C    -0.996891  1.972356  7.920976
N    -2.124109  2.245077  7.247715
N    -1.037719  1.885176  9.263662
H    -1.429423  0.219580  5.610792
H    -1.602268  1.342959  4.246276
H    0.885068  1.428639  3.958224
H    1.107140  0.243852  5.230649
H    -0.191453  3.022276  5.619035
H    1.501401  2.647772  5.939680
H    0.918134  1.391366  7.823391
H    -2.963445  2.510441  7.747719
H    -2.235618  1.929147  6.288677
H    -0.194725  1.946348  9.820244
H    -1.905771  1.697119  9.748893
N    -2.857453  -2.095760  2.828985
C    -4.133851  -2.789077  2.771388
H    -2.148937  -2.308574  2.134895
H    -4.012135  -3.861738  2.975235
H    -4.595386  -2.664244  1.784073
H    -4.788213  -2.356762  3.534382
