36
Energy: -21201.4758697 eV PBE+vdW (tier 2 basis)
C    -0.141428  0.105986  0.178314
C    -0.480825  -0.086417  1.629548
O    0.218495  -0.833036  2.343289
H    -0.160953  -0.882519  -0.300148
H    0.890242  0.471275  0.099828
H    -0.812534  0.774819  -0.365887
N    -1.580770  0.524910  2.164250
C    -2.180365  1.808534  1.757905
C    -3.008852  1.741993  0.440335
O    -3.159426  2.747495  -0.243492
H    -1.722619  0.280243  3.140601
H    -2.931354  2.021928  2.536485
C    -1.177646  2.968762  1.724549
C    -0.606579  3.442197  3.068066
C    0.281050  2.477504  3.876142
N    -0.488505  1.755912  4.918971
C    -0.071165  0.649710  5.579268
N    0.591837  -0.312358  4.947944
N    -0.383815  0.528631  6.885442
H    -1.697642  3.810581  1.249044
H    -0.350119  2.719300  1.043492
H    -1.420391  3.812277  3.715384
H    0.006585  4.328719  2.855609
H    1.076120  3.045903  4.382100
H    0.774642  1.744823  3.229488
H    -1.116109  2.352885  5.451657
H    1.003583  -1.061070  5.493328
H    0.472563  -0.485490  3.907795
H    -0.321841  -0.366020  7.355429
H    -0.592399  1.338856  7.454978
N    -3.573141  0.536732  0.176616
C    -4.436590  0.306137  -0.971124
H    -3.362850  -0.234357  0.799927
H    -5.427114  -0.040461  -0.649625
H    -4.000154  -0.439056  -1.649369
H    -4.545497  1.255109  -1.505126
