36
Energy: -21201.8382208 eV PBE+vdW (tier 2 basis)
C    1.482463  -0.495315  0.740537
C    0.185488  -0.449052  1.511298
O    -0.102388  0.530144  2.240087
H    2.311729  -0.487626  1.460157
H    1.581149  -1.378280  0.100040
H    1.579488  0.409933  0.127401
N    -0.640524  -1.497132  1.339428
C    -1.849551  -1.822493  2.091632
C    -2.301896  -3.179706  1.501450
O    -1.894671  -3.521167  0.386464
H    -0.426677  -2.219349  0.644872
H    -1.570907  -1.943063  3.150823
C    -3.001279  -0.786733  2.057061
C    -3.634472  -0.413118  0.706756
C    -2.760524  0.363187  -0.289242
N    -2.002707  1.410960  0.403942
C    -1.314022  2.409479  -0.153456
N    -0.259466  2.895887  0.519749
N    -1.648838  2.915503  -1.352448
H    -2.665875  0.108926  2.597549
H    -3.806796  -1.193085  2.683477
H    -4.525157  0.190474  0.932172
H    -3.992918  -1.313982  0.188379
H    -3.414705  0.807558  -1.051943
H    -2.060913  -0.313072  -0.804319
H    -1.594699  1.117781  1.305006
H    0.131637  3.806387  0.317832
H    0.077715  2.365637  1.330449
H    -1.082073  3.624138  -1.798092
H    -2.527167  2.673787  -1.790519
N    -3.157583  -3.944067  2.217969
C    -3.671618  -3.748941  3.566437
H    -3.432682  -4.792818  1.730189
H    -4.645010  -3.236850  3.570965
H    -2.966944  -3.174984  4.178057
H    -3.797157  -4.727526  4.042723
