36
Energy: -21201.1687456 eV PBE+vdW (tier 2 basis)
C    -0.884923  -0.257630  3.210529
C    -1.651222  0.833445  3.930600
O    -1.233495  1.352086  4.955856
H    -1.508414  -0.946916  2.629849
H    -0.318908  -0.819387  3.959842
H    -0.157317  0.208009  2.530805
N    -2.873297  1.244626  3.407225
C    -3.474395  0.945211  2.111825
C    -3.943568  -0.531303  1.965858
O    -4.006684  -1.067597  0.856783
H    -3.244625  2.043092  3.915448
H    -4.407278  1.533162  2.095195
C    -2.624735  1.384986  0.898101
C    -3.462592  1.635846  -0.360659
C    -2.579637  1.877651  -1.580539
N    -3.414475  2.038711  -2.782425
C    -2.968485  2.069550  -4.037267
N    -3.831790  2.032385  -5.067831
N    -1.652177  2.131914  -4.284922
H    -1.875717  0.610178  0.682062
H    -2.082020  2.298424  1.182043
H    -4.122156  2.506219  -0.205423
H    -4.087945  0.749903  -0.541118
H    -1.913296  1.013676  -1.730201
H    -1.960927  2.779729  -1.438177
H    -4.415183  2.122113  -2.633906
H    -3.538274  2.259314  -6.008999
H    -4.812740  1.831516  -4.923738
H    -1.284274  1.982690  -5.215363
H    -0.987925  2.272213  -3.535176
N    -4.313014  -1.122873  3.123308
C    -4.814580  -2.484035  3.198352
H    -4.150809  -0.601309  3.979197
H    -4.113019  -3.134134  3.738633
H    -5.785921  -2.509863  3.708336
H    -4.932804  -2.858808  2.176996
