36
Energy: -21201.8768107 eV PBE+vdW (tier 2 basis)
C    -1.029739  0.609670  -0.284472
C    -0.545100  0.571414  1.139406
O    0.590623  1.005066  1.441627
H    -1.036340  1.652506  -0.626620
H    -2.030441  0.183584  -0.412391
H    -0.319913  0.065451  -0.919555
N    -1.386406  0.066558  2.058072
C    -1.108183  0.030373  3.481121
C    -2.180048  -0.904238  4.081924
O    -3.252127  -1.062849  3.502220
H    -2.320969  -0.268078  1.813603
H    -0.106895  -0.397019  3.639236
C    -1.202721  1.453180  4.102335
C    -0.326457  1.740068  5.324799
C    1.178559  1.872885  5.044321
N    1.934299  0.609925  5.140304
C    2.794991  0.119642  4.226043
N    3.782361  -0.696864  4.660477
N    2.663825  0.391653  2.935570
H    -2.255383  1.647685  4.351831
H    -0.937184  2.172854  3.315808
H    -0.496708  1.008941  6.131947
H    -0.654189  2.702121  5.743798
H    1.627061  2.569024  5.767843
H    1.350735  2.292839  4.046155
H    2.034098  0.228262  6.075804
H    4.322048  -1.244972  4.003045
H    4.137449  -0.630989  5.605774
H    3.417503  0.138045  2.307555
H    1.754538  0.686033  2.473410
N    -1.868883  -1.464304  5.276701
C    -2.789006  -2.320476  6.013637
H    -0.927081  -1.347315  5.629925
H    -3.764520  -2.265755  5.521660
H    -2.887197  -1.976599  7.050576
H    -2.449447  -3.364743  6.009620
