36
Energy: -21201.881436 eV PBE+vdW (tier 2 basis)
C    -2.195632  -3.800238  3.081289
C    -1.521655  -2.451421  3.186612
O    -0.492647  -2.167770  2.574088
H    -1.504359  -4.569884  3.447310
H    -3.135786  -3.874108  3.640253
H    -2.388524  -4.015631  2.023350
N    -2.132496  -1.537432  4.009710
C    -1.559365  -0.215786  4.260880
C    -1.299541  0.519732  2.927995
O    -0.176074  0.934978  2.593088
H    -2.952200  -1.817656  4.534781
H    -2.342887  0.361533  4.778965
C    -0.344946  -0.319552  5.207107
C    0.289551  0.989159  5.719207
C    1.554618  1.483449  4.998021
N    2.638457  0.495095  4.954870
C    2.911629  -0.338230  3.937013
N    3.958032  -1.190589  4.073200
N    2.179219  -0.346219  2.832209
H    0.404346  -0.970780  4.740159
H    -0.715281  -0.882393  6.074850
H    0.537424  0.855795  6.782655
H    -0.438233  1.815317  5.692167
H    1.950470  2.363756  5.521572
H    1.330329  1.793338  3.973569
H    3.172420  0.358892  5.805805
H    4.225916  -1.776966  3.293531
H    4.688145  -0.993265  4.745628
H    2.379239  -1.025801  2.108789
H    1.239558  0.119204  2.780005
N    -2.364557  0.767625  2.138074
C    -3.766451  0.431498  2.337938
H    -2.113255  1.226723  1.266469
H    -4.069610  0.591083  3.379935
H    -3.985720  -0.608339  2.059587
H    -4.372848  1.096248  1.714244
