36
Energy: -21201.9050974 eV PBE+vdW (tier 2 basis)
C    -0.043890  -1.503041  -0.940632
C    0.307480  -0.278813  -0.138504
O    1.358222  0.347568  -0.337083
H    0.885115  -2.021324  -1.198434
H    -0.715334  -2.192205  -0.415327
H    -0.518968  -1.192810  -1.882325
N    -0.555199  0.125649  0.848172
C    -2.001377  -0.064563  0.850295
C    -2.588084  0.296950  -0.530890
O    -2.100644  1.230316  -1.191643
H    -0.223946  0.955573  1.331618
H    -2.224287  -1.112410  1.095772
C    -2.665824  0.819881  1.941261
C    -3.008124  2.288419  1.607764
C    -1.885717  3.334037  1.563893
N    -0.911400  3.080004  0.499351
C    0.279440  3.681712  0.401713
N    1.241087  3.118674  -0.336978
N    0.511533  4.829763  1.071880
H    -2.036119  0.761986  2.843271
H    -3.611474  0.331983  2.213822
H    -3.696229  2.635543  2.391713
H    -3.584302  2.340436  0.672405
H    -1.355231  3.362338  2.529606
H    -2.365351  4.317730  1.424530
H    -1.192978  2.401595  -0.242458
H    1.284871  2.079157  -0.425918
H    2.076413  3.645572  -0.560429
H    1.446606  5.210196  1.134613
H    -0.252353  5.423429  1.367331
N    -3.656878  -0.394660  -0.970147
C    -4.303691  -1.547052  -0.349098
H    -4.010879  -0.077871  -1.869297
H    -3.620290  -2.402973  -0.264643
H    -5.141151  -1.849671  -0.984340
H    -4.709045  -1.306563  0.642246
