36
Energy: -21201.9072223 eV PBE+vdW (tier 2 basis)
C    2.064895  1.900244  0.927476
C    1.004704  1.718331  1.984655
O    1.284018  1.229377  3.104593
H    2.408979  0.905885  0.612115
H    2.929795  2.415643  1.362342
H    1.715270  2.445836  0.044261
N    -0.236021  2.127870  1.658204
C    -1.481038  1.885326  2.378269
C    -2.565377  2.557803  1.493171
O    -2.238706  3.357803  0.614049
H    -0.403624  2.626649  0.778867
H    -1.664242  0.797030  2.397226
C    -1.558138  2.364174  3.848422
C    -1.316336  3.849701  4.154393
C    0.148964  4.317803  4.080758
N    1.081322  3.387504  4.719937
C    1.474069  3.374302  5.985006
N    2.116468  2.282191  6.451285
N    1.244424  4.402641  6.821138
H    -0.880598  1.737827  4.442655
H    -2.568290  2.114024  4.203143
H    -1.692837  4.038379  5.170918
H    -1.906416  4.492131  3.483633
H    0.251890  5.323402  4.512611
H    0.476674  4.410666  3.039178
H    1.260951  2.516284  4.167671
H    2.667315  2.324785  7.298667
H    2.314161  1.519068  5.813204
H    1.508173  4.357869  7.795627
H    0.817546  5.256128  6.489990
N    -3.842645  2.217688  1.773062
C    -4.985990  2.754607  1.047134
H    -4.012117  1.494047  2.462573
H    -5.482098  1.969109  0.462280
H    -4.620498  3.527594  0.365095
H    -5.710647  3.196276  1.742391
