36
Energy: -21201.8073276 eV PBE+vdW (tier 2 basis)
C    0.979694  1.469883  1.313720
C    0.037762  0.536386  2.043071
O    -0.310996  -0.549644  1.594493
H    1.285433  2.341869  1.905336
H    0.486954  1.819930  0.397364
H    1.869582  0.908314  1.006302
N    -0.405731  0.979220  3.272329
C    -1.456982  0.252155  3.972261
C    -2.158010  1.216054  4.923153
O    -1.514314  2.117391  5.513629
H    -0.253982  1.945901  3.538337
H    -2.160968  -0.116424  3.211178
C    -0.944962  -1.017471  4.709980
C    -0.137101  -0.877164  6.009823
C    1.208330  -0.141756  5.945326
N    1.013144  1.306304  6.022359
C    1.973069  2.212449  6.082483
N    1.641756  3.523764  6.024445
N    3.269200  1.864607  6.172927
H    -0.367114  -1.577257  3.961643
H    -1.820678  -1.643609  4.936291
H    0.079271  -1.899072  6.350881
H    -0.743589  -0.426245  6.811523
H    1.743596  -0.405313  5.017350
H    1.822528  -0.462975  6.801756
H    0.034703  1.658345  5.873699
H    2.310945  4.234089  6.291457
H    0.662801  3.778313  6.096138
H    4.004106  2.558555  6.180253
H    3.545472  0.892553  6.158823
N    -3.470655  1.056424  5.145687
C    -4.386163  0.109942  4.512096
H    -3.855383  1.703841  5.829244
H    -5.400704  0.345012  4.846308
H    -4.165148  -0.926521  4.797886
H    -4.360436  0.196770  3.418931
