36
Energy: -21201.7204446 eV PBE+vdW (tier 2 basis)
C    -0.376353  -0.878690  -0.711295
C    -0.024514  -1.018193  0.747551
O    1.134005  -1.340899  1.086892
H    0.299846  -0.148934  -1.173236
H    -1.413147  -0.570616  -0.883414
H    -0.200578  -1.841557  -1.207514
N    -1.024124  -0.784284  1.623751
C    -0.949035  -0.896039  3.074054
C    -2.391125  -1.221533  3.522546
O    -3.324416  -0.661922  2.949047
H    -1.952882  -0.528582  1.286666
H    -0.247691  -1.702823  3.319240
C    -0.497343  0.451932  3.696064
C    -0.215337  0.491795  5.204833
C    1.052113  -0.228423  5.697352
N    2.286480  0.254914  5.060464
C    2.699407  -0.144361  3.842458
N    3.394774  0.698748  3.061947
N    2.457902  -1.376593  3.383416
H    -1.289549  1.181221  3.474188
H    0.382762  0.794787  3.132337
H    -1.068845  0.088305  5.771110
H    -0.145227  1.548484  5.504402
H    0.981923  -1.313229  5.551943
H    1.170355  -0.081830  6.777866
H    2.676572  1.120855  5.420049
H    3.874672  0.338615  2.245507
H    3.384584  1.699525  3.210098
H    2.033294  -1.458432  2.415693
H    2.132284  -2.057515  4.059047
N    -2.587100  -2.085378  4.551749
C    -1.626546  -2.925899  5.249209
H    -3.569334  -2.197791  4.790607
H    -2.155451  -3.790075  5.664527
H    -1.134372  -2.404541  6.084194
H    -0.863057  -3.314949  4.564220
