36
Energy: -21202.12739 eV PBE+vdW (tier 2 basis)
C    0.850306  -0.006047  0.721494
C    0.329415  0.159894  2.125319
O    1.097338  0.385298  3.087309
H    0.060535  -0.177827  -0.017540
H    1.548160  -0.853040  0.704414
H    1.418567  0.888973  0.438362
N    -0.999479  0.046287  2.296115
C    -1.665619  0.032737  3.587846
C    -2.867584  -0.927038  3.410722
O    -3.339741  -1.110145  2.288876
H    -1.610585  -0.258793  1.533592
H    -0.957464  -0.360627  4.332464
C    -2.187304  1.429588  4.007902
C    -1.130238  2.536532  4.108037
C    -0.145207  2.347503  5.267006
N    0.854343  3.417108  5.343465
C    2.116764  3.365212  4.891292
N    2.938297  4.398826  5.185972
N    2.568723  2.343748  4.171894
H    -2.715717  1.327550  4.969042
H    -2.946114  1.736525  3.273779
H    -1.652003  3.497648  4.234546
H    -0.573564  2.611744  3.162851
H    0.388405  1.394458  5.175848
H    -0.677806  2.335860  6.228947
H    0.534029  4.321798  5.672361
H    3.846334  4.478222  4.748729
H    2.739835  5.020774  5.958242
H    3.566072  2.253156  4.023572
H    1.960481  1.610069  3.736849
N    -3.351017  -1.480235  4.546144
C    -4.511650  -2.360180  4.569562
H    -2.854438  -1.314590  5.413943
H    -4.229428  -3.371616  4.889220
H    -4.917222  -2.407712  3.554748
H    -5.280217  -1.969304  5.248208
