36
Energy: -21202.0880899 eV PBE+vdW (tier 2 basis)
C    -0.819012  1.516316  0.715132
C    -1.051711  1.276605  2.185478
O    -1.347759  2.188646  2.966716
H    -0.624045  0.602149  0.143130
H    -1.697792  2.021702  0.296103
H    0.033036  2.198045  0.597823
N    -0.943082  -0.017129  2.618687
C    -1.043601  -0.358512  4.040912
C    -2.391861  0.182254  4.599132
O    -2.501295  0.844417  5.642090
H    -0.602051  -0.719518  1.971953
H    -1.133134  -1.455278  4.087859
C    0.250613  0.051856  4.780391
C    0.290174  -0.110802  6.318009
C    0.543516  1.223245  7.045024
N    -0.409197  2.223043  6.557909
C    -0.114907  3.457222  6.165637
N    0.896613  4.142488  6.740176
N    -0.834063  4.016848  5.179650
H    0.469321  1.091721  4.506093
H    1.051173  -0.548328  4.327506
H    1.090658  -0.802686  6.609722
H    -0.643775  -0.548102  6.693304
H    1.565328  1.578881  6.844554
H    0.443294  1.084222  8.131477
H    -1.297496  1.802015  6.190860
H    1.233427  5.007487  6.339376
H    1.223104  3.894795  7.664975
H    -0.805370  5.014635  5.016761
H    -1.245429  3.415886  4.458108
N    -3.474666  -0.201939  3.898918
C    -4.825269  0.206356  4.261909
H    -3.334054  -0.686726  3.020253
H    -5.540767  -0.421885  3.723037
H    -5.005760  1.260094  4.007669
H    -4.973163  0.079975  5.339672
