36
Energy: -21201.6500509 eV PBE+vdW (tier 2 basis)
C    0.581740  -0.312514  0.323268
C    -0.044017  -0.675811  1.648996
O    0.378979  -1.643727  2.300466
H    1.535065  0.194590  0.528213
H    -0.036808  0.351706  -0.291504
H    0.804249  -1.226919  -0.236434
N    -1.083259  0.115497  2.033838
C    -1.676543  0.302759  3.361196
C    -0.886061  1.412728  4.109668
O    0.338910  1.405083  4.122460
H    -1.269816  0.886690  1.401104
H    -2.709932  0.639516  3.175126
C    -1.726924  -0.942524  4.260636
C    -2.389580  -2.161590  3.622189
C    -2.434233  -3.397149  4.531201
N    -1.211354  -3.704478  5.302504
C    -0.056875  -4.208283  4.834912
N    0.329964  -4.000064  3.577799
N    0.704114  -4.947920  5.668000
H    -2.275563  -0.647476  5.169670
H    -0.703162  -1.178630  4.574991
H    -1.881099  -2.412554  2.683869
H    -3.432618  -1.938824  3.348988
H    -2.702570  -4.283450  3.938709
H    -3.211743  -3.271743  5.294896
H    -1.304634  -3.689633  6.311101
H    0.154728  -3.091055  3.093325
H    1.127372  -4.522527  3.232654
H    1.689126  -5.089599  5.484026
H    0.314697  -5.377138  6.497316
N    -1.661523  2.328816  4.748930
C    -1.107624  3.408813  5.551793
H    -2.667625  2.275032  4.640311
H    -1.379691  4.387054  5.134615
H    -0.018092  3.306676  5.539615
H    -1.464621  3.350171  6.588232
