36
Energy: -21201.8562243 eV PBE+vdW (tier 2 basis)
C    0.220742  0.578851  0.259437
C    0.021205  -0.178858  1.548507
O    0.931799  -0.859937  2.043901
H    -0.439425  1.446569  0.146674
H    1.264906  0.904249  0.215947
H    0.055127  -0.093221  -0.594684
N    -1.192150  -0.118505  2.174002
C    -2.455335  0.460489  1.752130
C    -3.358649  0.491638  3.005519
O    -3.201369  -0.323860  3.927325
H    -1.220026  -0.528885  3.105117
H    -2.292328  1.496380  1.412499
C    -3.154600  -0.294611  0.587359
C    -3.846885  -1.643782  0.852404
C    -2.973537  -2.875455  1.150358
N    -2.643485  -3.017500  2.571610
C    -1.418260  -2.967598  3.106842
N    -1.289602  -2.534137  4.371985
N    -0.313057  -3.343803  2.439571
H    -2.417566  -0.415229  -0.220273
H    -3.919989  0.383719  0.180743
H    -4.609226  -1.540918  1.641614
H    -4.413496  -1.883198  -0.059050
H    -2.036964  -2.826842  0.580057
H    -3.503562  -3.782009  0.827650
H    -3.404814  -2.832212  3.219663
H    -0.415254  -2.671628  4.863898
H    -1.979457  -1.883452  4.744332
H    -0.430567  -3.821856  1.553852
H    0.470933  -2.670608  2.474942
N    -4.336638  1.415602  2.987501
C    -5.326481  1.571038  4.046040
H    -4.355533  2.076162  2.217828
H    -6.341044  1.486057  3.637653
H    -5.217461  2.547133  4.535155
H    -5.164348  0.781915  4.785139
