36
Energy: -21201.1718125 eV PBE+vdW (tier 2 basis)
C    -0.044222  0.553811  1.472663
C    -0.698424  1.433674  2.502438
O    -0.040547  2.140312  3.258573
H    0.369644  -0.312842  2.003065
H    0.789490  1.105695  1.023267
H    -0.710559  0.169452  0.697611
N    -2.101229  1.563029  2.578456
C    -3.172918  0.745514  1.996747
C    -3.090070  -0.726168  2.488477
O    -2.025874  -1.186785  2.886277
H    -2.330099  1.905250  3.511718
H    -4.092911  1.188181  2.407248
C    -3.271160  0.818059  0.448190
C    -2.860749  2.160211  -0.172019
C    -3.669611  3.366837  0.333283
N    -3.013376  4.654410  0.082600
C    -2.017399  5.149917  0.835029
N    -1.480556  6.343363  0.514674
N    -1.570370  4.472037  1.889942
H    -4.306145  0.578093  0.166319
H    -2.655148  0.030166  -0.004666
H    -2.961893  2.089858  -1.264393
H    -1.792886  2.338465  0.015902
H    -3.861461  3.299759  1.412909
H    -4.653942  3.412537  -0.148588
H    -3.219494  5.130106  -0.788138
H    -0.716133  6.728191  1.053959
H    -1.939312  6.966214  -0.137102
H    -0.823600  4.831052  2.472694
H    -1.826294  3.486505  2.047858
N    -4.231889  -1.466434  2.455560
C    -5.572680  -1.091349  2.034920
H    -4.085142  -2.428454  2.750042
H    -6.294955  -1.738784  2.543590
H    -5.722870  -1.201152  0.950161
H    -5.808007  -0.059051  2.322914
