36
Energy: -21201.9244249 eV PBE+vdW (tier 2 basis)
C    -1.816395  2.668255  2.310760
C    -1.831994  1.537277  3.305021
O    -2.228371  1.713020  4.470527
H    -2.827726  3.084890  2.226746
H    -1.462787  2.375152  1.315659
H    -1.172115  3.468299  2.697447
N    -1.379112  0.329117  2.863207
C    -1.359059  -0.865372  3.695398
C    0.033280  -1.519818  3.877389
O    0.109498  -2.589530  4.474886
H    -1.194303  0.230520  1.869302
H    -1.607807  -0.509666  4.702243
C    -2.377157  -1.932352  3.260908
C    -3.845303  -1.493467  3.198837
C    -4.420575  -0.779412  4.431037
N    -4.111934  -1.452969  5.697813
C    -3.542806  -0.902506  6.779018
N    -3.573349  -1.583088  7.945069
N    -2.963830  0.297562  6.738405
H    -2.244201  -2.773334  3.953772
H    -2.092407  -2.322830  2.271539
H    -4.450529  -2.386723  2.981836
H    -4.015079  -0.815258  2.348794
H    -5.514104  -0.711313  4.333908
H    -4.048375  0.247009  4.497011
H    -4.382616  -2.427956  5.776624
H    -2.915479  -1.370390  8.683403
H    -4.123461  -2.425461  8.046603
H    -2.699167  0.744677  7.606997
H    -2.715720  0.791926  5.855756
N    1.093921  -0.840192  3.376290
C    2.464945  -1.303238  3.532050
H    0.929416  0.080104  2.985374
H    3.007718  -0.702133  4.274454
H    2.995104  -1.252787  2.573527
H    2.432976  -2.341923  3.874759
