36
Energy: -21201.579096 eV PBE+vdW (tier 2 basis)
C    -2.839494  -1.811711  0.179122
C    -1.531048  -1.760641  0.940367
O    -0.588777  -2.489289  0.665077
H    -2.909488  -2.792322  -0.299608
H    -2.820062  -1.050177  -0.613767
H    -3.730774  -1.637418  0.792865
N    -1.383287  -0.830302  1.960013
C    -2.337989  0.097222  2.556432
C    -3.588398  -0.635365  3.102972
O    -4.749152  -0.343684  2.733642
H    -0.445120  -0.846456  2.349720
H    -1.821401  0.504052  3.441823
C    -2.690497  1.286506  1.643297
C    -3.313194  2.499147  2.376599
C    -4.579891  3.036928  1.708287
N    -5.599328  1.989350  1.735760
C    -6.871136  2.120465  1.401847
N    -7.723118  1.099358  1.639988
N    -7.345627  3.251329  0.845957
H    -3.354677  0.935266  0.841764
H    -1.757817  1.587529  1.151182
H    -2.586475  3.319087  2.433843
H    -3.560852  2.243046  3.418387
H    -4.361659  3.331639  0.667191
H    -4.939573  3.928034  2.247368
H    -5.270702  1.051001  2.080917
H    -8.607101  1.040314  1.151773
H    -7.357058  0.240953  2.036200
H    -8.340049  3.416111  0.765171
H    -6.729762  4.029382  0.653991
N    -3.402445  -1.620995  3.997700
C    -2.160421  -2.124621  4.575155
H    -4.265475  -2.078504  4.279854
H    -2.410124  -2.677925  5.485837
H    -1.493516  -1.301712  4.859558
H    -1.629730  -2.793720  3.885847
