36
Energy: -21201.8935645 eV PBE+vdW (tier 2 basis)
C    -2.199316  0.820309  0.822074
C    -1.799882  0.383918  2.209869
O    -0.630519  0.067297  2.473828
H    -1.583469  1.680797  0.531779
H    -3.257465  1.088727  0.727283
H    -1.971013  0.011068  0.117061
N    -2.787321  0.383642  3.148983
C    -2.643445  -0.030325  4.545853
C    -1.372596  0.558288  5.226693
O    -0.682028  -0.112795  5.993349
H    -3.721078  0.620951  2.832613
H    -3.466941  0.480155  5.069388
C    -2.842399  -1.540403  4.836669
C    -2.491827  -2.609148  3.791752
C    -1.021198  -2.879795  3.441099
N    -0.148709  -2.985316  4.610107
C    0.940779  -2.247692  4.847703
N    1.738513  -2.569359  5.891241
N    1.303831  -1.257394  4.031840
H    -3.907288  -1.684465  5.064025
H    -2.301719  -1.732348  5.774259
H    -3.009308  -2.409501  2.840784
H    -2.933695  -3.547547  4.161898
H    -0.624849  -2.096297  2.792993
H    -0.961042  -3.822099  2.876183
H    -0.433289  -3.624266  5.344732
H    2.277354  -1.837451  6.337226
H    1.515606  -3.367879  6.471293
H    2.177219  -0.780755  4.213844
H    0.601199  -0.751987  3.471229
N    -1.175697  1.879180  5.007487
C    -0.070672  2.620185  5.592039
H    -1.758266  2.345134  4.321609
H    -0.383506  3.650821  5.791974
H    0.805183  2.639132  4.926279
H    0.212469  2.141942  6.534849
