36
Energy: -21201.1669777 eV PBE+vdW (tier 2 basis)
C    0.469498  -0.823301  1.231838
C    -0.297954  -0.924743  2.535403
O    0.165209  -1.496295  3.512091
H    0.961768  -1.786742  1.060042
H    -0.133668  -0.564144  0.355289
H    1.266483  -0.075910  1.349641
N    -1.573363  -0.373587  2.607582
C    -2.246522  0.544908  1.695661
C    -2.698689  -0.073085  0.338564
O    -2.957891  0.659920  -0.618422
H    -1.965736  -0.471769  3.540289
H    -3.203467  0.782244  2.190939
C    -1.521217  1.876532  1.447661
C    -1.576380  2.844277  2.628309
C    -1.015114  4.225827  2.282394
N    -1.791416  4.828843  1.184497
C    -1.307953  5.405856  0.083928
N    -0.063971  5.907699  0.061451
N    -2.075810  5.492026  -1.015887
H    -2.002000  2.307941  0.558499
H    -0.474686  1.687303  1.168087
H    -2.615283  2.959650  2.983537
H    -1.007815  2.459610  3.487791
H    0.027381  4.135373  1.946708
H    -1.037843  4.892655  3.155951
H    -2.793463  4.659236  1.199195
H    0.389831  6.140212  -0.812719
H    0.436965  6.102102  0.918835
H    -2.856196  4.861382  -1.156347
H    -1.855781  6.139127  -1.762471
N    -2.841433  -1.415313  0.341781
C    -3.319821  -2.170639  -0.803391
H    -2.580128  -1.905639  1.191367
H    -2.550054  -2.865833  -1.163957
H    -3.563020  -1.460555  -1.599726
H    -4.219939  -2.742150  -0.542858
