36
Energy: -21201.3698224 eV PBE+vdW (tier 2 basis)
C    0.730795  -0.386619  0.362637
C    0.483083  -0.231584  1.847273
O    1.386319  -0.307240  2.684101
H    -0.110098  -0.054722  -0.257578
H    0.922495  -1.447361  0.150704
H    1.633950  0.168571  0.086673
N    -0.817896  0.003544  2.204091
C    -1.275210  -0.085479  3.577034
C    -2.693821  -0.685354  3.528202
O    -3.398152  -0.516072  2.532841
H    -1.570847  -0.050995  1.517760
H    -0.574091  -0.734741  4.122764
C    -1.332748  1.293795  4.278755
C    0.050117  1.934870  4.393327
C    0.015010  3.324869  5.019704
N    1.382204  3.871029  5.040352
C    1.768115  4.991020  5.648386
N    3.073572  5.304040  5.731888
N    0.859082  5.810593  6.196808
H    -1.779175  1.172808  5.278472
H    -2.012259  1.939679  3.700969
H    0.495852  2.007405  3.390265
H    0.715406  1.283577  4.979797
H    -0.364955  3.282431  6.052816
H    -0.640304  3.989889  4.432337
H    2.078234  3.352990  4.511562
H    3.375635  6.235603  5.985874
H    3.788022  4.648418  5.442772
H    1.134870  6.575533  6.798477
H    -0.130400  5.665234  6.045829
N    -3.132775  -1.353272  4.626570
C    -2.367234  -1.746236  5.801356
H    -4.081024  -1.705583  4.534130
H    -3.010445  -2.360020  6.439299
H    -2.042183  -0.880314  6.396246
H    -1.485284  -2.346775  5.538450
