36
Energy: -21201.2276642 eV PBE+vdW (tier 2 basis)
C    0.029779  0.332796  0.712605
C    -0.269583  0.056474  2.172452
O    0.572458  0.217009  3.045075
H    -0.839008  0.594439  0.098366
H    0.473482  -0.572504  0.274470
H    0.780340  1.127275  0.662207
N    -1.512002  -0.475746  2.508009
C    -2.774088  -0.351814  1.783056
C    -2.790809  -1.069658  0.404390
O    -3.409058  -0.586786  -0.545806
H    -1.581183  -0.626895  3.511907
H    -3.514036  -0.890889  2.397194
C    -3.275669  1.091478  1.605650
C    -3.426032  1.887683  2.898755
C    -4.028677  3.277859  2.674411
N    -3.184343  4.183203  1.873548
C    -3.321311  4.472792  0.575521
N    -2.717645  5.566468  0.075041
N    -4.064472  3.706109  -0.233908
H    -4.245330  1.012071  1.087995
H    -2.584065  1.607024  0.921422
H    -2.457190  1.987210  3.411678
H    -4.093473  1.361462  3.599373
H    -4.194800  3.782482  3.635097
H    -5.007004  3.212014  2.178431
H    -2.433639  4.659067  2.364206
H    -2.389003  6.308831  0.679410
H    -2.565419  5.671384  -0.920021
H    -4.317556  4.028765  -1.159471
H    -4.228391  2.727086  -0.018245
N    -2.125178  -2.244993  0.375484
C    -2.047464  -3.089529  -0.804650
H    -1.608957  -2.506506  1.209516
H    -2.387959  -4.106698  -0.573923
H    -1.019834  -3.137854  -1.190226
H    -2.696637  -2.658523  -1.572836
