36
Energy: -21201.6723241 eV PBE+vdW (tier 2 basis)
C    -0.884044  2.180335  0.077455
C    -0.354106  1.477866  1.306338
O    0.761534  1.735441  1.769835
H    -0.364812  1.810066  -0.817105
H    -0.637495  3.244005  0.169088
H    -1.963873  2.071630  -0.073598
N    -1.148157  0.552570  1.932946
C    -2.317762  -0.168128  1.459096
C    -2.780777  -1.047737  2.634354
O    -1.955925  -1.546929  3.420476
H    -0.756761  0.201061  2.802037
H    -3.117685  0.550875  1.219828
C    -2.069942  -1.026469  0.175077
C    -1.693670  -2.518384  0.270001
C    -0.428539  -2.963258  1.031244
N    0.716618  -2.064402  0.883189
C    1.351881  -1.424465  1.872579
N    2.488247  -0.733693  1.619613
N    0.909146  -1.481850  3.132343
H    -1.318431  -0.493713  -0.423232
H    -2.991183  -0.989038  -0.423887
H    -1.616706  -2.870701  -0.769651
H    -2.527507  -3.089976  0.704446
H    -0.134806  -3.961045  0.674584
H    -0.640330  -3.063132  2.097449
H    1.048770  -1.880565  -0.057592
H    2.535515  0.191151  2.047985
H    2.873370  -0.771230  0.682442
H    1.482155  -1.068723  3.858104
H    -0.084949  -1.659394  3.340290
N    -4.103187  -1.271729  2.711863
C    -4.725460  -2.122024  3.719517
H    -4.707510  -0.771379  2.068819
H    -5.378311  -2.861265  3.240230
H    -5.318077  -1.520844  4.420785
H    -3.934342  -2.635875  4.272107
