36
Energy: -21202.0104034 eV PBE+vdW (tier 2 basis)
C    -1.429279  -0.943676  0.276366
C    -1.387582  -0.039387  1.482607
O    -1.553593  1.185068  1.389550
H    -0.602544  -0.668368  -0.391630
H    -1.350363  -2.010224  0.515368
H    -2.361190  -0.761646  -0.271758
N    -1.161058  -0.646348  2.684881
C    -0.898007  0.025838  3.964981
C    -2.115550  0.751812  4.573381
O    -2.320934  0.652284  5.810526
H    -1.075386  -1.655848  2.688141
H    -0.701991  -0.792017  4.670193
C    0.377923  0.926193  3.909419
C    1.276687  0.930795  5.167655
C    1.079788  2.054275  6.189437
N    -0.219728  1.954758  6.852588
C    -0.818112  2.912803  7.554047
N    -0.125170  3.950832  8.056400
N    -2.150125  2.840011  7.726698
H    0.109615  1.949294  3.612093
H    0.979173  0.528051  3.082334
H    2.319525  1.020147  4.833735
H    1.218834  -0.040770  5.683865
H    1.164246  3.034862  5.691966
H    1.888213  1.986694  6.935486
H    -0.869427  1.206234  6.540775
H    -0.596446  4.731919  8.492192
H    0.885281  3.937959  8.082421
H    -2.608176  3.311491  8.495342
H    -2.648029  2.102305  7.220396
N    -2.867232  1.491418  3.761948
C    -4.031323  2.232748  4.220231
H    -2.536959  1.572142  2.782415
H    -4.621599  2.530851  3.348875
H    -3.741091  3.138447  4.773208
H    -4.648389  1.606054  4.874871
