36
Energy: -21201.7086886 eV PBE+vdW (tier 2 basis)
C    0.697197  -0.449476  0.412417
C    0.344008  0.358228  1.635298
O    1.223242  0.839793  2.372494
H    1.365805  0.137591  -0.228752
H    -0.173792  -0.766982  -0.172232
H    1.252495  -1.340784  0.732404
N    -0.977093  0.517212  1.895979
C    -1.473285  1.159375  3.112390
C    -2.589520  0.385585  3.851705
O    -2.491530  0.259941  5.067474
H    -1.633852  0.095681  1.250280
H    -0.640946  1.102345  3.822419
C    -1.866810  2.640338  2.915436
C    -0.683050  3.569526  2.612893
C    0.264226  3.724144  3.808754
N    1.424509  4.571776  3.522160
C    2.659508  4.145927  3.220134
N    2.917035  2.868126  2.959126
N    3.657509  5.057275  3.180718
H    -2.378194  2.972315  3.832048
H    -2.602638  2.726826  2.103398
H    -1.073266  4.559944  2.333742
H    -0.120989  3.201420  1.741946
H    0.640231  2.752386  4.149334
H    -0.264359  4.174196  4.660741
H    1.269790  5.573504  3.483427
H    3.878734  2.553093  2.934536
H    2.189779  2.152918  2.752454
H    4.565427  4.813704  2.808389
H    3.578640  5.938706  3.670435
N    -3.673679  -0.090502  3.171155
C    -4.023014  0.002690  1.763642
H    -4.321171  -0.585180  3.778945
H    -5.111883  -0.064743  1.664489
H    -3.590741  -0.813720  1.159770
H    -3.728664  0.968617  1.334681
