36
Energy: -21201.4169751 eV PBE+vdW (tier 2 basis)
C    0.768770  0.592379  0.809923
C    0.360796  1.144074  2.145773
O    0.987777  2.092911  2.661824
H    1.014049  -0.474778  0.880834
H    1.644334  1.148460  0.466952
H    -0.036886  0.682966  0.069205
N    -0.688093  0.606138  2.836845
C    -1.922110  -0.058740  2.382832
C    -1.729653  -1.012350  1.180188
O    -2.173675  -0.738242  0.067377
H    -0.780963  1.036726  3.755769
H    -2.229099  -0.696331  3.227693
C    -3.073989  0.944389  2.165030
C    -2.923642  2.053955  1.110063
C    -2.043188  3.266118  1.437662
N    -2.452197  3.943467  2.678518
C    -1.658921  4.499137  3.607874
N    -2.211719  5.398426  4.454437
N    -0.375204  4.175846  3.741953
H    -3.305253  1.391043  3.146647
H    -3.957764  0.349725  1.895361
H    -3.936238  2.427261  0.887501
H    -2.565963  1.620926  0.167177
H    -2.118393  3.987552  0.609378
H    -0.985364  3.011475  1.526598
H    -3.442667  4.151286  2.763937
H    -1.713756  5.707001  5.278842
H    -3.054054  5.901093  4.207870
H    0.208374  4.749061  4.339207
H    0.095280  3.342176  3.304701
N    -1.073588  -2.176435  1.431982
C    -0.574001  -2.677487  2.706045
H    -1.025425  -2.791848  0.624453
H    0.018440  -3.577070  2.513311
H    -1.387925  -2.953246  3.393439
H    0.079432  -1.946181  3.198305
