36
Energy: -21201.9357333 eV PBE+vdW (tier 2 basis)
C    0.087987  -1.474393  0.203419
C    0.102901  -0.937654  1.615823
O    0.887180  -1.316344  2.473629
H    -0.787373  -1.163911  -0.379885
H    0.995276  -1.130435  -0.311019
H    0.131998  -2.568805  0.238217
N    -0.860499  0.026920  1.901575
C    -0.792185  0.775637  3.148685
C    -1.775762  0.256782  4.213243
O    -1.804387  0.745185  5.362161
H    -1.367249  0.437192  1.123322
H    0.205351  0.553562  3.565747
C    -0.900427  2.293170  2.872027
C    -0.387121  3.218328  3.993435
C    -1.493550  3.782985  4.898547
N    -0.974114  4.380121  6.132742
C    -0.638805  3.676828  7.226518
N    -0.785201  2.357068  7.263356
N    -0.133922  4.339252  8.291506
H    -1.935512  2.556291  2.598045
H    -0.292885  2.474550  1.975503
H    0.159082  4.060302  3.545246
H    0.345970  2.674176  4.605799
H    -2.213082  3.003634  5.175054
H    -2.057736  4.568130  4.379402
H    -0.657669  5.342388  6.092311
H    -0.658477  1.867294  8.140013
H    -1.100981  1.784808  6.444917
H    0.137882  3.838548  9.126791
H    -0.240485  5.341344  8.376670
N    -2.574686  -0.749606  3.839039
C    -3.509711  -1.423646  4.723967
H    -2.424623  -1.105267  2.898517
H    -4.484620  -1.526907  4.233070
H    -3.621963  -0.825689  5.632862
H    -3.139490  -2.421244  4.996221
