36
Energy: -21201.6295582 eV PBE+vdW (tier 2 basis)
C    -0.591155  1.169115  0.198530
C    0.151239  0.805128  1.469284
O    1.308355  1.133042  1.680144
H    0.091711  1.743334  -0.432405
H    -1.479975  1.782481  0.402786
H    -0.917789  0.278290  -0.356243
N    -0.540755  0.079430  2.430650
C    -1.851954  -0.544304  2.316933
C    -2.536770  -0.371996  3.682135
O    -2.563270  -1.287827  4.530615
H    0.041419  -0.185513  3.222674
H    -2.424184  0.029028  1.573789
C    -1.769021  -2.003480  1.831307
C    -3.113331  -2.680195  1.502679
C    -3.754276  -3.525297  2.610939
N    -2.955650  -4.703428  2.972807
C    -2.268586  -4.892406  4.109613
N    -1.794706  -6.129738  4.373775
N    -2.041621  -3.895712  4.958691
H    -1.186936  -2.596385  2.551994
H    -1.155458  -1.975807  0.920917
H    -2.982074  -3.322606  0.619047
H    -3.856167  -1.925338  1.198917
H    -4.733139  -3.891904  2.271594
H    -3.928813  -2.940962  3.520141
H    -2.902771  -5.448268  2.285744
H    -1.123605  -6.280958  5.114768
H    -2.172128  -6.947043  3.913237
H    -1.704353  -4.103704  5.890132
H    -2.213010  -2.891825  4.715319
N    -3.074414  0.828704  3.966143
C    -3.049967  2.039852  3.153845
H    -3.436112  0.902517  4.913575
H    -3.508117  1.872847  2.170227
H    -2.027081  2.415403  3.018342
H    -3.638150  2.806209  3.666624
