36
Energy: -21202.0778654 eV PBE+vdW (tier 2 basis)
C    -2.308416  0.626680  0.357343
C    -1.995179  0.919819  1.804076
O    -1.172598  1.786241  2.130041
H    -2.561397  1.566148  -0.147809
H    -3.121657  -0.093821  0.213530
H    -1.400957  0.235801  -0.121368
N    -2.676308  0.177206  2.727929
C    -2.440013  0.139236  4.175867
C    -2.786841  1.423043  4.961359
O    -3.382797  1.322444  6.058842
H    -3.365011  -0.475572  2.373851
H    -3.166853  -0.590381  4.553582
C    -1.006171  -0.351100  4.510093
C    -0.672128  -0.374915  6.006513
C    -1.519131  -1.373901  6.808636
N    -1.381151  -1.223736  8.258199
C    -2.189502  -0.487153  9.037653
N    -2.021153  -0.556794  10.377356
N    -3.136615  0.286867  8.520092
H    -0.288033  0.302312  3.998953
H    -0.887513  -1.354380  4.072994
H    -0.796443  0.630985  6.434087
H    0.391631  -0.627308  6.125578
H    -1.237866  -2.406352  6.559852
H    -2.586422  -1.274562  6.576027
H    -0.546512  -1.601385  8.693068
H    -2.510521  0.078316  10.993204
H    -1.546016  -1.341122  10.803919
H    -3.827897  0.695468  9.136927
H    -3.174790  0.588259  7.515337
N    -2.390499  2.587073  4.449892
C    -2.637341  3.860392  5.108562
H    -1.844591  2.540106  3.571547
H    -2.438295  4.666032  4.395955
H    -1.986257  3.991728  5.984494
H    -3.679504  3.920423  5.443282
