36
Energy: -21202.0053717 eV PBE+vdW (tier 2 basis)
C    -0.495021  -0.803621  0.400272
C    -0.511115  -0.380910  1.849472
O    0.236464  -0.851160  2.699584
H    0.471268  -0.521448  -0.037632
H    -1.299507  -0.361251  -0.199275
H    -0.565047  -1.896485  0.347820
N    -1.448715  0.585255  2.189121
C    -1.408581  1.181932  3.513562
C    -2.277931  0.445754  4.549563
O    -2.131079  0.690437  5.769736
H    -1.931382  1.078703  1.445446
H    -0.380453  1.007840  3.867048
C    -1.712670  2.706595  3.484677
C    -0.530066  3.609495  3.881375
C    -0.327315  3.771926  5.397263
N    -0.166931  2.503670  6.103984
C    0.969599  1.841916  6.299278
N    2.177405  2.415041  6.128800
N    0.893003  0.554768  6.682884
H    -2.581082  2.930773  4.121540
H    -2.020874  2.973338  2.464360
H    -0.696621  4.617803  3.475106
H    0.394484  3.235585  3.414510
H    -1.204830  4.262897  5.840325
H    0.520741  4.440212  5.602293
H    -1.018504  1.884976  6.104785
H    3.019251  1.928523  6.407694
H    2.250829  3.417582  6.021258
H    1.719611  -0.017677  6.784998
H    -0.007280  0.085850  6.627571
N    -3.165690  -0.434816  4.083249
C    -4.044314  -1.234476  4.923457
H    -3.146903  -0.598278  3.080163
H    -5.068632  -1.196675  4.535069
H    -4.024459  -0.824076  5.937022
H    -3.710914  -2.280393  4.952305
