36
Energy: -21202.1064437 eV PBE+vdW (tier 2 basis)
C    -1.484881  4.161873  0.984959
C    -0.957197  2.897933  1.605061
O    0.250670  2.578645  1.483101
H    -1.334264  4.109105  -0.101153
H    -0.901324  5.015013  1.352421
H    -2.546558  4.333328  1.190568
N    -1.832983  2.142545  2.291539
C    -1.582531  0.787840  2.762724
C    -2.875742  0.004773  2.423256
O    -3.934015  0.622569  2.301935
H    -2.834832  2.352394  2.246034
H    -0.722452  0.387054  2.209003
C    -1.354523  0.707390  4.293146
C    -0.169396  1.480498  4.890285
C    1.234978  0.923885  4.618808
N    1.689590  1.274020  3.275886
C    2.946793  1.316335  2.858962
N    3.951658  0.757395  3.560982
N    3.218906  1.948123  1.699387
H    -1.270764  -0.353369  4.575295
H    -2.274424  1.074858  4.771285
H    -0.302578  1.478493  5.981081
H    -0.204209  2.539245  4.590863
H    1.235983  -0.172042  4.752105
H    1.932544  1.348584  5.358499
H    0.999855  1.716938  2.610516
H    4.916808  0.969205  3.345817
H    3.765941  0.258470  4.419932
H    4.072914  1.760526  1.191551
H    2.447618  2.383637  1.197620
N    -2.801126  -1.342782  2.305452
C    -1.637373  -2.207030  2.419183
H    -3.704488  -1.783069  2.150674
H    -1.435187  -2.505578  3.459211
H    -0.743776  -1.721090  2.010034
H    -1.812633  -3.114712  1.831977
