36
Energy: -21201.8158026 eV PBE+vdW (tier 2 basis)
C    -2.266303  0.014727  -0.291282
C    -1.432061  0.501173  0.871487
O    -0.230703  0.785693  0.702756
H    -3.332239  -0.095389  -0.062441
H    -1.878258  -0.957780  -0.622068
H    -2.149050  0.713877  -1.128045
N    -2.082693  0.599982  2.057583
C    -1.609123  0.990998  3.399735
C    -1.798128  2.488056  3.755015
O    -1.552653  2.843120  4.903200
H    -3.056029  0.315441  2.029475
H    -2.305250  0.480212  4.079400
C    -0.183822  0.512604  3.778201
C    0.934539  1.571746  3.681509
C    2.285787  0.987910  3.273766
N    2.176375  0.554374  1.881102
C    3.111994  -0.013134  1.141021
N    2.792856  -0.434924  -0.103279
N    4.363492  -0.193497  1.601300
H    0.046815  -0.368416  3.163498
H    -0.227858  0.152648  4.812992
H    1.040593  2.086193  4.642913
H    0.674366  2.350827  2.949423
H    2.560181  0.136225  3.919827
H    3.067941  1.757986  3.370323
H    1.237818  0.691240  1.447515
H    3.517915  -0.612764  -0.786008
H    1.871307  -0.202318  -0.461021
H    5.035799  -0.747498  1.088376
H    4.608989  0.080576  2.542852
N    -2.228742  3.308620  2.765962
C    -2.472677  4.727528  2.975516
H    -2.403535  2.909013  1.852112
H    -1.835307  5.335150  2.320088
H    -2.236362  4.956106  4.019438
H    -3.524273  4.976793  2.783297
