36
Energy: -21201.4673994 eV PBE+vdW (tier 2 basis)
C    -1.238051  1.366785  0.374599
C    -1.684444  0.525617  1.551039
O    -1.603541  -0.710001  1.497451
H    -1.538889  2.419201  0.435181
H    -1.636394  0.928681  -0.547010
H    -0.142241  1.319374  0.315357
N    -2.167558  1.249106  2.609670
C    -2.506829  0.825035  3.978247
C    -1.368657  1.281897  4.931055
O    -0.303845  0.673573  4.966554
H    -2.125607  2.254474  2.482396
H    -3.455180  1.321120  4.248424
C    -2.650138  -0.687456  4.056019
C    -3.060087  -1.316319  5.379696
C    -2.769701  -2.820606  5.304918
N    -3.535102  -3.550926  4.274385
C    -3.125208  -3.949765  3.057043
N    -3.724025  -5.033976  2.517686
N    -2.155345  -3.335282  2.375452
H    -1.653485  -1.074293  3.812714
H    -3.352331  -0.998599  3.272083
H    -4.118522  -1.135538  5.621135
H    -2.463204  -0.918757  6.214047
H    -2.997196  -3.313496  6.258851
H    -1.702819  -2.980087  5.098516
H    -4.434456  -3.919088  4.565961
H    -3.679623  -5.210706  1.522318
H    -4.184433  -5.723827  3.097371
H    -1.770691  -3.810441  1.566522
H    -1.987451  -2.312500  2.383279
N    -1.650249  2.387485  5.669610
C    -0.698978  2.984945  6.595380
H    -2.574026  2.797609  5.593537
H    0.237257  2.423564  6.519251
H    -1.067453  2.931002  7.628149
H    -0.512261  4.035020  6.337142
