36
Energy: -21201.5014994 eV PBE+vdW (tier 2 basis)
C    -0.331868  -0.965962  3.290496
C    -1.647454  -1.655448  2.986775
O    -1.870377  -2.821608  3.265908
H    0.295985  -1.665352  3.847825
H    -0.469936  -0.050752  3.882824
H    0.192255  -0.687822  2.363778
N    -2.634174  -0.888302  2.372607
C    -2.515590  0.462273  1.854816
C    -2.730703  1.578977  2.907513
O    -2.353717  2.746827  2.677308
H    -3.461073  -1.427684  2.125797
H    -1.480490  0.610492  1.515484
C    -3.482173  0.645420  0.661007
C    -2.985085  0.073031  -0.682241
C    -2.210567  1.028069  -1.605893
N    -0.856841  1.401687  -1.158477
C    -0.577294  2.283400  -0.186340
N    0.603665  2.217240  0.453613
N    -1.444147  3.229772  0.199206
H    -3.739764  1.707285  0.554569
H    -4.428455  0.152591  0.931615
H    -3.858067  -0.249996  -1.268233
H    -2.392206  -0.838959  -0.510701
H    -2.795472  1.938921  -1.800473
H    -2.076779  0.554625  -2.585896
H    -0.084486  0.868840  -1.544915
H    0.920210  3.014388  0.992741
H    1.238381  1.438569  0.333465
H    -1.685629  3.243549  1.229538
H    -2.252603  3.362660  -0.398757
N    -3.330775  1.208342  4.043992
C    -3.623685  2.110518  5.148128
H    -3.546422  0.218702  4.136641
H    -4.697103  2.098790  5.373425
H    -3.325116  3.121522  4.857133
H    -3.068187  1.812444  6.046427
