36
Energy: -21201.7064681 eV PBE+vdW (tier 2 basis)
C    0.421181  -0.460168  0.419374
C    0.227894  -0.164021  1.882483
O    1.136185  -0.373497  2.708393
H    0.714552  -1.510812  0.303506
H    1.250833  0.150874  0.041603
H    -0.470470  -0.266164  -0.187193
N    -0.976783  0.334314  2.255456
C    -1.251437  0.741803  3.630461
C    -2.751771  0.543417  3.952424
O    -3.484541  1.501264  4.176908
H    -1.654803  0.563989  1.536117
H    -0.678233  0.048794  4.260536
C    -0.801677  2.187406  3.884652
C    -0.539926  2.555857  5.347472
C    0.706420  1.919646  5.976570
N    0.473415  0.598954  6.594445
C    1.205052  -0.513802  6.418085
N    1.263324  -1.408729  7.428335
N    1.844807  -0.753101  5.274999
H    -1.575432  2.855739  3.484319
H    0.116838  2.360899  3.304983
H    -1.427189  2.353966  5.967251
H    -0.395999  3.644348  5.395940
H    1.093777  2.574478  6.770957
H    1.508397  1.804770  5.237178
H    -0.142138  0.595452  7.402499
H    1.581916  -2.355223  7.265746
H    1.102719  -1.128604  8.387428
H    1.509395  -0.413110  4.341496
H    2.522901  -1.505496  5.247649
N    -3.206236  -0.742750  3.990649
C    -2.489742  -1.974057  3.697203
H    -4.207303  -0.807055  4.155502
H    -2.990873  -2.803796  4.207644
H    -1.458263  -1.929839  4.068947
H    -2.456194  -2.198829  2.620795
