36
Energy: -21201.6909945 eV PBE+vdW (tier 2 basis)
C    0.259680  2.271803  0.834102
C    -0.208405  2.423119  2.262551
O    0.334848  3.175830  3.068274
H    -0.365922  2.878853  0.163713
H    0.223695  1.231501  0.484686
H    1.286238  2.641777  0.767584
N    -1.291680  1.667799  2.664454
C    -2.265486  0.975742  1.846723
C    -2.912000  1.897621  0.786969
O    -3.140864  3.106244  0.996722
H    -1.520380  1.813774  3.641521
H    -1.763625  0.162500  1.301336
C    -3.355230  0.291405  2.730988
C    -3.828438  0.968621  4.034824
C    -4.565282  2.319392  3.953266
N    -3.723914  3.447458  3.565743
C    -2.883333  4.105974  4.355328
N    -2.820145  3.889155  5.684541
N    -2.065371  5.034875  3.814424
H    -2.961053  -0.691957  3.020765
H    -4.229686  0.090845  2.094519
H    -2.994537  1.046388  4.751719
H    -4.525702  0.258362  4.504114
H    -5.057646  2.532185  4.913866
H    -5.374660  2.269443  3.212333
H    -3.496672  3.471909  2.538948
H    -2.349485  4.561557  6.277716
H    -3.498518  3.290171  6.135529
H    -1.164458  5.185486  4.258681
H    -2.019407  5.063229  2.800327
N    -3.234079  1.343414  -0.397000
C    -2.995218  -0.020055  -0.863318
H    -3.676616  1.992191  -1.043248
H    -3.498285  -0.765797  -0.234637
H    -1.922439  -0.251634  -0.912719
H    -3.403182  -0.107590  -1.874468
